MODEL 1
REMARK VINA RESULT: -3.753523867      0.000      0.000
REMARK  0 active torsions:
REMARK  status: ('A' for Active; 'I' for Inactive)
ROOT
HETATM    1  C1  UNL     1       4.721  31.989   0.175  1.00  0.00     0.093 C 
HETATM    2  C2  UNL     1       5.202  30.673   0.712  1.00  0.00     0.229 C 
HETATM    3  S1  UNL     1       6.615  30.131  -0.292  1.00  0.00    -0.024 SA
HETATM    4  O1  UNL     1       5.702  30.804   2.025  1.00  0.00    -0.338 OA
HETATM    5  C3  UNL     1       5.796  29.456   2.379  1.00  0.00     0.256 C 
HETATM    6  C4  UNL     1       4.475  28.950   1.923  1.00  0.00     0.140 C 
HETATM    7  N1  UNL     1       3.786  28.026   2.487  1.00  0.00    -0.382 N 
ATOM      8  H11 UNL     1       2.879  27.680   2.174  1.00  0.00     0.158 HD
ATOM      9  H12 UNL     1       3.991  27.477   3.322  1.00  0.00     0.158 HD
HETATM   10  O2  UNL     1       4.193  29.701   0.780  1.00  0.00    -0.290 OA
ENDROOT
TORSDOF 0
ENDMDL
MODEL 2
REMARK VINA RESULT: -3.699167121      2.140      2.587
REMARK  0 active torsions:
REMARK  status: ('A' for Active; 'I' for Inactive)
ROOT
HETATM    1  C1  UNL     1       5.424  33.760   0.550  1.00  0.00     0.093 C 
HETATM    2  C2  UNL     1       5.151  32.291   0.405  1.00  0.00     0.229 C 
HETATM    3  S1  UNL     1       3.481  32.087  -0.279  1.00  0.00    -0.024 SA
HETATM    4  O1  UNL     1       6.018  31.696  -0.536  1.00  0.00    -0.338 OA
HETATM    5  C3  UNL     1       5.770  30.349  -0.271  1.00  0.00     0.256 C 
HETATM    6  C4  UNL     1       5.842  30.334   1.214  1.00  0.00     0.140 C 
HETATM    7  N1  UNL     1       6.286  29.371   1.938  1.00  0.00    -0.382 N 
ATOM      8  H11 UNL     1       6.335  29.362   2.957  1.00  0.00     0.158 HD
ATOM      9  H12 UNL     1       6.661  28.465   1.658  1.00  0.00     0.158 HD
HETATM   10  O2  UNL     1       5.329  31.575   1.598  1.00  0.00    -0.290 OA
ENDROOT
TORSDOF 0
ENDMDL
MODEL 3
REMARK VINA RESULT: -3.506438989      4.821      5.371
REMARK  0 active torsions:
REMARK  status: ('A' for Active; 'I' for Inactive)
ROOT
HETATM    1  C1  UNL     1      -0.780  28.303  -1.243  1.00  0.00     0.093 C 
HETATM    2  C2  UNL     1       0.149  28.837  -0.192  1.00  0.00     0.229 C 
HETATM    3  S1  UNL     1      -0.282  28.064   1.394  1.00  0.00    -0.024 SA
HETATM    4  O1  UNL     1       1.485  28.459  -0.444  1.00  0.00    -0.338 OA
HETATM    5  C3  UNL     1       2.143  29.293   0.462  1.00  0.00     0.256 C 
HETATM    6  C4  UNL     1       1.468  30.590   0.195  1.00  0.00     0.140 C 
HETATM    7  N1  UNL     1       2.014  31.750   0.254  1.00  0.00    -0.382 N 
ATOM      8  H11 UNL     1       1.550  32.640   0.070  1.00  0.00     0.158 HD
ATOM      9  H12 UNL     1       2.974  32.008   0.482  1.00  0.00     0.158 HD
HETATM   10  O2  UNL     1       0.154  30.238  -0.118  1.00  0.00    -0.290 OA
ENDROOT
TORSDOF 0
ENDMDL
MODEL 4
REMARK VINA RESULT: -3.470125064      2.673      3.389
REMARK  0 active torsions:
REMARK  status: ('A' for Active; 'I' for Inactive)
ROOT
HETATM    1  C1  UNL     1       5.790  29.613   2.823  1.00  0.00     0.093 C 
HETATM    2  C2  UNL     1       5.570  29.977   1.384  1.00  0.00     0.229 C 
HETATM    3  S1  UNL     1       4.023  29.203   0.832  1.00  0.00    -0.024 SA
HETATM    4  O1  UNL     1       5.373  31.366   1.228  1.00  0.00    -0.338 OA
HETATM    5  C3  UNL     1       5.489  31.468  -0.159  1.00  0.00     0.256 C 
HETATM    6  C4  UNL     1       6.713  30.659  -0.402  1.00  0.00     0.140 C 
HETATM    7  N1  UNL     1       7.596  30.882  -1.306  1.00  0.00    -0.382 N 
ATOM      8  H11 UNL     1       8.436  30.327  -1.471  1.00  0.00     0.158 HD
ATOM      9  H12 UNL     1       7.639  31.621  -2.007  1.00  0.00     0.158 HD
HETATM   10  O2  UNL     1       6.654  29.647   0.558  1.00  0.00    -0.290 OA
ENDROOT
TORSDOF 0
ENDMDL
MODEL 5
REMARK VINA RESULT: -3.430632461      3.385      3.802
REMARK  0 active torsions:
REMARK  status: ('A' for Active; 'I' for Inactive)
ROOT
HETATM    1  C1  UNL     1       1.922  30.585   0.198  1.00  0.00     0.093 C 
HETATM    2  C2  UNL     1       1.960  29.218   0.815  1.00  0.00     0.229 C 
HETATM    3  S1  UNL     1       0.293  28.815   1.409  1.00  0.00    -0.024 SA
HETATM    4  O1  UNL     1       2.268  28.228  -0.143  1.00  0.00    -0.338 OA
HETATM    5  C3  UNL     1       2.526  27.149   0.704  1.00  0.00     0.256 C 
HETATM    6  C4  UNL     1       3.411  27.787   1.714  1.00  0.00     0.140 C 
HETATM    7  N1  UNL     1       4.389  27.221   2.324  1.00  0.00    -0.382 N 
ATOM      8  H11 UNL     1       4.996  27.659   3.017  1.00  0.00     0.158 HD
ATOM      9  H12 UNL     1       4.742  26.267   2.246  1.00  0.00     0.158 HD
HETATM   10  O2  UNL     1       2.929  29.092   1.822  1.00  0.00    -0.290 OA
ENDROOT
TORSDOF 0
ENDMDL
