MODEL 1
REMARK VINA RESULT: -4.654279593      0.000      0.000
REMARK  3 active torsions:
REMARK  status: ('A' for Active; 'I' for Inactive)
REMARK    1  A    between atoms: C4_4  and  O1_5 
REMARK    2  A    between atoms: C5_7  and  O2_8 
REMARK    3  A    between atoms: C5_7  and  O3_10 
ROOT
HETATM    1  C1  UNL     1       4.308  33.175  -0.175  1.00  0.00     0.040 C 
HETATM    2  C2  UNL     1       4.811  31.776  -0.023  1.00  0.00     0.126 C 
HETATM    3  C3  UNL     1       3.617  30.841   0.219  1.00  0.00     0.071 C 
HETATM    4  C4  UNL     1       4.313  29.675   0.903  1.00  0.00     0.213 C 
HETATM    5  C5  UNL     1       5.710  30.187   1.123  1.00  0.00     0.305 C 
HETATM    6  O4  UNL     1       5.532  31.575   1.150  1.00  0.00    -0.326 OA
ENDROOT
BRANCH   5   7
HETATM    7  O2  UNL     1       6.510  29.935  -0.014  1.00  0.00    -0.341 OA
ATOM      8  H2  UNL     1       7.413  29.789   0.243  1.00  0.00     0.215 HD
ENDBRANCH   5   7
BRANCH   5   9
HETATM    9  O3  UNL     1       6.299  29.719   2.273  1.00  0.00    -0.341 OA
ATOM     10  H3  UNL     1       7.237  29.585   2.198  1.00  0.00     0.215 HD
ENDBRANCH   5   9
BRANCH   4  11
HETATM   11  O1  UNL     1       4.336  28.541   0.100  1.00  0.00    -0.387 OA
ATOM     12  H1  UNL     1       5.041  28.572  -0.538  1.00  0.00     0.210 HD
ENDBRANCH   4  11
TORSDOF 3
ENDMDL
MODEL 2
REMARK VINA RESULT: -4.413614336      1.182      2.039
REMARK  3 active torsions:
REMARK  status: ('A' for Active; 'I' for Inactive)
REMARK    1  A    between atoms: C4_4  and  O1_5 
REMARK    2  A    between atoms: C5_7  and  O2_8 
REMARK    3  A    between atoms: C5_7  and  O3_10 
ROOT
HETATM    1  C1  UNL     1       4.424  32.887  -0.278  1.00  0.00     0.040 C 
HETATM    2  C2  UNL     1       5.134  31.808   0.474  1.00  0.00     0.126 C 
HETATM    3  C3  UNL     1       6.115  31.103  -0.474  1.00  0.00     0.071 C 
HETATM    4  C4  UNL     1       6.272  29.767   0.233  1.00  0.00     0.213 C 
HETATM    5  C5  UNL     1       5.241  29.831   1.326  1.00  0.00     0.305 C 
HETATM    6  O4  UNL     1       4.307  30.743   0.820  1.00  0.00    -0.326 OA
ENDROOT
BRANCH   5   7
HETATM    7  O2  UNL     1       5.782  30.448   2.476  1.00  0.00    -0.341 OA
ATOM      8  H2  UNL     1       6.092  31.321   2.268  1.00  0.00     0.215 HD
ENDBRANCH   5   7
BRANCH   5   9
HETATM    9  O3  UNL     1       4.669  28.616   1.621  1.00  0.00    -0.341 OA
ATOM     10  H3  UNL     1       3.912  28.408   1.086  1.00  0.00     0.215 HD
ENDBRANCH   5   9
BRANCH   4  11
HETATM   11  O1  UNL     1       7.542  29.613   0.777  1.00  0.00    -0.387 OA
ATOM     12  H1  UNL     1       7.508  29.365   1.694  1.00  0.00     0.210 HD
ENDBRANCH   4  11
TORSDOF 3
ENDMDL
MODEL 3
REMARK VINA RESULT: -4.273053124      1.117      2.721
REMARK  3 active torsions:
REMARK  status: ('A' for Active; 'I' for Inactive)
REMARK    1  A    between atoms: C4_4  and  O1_5 
REMARK    2  A    between atoms: C5_7  and  O2_8 
REMARK    3  A    between atoms: C5_7  and  O3_10 
ROOT
HETATM    1  C1  UNL     1       2.041  30.067   0.219  1.00  0.00     0.040 C 
HETATM    2  C2  UNL     1       3.371  30.618   0.620  1.00  0.00     0.126 C 
HETATM    3  C3  UNL     1       3.584  31.967  -0.082  1.00  0.00     0.071 C 
HETATM    4  C4  UNL     1       5.101  32.062  -0.044  1.00  0.00     0.213 C 
HETATM    5  C5  UNL     1       5.519  30.713   0.471  1.00  0.00     0.305 C 
HETATM    6  O4  UNL     1       4.444  29.894   0.109  1.00  0.00    -0.326 OA
ENDROOT
BRANCH   5   7
HETATM    7  O2  UNL     1       5.533  30.709   1.884  1.00  0.00    -0.341 OA
ATOM      8  H2  UNL     1       6.287  30.230   2.207  1.00  0.00     0.215 HD
ENDBRANCH   5   7
BRANCH   5   9
HETATM    9  O3  UNL     1       6.709  30.264  -0.050  1.00  0.00    -0.341 OA
ATOM     10  H3  UNL     1       7.157  29.634   0.503  1.00  0.00     0.215 HD
ENDBRANCH   5   9
BRANCH   4  11
HETATM   11  O1  UNL     1       5.536  33.063   0.817  1.00  0.00    -0.387 OA
ATOM     12  H1  UNL     1       6.309  32.800   1.305  1.00  0.00     0.210 HD
ENDBRANCH   4  11
TORSDOF 3
ENDMDL
MODEL 4
REMARK VINA RESULT: -4.265280020      1.652      3.216
REMARK  3 active torsions:
REMARK  status: ('A' for Active; 'I' for Inactive)
REMARK    1  A    between atoms: C4_4  and  O1_5 
REMARK    2  A    between atoms: C5_7  and  O2_8 
REMARK    3  A    between atoms: C5_7  and  O3_10 
ROOT
HETATM    1  C1  UNL     1       2.922  28.055   2.448  1.00  0.00     0.040 C 
HETATM    2  C2  UNL     1       4.134  28.618   1.780  1.00  0.00     0.126 C 
HETATM    3  C3  UNL     1       5.237  28.811   2.831  1.00  0.00     0.071 C 
HETATM    4  C4  UNL     1       6.090  29.868   2.147  1.00  0.00     0.213 C 
HETATM    5  C5  UNL     1       5.268  30.252   0.948  1.00  0.00     0.305 C 
HETATM    6  O4  UNL     1       3.965  29.930   1.347  1.00  0.00    -0.326 OA
ENDROOT
BRANCH   5   7
HETATM    7  O2  UNL     1       5.550  29.392  -0.137  1.00  0.00    -0.341 OA
ATOM      8  H2  UNL     1       5.601  29.887  -0.947  1.00  0.00     0.215 HD
ENDBRANCH   5   7
BRANCH   5   9
HETATM    9  O3  UNL     1       5.387  31.575   0.593  1.00  0.00    -0.341 OA
ATOM     10  H3  UNL     1       4.560  31.991   0.379  1.00  0.00     0.215 HD
ENDBRANCH   5   9
BRANCH   4  11
HETATM   11  O1  UNL     1       7.321  29.362   1.745  1.00  0.00    -0.387 OA
ATOM     12  H1  UNL     1       7.680  29.846   1.010  1.00  0.00     0.210 HD
ENDBRANCH   4  11
TORSDOF 3
ENDMDL
MODEL 5
REMARK VINA RESULT: -4.252010922      3.004      3.953
REMARK  3 active torsions:
REMARK  status: ('A' for Active; 'I' for Inactive)
REMARK    1  A    between atoms: C4_4  and  O1_5 
REMARK    2  A    between atoms: C5_7  and  O2_8 
REMARK    3  A    between atoms: C5_7  and  O3_10 
ROOT
HETATM    1  C1  UNL     1       3.566  33.032  -0.856  1.00  0.00     0.040 C 
HETATM    2  C2  UNL     1       2.736  32.116  -0.018  1.00  0.00     0.126 C 
HETATM    3  C3  UNL     1       3.490  30.790   0.167  1.00  0.00     0.071 C 
HETATM    4  C4  UNL     1       2.335  29.857   0.488  1.00  0.00     0.213 C 
HETATM    5  C5  UNL     1       1.122  30.712   0.248  1.00  0.00     0.305 C 
HETATM    6  O4  UNL     1       1.589  31.666  -0.664  1.00  0.00    -0.326 OA
ENDROOT
BRANCH   5   7
HETATM    7  O2  UNL     1       0.795  31.439   1.415  1.00  0.00    -0.341 OA
ATOM      8  H2  UNL     1      -0.121  31.692   1.401  1.00  0.00     0.215 HD
ENDBRANCH   5   7
BRANCH   5   9
HETATM    9  O3  UNL     1       0.040  30.018  -0.239  1.00  0.00    -0.341 OA
ATOM     10  H3  UNL     1       0.273  29.268  -0.773  1.00  0.00     0.215 HD
ENDBRANCH   5   9
BRANCH   4  11
HETATM   11  O1  UNL     1       2.367  29.426   1.809  1.00  0.00    -0.387 OA
ATOM     12  H1  UNL     1       2.517  28.490   1.874  1.00  0.00     0.210 HD
ENDBRANCH   4  11
TORSDOF 3
ENDMDL
