MODEL 1
REMARK VINA RESULT: -7.299043350      0.000      0.000
REMARK  16 active torsions:
REMARK  status: ('A' for Active; 'I' for Inactive)
REMARK    1  A    between atoms: S1_2  and  C2_3 
REMARK    2  A    between atoms: C2_3  and  C3_5 
REMARK    3  A    between atoms: C4_8  and  N2_9 
REMARK    4  A    between atoms: C7_14  and  N4_15 
REMARK    5  A    between atoms: N4_15  and  S2_17 
REMARK    6  A    between atoms: S2_17  and  N5_18 
REMARK    7  A    between atoms: S2_17  and  C8_22 
REMARK    8  A    between atoms: C9_23  and  S3_24 
REMARK    9  A    between atoms: S3_24  and  N6_25 
REMARK   10  A    between atoms: N9_34  and  C10_35 
REMARK   11  A    between atoms: C12_37  and  C13_38 
REMARK   12  A    between atoms: C13_38  and  N10_39 
REMARK   13  A    between atoms: C13_38  and  C14_43 
REMARK   14  A    between atoms: C16_49  and  O7_50 
REMARK   15  A    between atoms: O7_50  and  C17_51 
REMARK   16  A    between atoms: C18_54  and  C19_55 
ROOT
HETATM    1  C8  UNL     1      -5.955   2.332  28.564  1.00  0.00     0.192 A 
HETATM    2  C9  UNL     1      -7.125   1.859  29.153  1.00  0.00     0.205 A 
HETATM    3  N7  UNL     1      -8.059   1.971  28.187  1.00  0.00    -0.271 N 
ATOM      4  H7  UNL     1      -9.040   1.709  28.285  1.00  0.00     0.189 HD
HETATM    5  N8  UNL     1      -7.514   2.468  27.098  1.00  0.00    -0.234 N 
ATOM      6  H8  UNL     1      -8.014   2.648  26.227  1.00  0.00     0.209 HD
HETATM    7  N9  UNL     1      -6.198   2.708  27.295  1.00  0.00    -0.238 N 
ENDROOT
BRANCH   7   8
HETATM    8  C10 UNL     1      -5.302   3.225  26.324  1.00  0.00     0.129 C 
HETATM    9  C11 UNL     1      -5.336   4.375  25.740  1.00  0.00     0.002 C 
HETATM   10  C12 UNL     1      -6.257   5.474  25.879  1.00  0.00     0.059 C 
HETATM   11  C18 UNL     1      -4.396   4.855  24.645  1.00  0.00     0.143 C 
HETATM   12  N11 UNL     1      -6.242   6.199  24.783  1.00  0.00    -0.358 N 
HETATM   13  C15 UNL     1      -5.343   5.682  23.836  1.00  0.00     0.048 C 
ATOM     14  H11 UNL     1      -6.811   7.033  24.639  1.00  0.00     0.165 HD
HETATM   15  C16 UNL     1      -5.357   5.895  22.549  1.00  0.00     0.173 C 
BRANCH  10  16
HETATM   16  C13 UNL     1      -7.118   5.870  27.018  1.00  0.00     0.333 C 
BRANCH  16  17
HETATM   17  N10 UNL     1      -6.963   7.280  27.346  1.00  0.00    -0.060 N 
ATOM     18 3H10 UNL     1      -7.850   7.778  27.272  1.00  0.00     0.275 HD
ATOM     19 2H10 UNL     1      -6.789   7.413  28.343  1.00  0.00     0.275 HD
ATOM     20 1H10 UNL     1      -6.239   7.723  26.781  1.00  0.00     0.275 HD
ENDBRANCH  16  17
BRANCH  16  21
HETATM   21  C14 UNL     1      -8.555   5.702  26.641  1.00  0.00     0.210 C 
HETATM   22  O5  UNL     1      -8.857   4.871  25.765  1.00  0.00    -0.646 OA
HETATM   23  O6  UNL     1      -9.522   6.451  27.251  1.00  0.00    -0.646 OA
ENDBRANCH  16  21
ENDBRANCH  10  16
BRANCH  15  24
HETATM   24  O7  UNL     1      -6.336   6.709  21.973  1.00  0.00    -0.274 OA
BRANCH  24  25
HETATM   25  C17 UNL     1      -7.609   6.215  21.812  1.00  0.00     0.377 C 
HETATM   26  N12 UNL     1      -8.654   6.526  22.745  1.00  0.00    -0.032 NA
HETATM   27  O8  UNL     1      -7.839   5.475  20.814  1.00  0.00    -0.242 OA
ENDBRANCH  24  25
ENDBRANCH  15  24
BRANCH  11  28
HETATM   28  C19 UNL     1      -3.335   5.727  25.130  1.00  0.00     0.137 C 
HETATM   29  C20 UNL     1      -1.986   5.573  24.476  1.00  0.00     0.092 C 
HETATM   30  O9  UNL     1      -3.388   6.567  25.995  1.00  0.00    -0.297 OA
ENDBRANCH  11  28
ENDBRANCH   7   8
BRANCH   1  31
HETATM   31  S2  UNL     1      -4.420   2.398  29.375  1.00  0.00     0.155 S 
HETATM   32  O2  UNL     1      -3.335   2.749  28.384  1.00  0.00    -0.222 OA
BRANCH  31  33
HETATM   33  N4  UNL     1      -3.949   0.828  29.999  1.00  0.00    -0.306 N 
ATOM     34  H4  UNL     1      -4.382  -0.055  29.731  1.00  0.00     0.173 HD
BRANCH  33  35
HETATM   35  C7  UNL     1      -2.879   0.952  30.931  1.00  0.00     0.224 C 
HETATM   36  C3  UNL     1      -3.132   0.449  32.310  1.00  0.00     0.208 C 
HETATM   37  N1  UNL     1      -1.771   0.220  32.804  1.00  0.00    -0.346 N 
HETATM   38  C4  UNL     1      -0.950   0.101  31.820  1.00  0.00     0.175 C 
ATOM     39  H1  UNL     1      -1.511   0.164  33.789  1.00  0.00     0.163 HD
HETATM   40  N3  UNL     1      -1.670   0.234  30.579  1.00  0.00    -0.338 N 
ATOM     41  H3  UNL     1      -1.391  -0.103  29.658  1.00  0.00     0.164 HD
BRANCH  36  42
HETATM   42  C2  UNL     1      -3.919  -0.789  32.409  1.00  0.00     0.212 C 
HETATM   43  O1  UNL     1      -3.983  -1.557  31.486  1.00  0.00    -0.283 OA
BRANCH  42  44
HETATM   44  S1  UNL     1      -4.787  -1.156  33.911  1.00  0.00    -0.095 SA
HETATM   45  C1  UNL     1      -4.890   0.247  35.032  1.00  0.00     0.099 C 
ENDBRANCH  42  44
ENDBRANCH  36  42
BRANCH  38  46
HETATM   46  N2  UNL     1       0.448  -0.128  31.980  1.00  0.00    -0.362 N 
HETATM   47  C5  UNL     1       1.423   0.238  30.973  1.00  0.00     0.152 C 
HETATM   48  C6  UNL     1       0.958  -0.750  33.186  1.00  0.00     0.152 C 
ENDBRANCH  38  46
ENDBRANCH  33  35
ENDBRANCH  31  33
BRANCH  31  49
HETATM   49  N5  UNL     1      -4.334   3.395  30.525  1.00  0.00    -0.340 N 
ATOM     50  H52 UNL     1      -4.053   3.173  31.481  1.00  0.00     0.167 HD
ATOM     51  H51 UNL     1      -4.606   4.308  30.161  1.00  0.00     0.167 HD
ENDBRANCH  31  49
ENDBRANCH   1  31
BRANCH   2  52
HETATM   52  S3  UNL     1      -7.327   1.256  30.774  1.00  0.00     0.276 S 
HETATM   53  O3  UNL     1      -6.974  -0.233  30.706  1.00  0.00    -0.199 OA
HETATM   54  O4  UNL     1      -6.390   1.821  31.767  1.00  0.00    -0.199 OA
BRANCH  52  55
HETATM   55  N6  UNL     1      -8.984   1.281  31.280  1.00  0.00    -0.323 N 
ATOM     56  H62 UNL     1      -9.702   1.828  30.806  1.00  0.00     0.169 HD
ATOM     57  H61 UNL     1      -9.146   0.692  32.097  1.00  0.00     0.169 HD
ENDBRANCH  52  55
ENDBRANCH   2  52
TORSDOF 16
ENDMDL
MODEL 2
REMARK VINA RESULT: -7.201315960      2.161      2.464
REMARK  16 active torsions:
REMARK  status: ('A' for Active; 'I' for Inactive)
REMARK    1  A    between atoms: S1_2  and  C2_3 
REMARK    2  A    between atoms: C2_3  and  C3_5 
REMARK    3  A    between atoms: C4_8  and  N2_9 
REMARK    4  A    between atoms: C7_14  and  N4_15 
REMARK    5  A    between atoms: N4_15  and  S2_17 
REMARK    6  A    between atoms: S2_17  and  N5_18 
REMARK    7  A    between atoms: S2_17  and  C8_22 
REMARK    8  A    between atoms: C9_23  and  S3_24 
REMARK    9  A    between atoms: S3_24  and  N6_25 
REMARK   10  A    between atoms: N9_34  and  C10_35 
REMARK   11  A    between atoms: C12_37  and  C13_38 
REMARK   12  A    between atoms: C13_38  and  N10_39 
REMARK   13  A    between atoms: C13_38  and  C14_43 
REMARK   14  A    between atoms: C16_49  and  O7_50 
REMARK   15  A    between atoms: O7_50  and  C17_51 
REMARK   16  A    between atoms: C18_54  and  C19_55 
ROOT
HETATM    1  C8  UNL     1      -5.184   1.967  29.386  1.00  0.00     0.192 A 
HETATM    2  C9  UNL     1      -5.968   0.936  29.898  1.00  0.00     0.205 A 
HETATM    3  N7  UNL     1      -6.991   0.825  29.026  1.00  0.00    -0.271 N 
ATOM      4  H7  UNL     1      -7.758   0.157  29.102  1.00  0.00     0.189 HD
HETATM    5  N8  UNL     1      -6.851   1.709  28.062  1.00  0.00    -0.234 N 
ATOM      6  H8  UNL     1      -7.495   1.824  27.281  1.00  0.00     0.209 HD
HETATM    7  N9  UNL     1      -5.731   2.443  28.254  1.00  0.00    -0.238 N 
ENDROOT
BRANCH   7   8
HETATM    8  C10 UNL     1      -5.265   3.471  27.394  1.00  0.00     0.129 C 
HETATM    9  C11 UNL     1      -5.933   4.138  26.514  1.00  0.00     0.002 C 
HETATM   10  C12 UNL     1      -7.320   4.066  26.132  1.00  0.00     0.059 C 
HETATM   11  C18 UNL     1      -5.371   5.179  25.559  1.00  0.00     0.143 C 
HETATM   12  N11 UNL     1      -7.461   4.517  24.906  1.00  0.00    -0.358 N 
HETATM   13  C15 UNL     1      -6.231   4.924  24.362  1.00  0.00     0.048 C 
ATOM     14  H11 UNL     1      -8.351   4.565  24.411  1.00  0.00     0.165 HD
HETATM   15  C16 UNL     1      -5.937   5.043  23.097  1.00  0.00     0.173 C 
BRANCH  10  16
HETATM   16  C13 UNL     1      -8.507   3.616  26.897  1.00  0.00     0.333 C 
BRANCH  16  17
HETATM   17  N10 UNL     1      -9.280   4.740  27.404  1.00  0.00    -0.060 N 
ATOM     18 3H10 UNL     1     -10.170   4.433  27.795  1.00  0.00     0.275 HD
ATOM     19 2H10 UNL     1      -8.860   5.129  28.249  1.00  0.00     0.275 HD
ATOM     20 1H10 UNL     1      -9.415   5.459  26.692  1.00  0.00     0.275 HD
ENDBRANCH  16  17
BRANCH  16  21
HETATM   21  C14 UNL     1      -9.433   2.869  25.991  1.00  0.00     0.210 C 
HETATM   22  O5  UNL     1      -9.091   1.751  25.566  1.00  0.00    -0.646 OA
HETATM   23  O6  UNL     1     -10.637   3.408  25.637  1.00  0.00    -0.646 OA
ENDBRANCH  16  21
ENDBRANCH  10  16
BRANCH  15  24
HETATM   24  O7  UNL     1      -6.890   4.753  22.116  1.00  0.00    -0.274 OA
BRANCH  24  25
HETATM   25  C17 UNL     1      -7.477   5.788  21.425  1.00  0.00     0.377 C 
HETATM   26  N12 UNL     1      -7.764   7.042  22.062  1.00  0.00    -0.032 NA
HETATM   27  O8  UNL     1      -7.758   5.607  20.207  1.00  0.00    -0.242 OA
ENDBRANCH  24  25
ENDBRANCH  15  24
BRANCH  11  28
HETATM   28  C19 UNL     1      -5.597   6.550  25.993  1.00  0.00     0.137 C 
HETATM   29  C20 UNL     1      -4.783   7.026  27.170  1.00  0.00     0.092 C 
HETATM   30  O9  UNL     1      -6.355   7.370  25.535  1.00  0.00    -0.297 OA
ENDBRANCH  11  28
ENDBRANCH   7   8
BRANCH   1  31
HETATM   31  S2  UNL     1      -3.711   2.521  30.123  1.00  0.00     0.155 S 
HETATM   32  O2  UNL     1      -2.568   1.622  29.716  1.00  0.00    -0.222 OA
BRANCH  31  33
HETATM   33  N4  UNL     1      -3.770   2.386  31.871  1.00  0.00    -0.306 N 
ATOM     34  H4  UNL     1      -4.617   2.482  32.431  1.00  0.00     0.173 HD
BRANCH  33  35
HETATM   35  C7  UNL     1      -2.476   2.124  32.404  1.00  0.00     0.224 C 
HETATM   36  C3  UNL     1      -2.250   2.502  33.827  1.00  0.00     0.208 C 
HETATM   37  N1  UNL     1      -1.113   1.650  34.190  1.00  0.00    -0.346 N 
HETATM   38  C4  UNL     1      -1.026   0.650  33.385  1.00  0.00     0.175 C 
ATOM     39  H1  UNL     1      -0.481   1.826  34.972  1.00  0.00     0.163 HD
HETATM   40  N3  UNL     1      -2.085   0.728  32.411  1.00  0.00    -0.338 N 
ATOM     41  H3  UNL     1      -2.473  -0.031  31.851  1.00  0.00     0.164 HD
BRANCH  36  42
HETATM   42  C2  UNL     1      -3.374   2.261  34.743  1.00  0.00     0.212 C 
HETATM   43  O1  UNL     1      -3.872   1.171  34.839  1.00  0.00    -0.283 OA
BRANCH  42  44
HETATM   44  S1  UNL     1      -4.007   3.597  35.722  1.00  0.00    -0.095 SA
HETATM   45  C1  UNL     1      -4.853   4.851  34.749  1.00  0.00     0.099 C 
ENDBRANCH  42  44
ENDBRANCH  36  42
BRANCH  38  46
HETATM   46  N2  UNL     1      -0.020  -0.356  33.480  1.00  0.00    -0.362 N 
HETATM   47  C5  UNL     1       1.000  -0.542  32.469  1.00  0.00     0.152 C 
HETATM   48  C6  UNL     1       0.020  -1.251  34.620  1.00  0.00     0.152 C 
ENDBRANCH  38  46
ENDBRANCH  33  35
ENDBRANCH  31  33
BRANCH  31  49
HETATM   49  N5  UNL     1      -3.314   3.953  29.786  1.00  0.00    -0.340 N 
ATOM     50  H52 UNL     1      -2.533   4.226  29.187  1.00  0.00     0.167 HD
ATOM     51  H51 UNL     1      -3.966   4.574  30.264  1.00  0.00     0.167 HD
ENDBRANCH  31  49
ENDBRANCH   1  31
BRANCH   2  52
HETATM   52  S3  UNL     1      -5.682   0.001  31.338  1.00  0.00     0.276 S 
HETATM   53  O3  UNL     1      -6.654  -1.180  31.263  1.00  0.00    -0.199 OA
HETATM   54  O4  UNL     1      -4.343  -0.617  31.421  1.00  0.00    -0.199 OA
BRANCH  52  55
HETATM   55  N6  UNL     1      -6.151   0.849  32.774  1.00  0.00    -0.323 N 
ATOM     56  H62 UNL     1      -6.984   1.435  32.827  1.00  0.00     0.169 HD
ATOM     57  H61 UNL     1      -5.501   0.692  33.545  1.00  0.00     0.169 HD
ENDBRANCH  52  55
ENDBRANCH   2  52
TORSDOF 16
ENDMDL
MODEL 3
REMARK VINA RESULT: -7.147921857      3.928      9.230
REMARK  16 active torsions:
REMARK  status: ('A' for Active; 'I' for Inactive)
REMARK    1  A    between atoms: S1_2  and  C2_3 
REMARK    2  A    between atoms: C2_3  and  C3_5 
REMARK    3  A    between atoms: C4_8  and  N2_9 
REMARK    4  A    between atoms: C7_14  and  N4_15 
REMARK    5  A    between atoms: N4_15  and  S2_17 
REMARK    6  A    between atoms: S2_17  and  N5_18 
REMARK    7  A    between atoms: S2_17  and  C8_22 
REMARK    8  A    between atoms: C9_23  and  S3_24 
REMARK    9  A    between atoms: S3_24  and  N6_25 
REMARK   10  A    between atoms: N9_34  and  C10_35 
REMARK   11  A    between atoms: C12_37  and  C13_38 
REMARK   12  A    between atoms: C13_38  and  N10_39 
REMARK   13  A    between atoms: C13_38  and  C14_43 
REMARK   14  A    between atoms: C16_49  and  O7_50 
REMARK   15  A    between atoms: O7_50  and  C17_51 
REMARK   16  A    between atoms: C18_54  and  C19_55 
ROOT
HETATM    1  C8  UNL     1      -8.923   6.595  25.684  1.00  0.00     0.192 A 
HETATM    2  C9  UNL     1     -10.291   6.358  25.794  1.00  0.00     0.205 A 
HETATM    3  N7  UNL     1     -10.429   5.715  26.972  1.00  0.00    -0.271 N 
ATOM      4  H7  UNL     1     -11.312   5.391  27.364  1.00  0.00     0.189 HD
HETATM    5  N8  UNL     1      -9.251   5.568  27.538  1.00  0.00    -0.234 N 
ATOM      6  H8  UNL     1      -9.090   5.113  28.436  1.00  0.00     0.209 HD
HETATM    7  N9  UNL     1      -8.283   6.106  26.761  1.00  0.00    -0.238 N 
ENDROOT
BRANCH   7   8
HETATM    8  C10 UNL     1      -6.900   6.141  27.078  1.00  0.00     0.129 C 
HETATM    9  C11 UNL     1      -6.059   5.163  27.089  1.00  0.00     0.002 C 
HETATM   10  C12 UNL     1      -6.238   3.765  26.790  1.00  0.00     0.059 C 
HETATM   11  C18 UNL     1      -4.601   5.236  27.512  1.00  0.00     0.143 C 
HETATM   12  N11 UNL     1      -5.309   3.064  27.402  1.00  0.00    -0.358 N 
HETATM   13  C15 UNL     1      -4.445   3.889  28.141  1.00  0.00     0.048 C 
ATOM     14  H11 UNL     1      -5.227   2.050  27.346  1.00  0.00     0.165 HD
HETATM   15  C16 UNL     1      -3.691   3.530  29.142  1.00  0.00     0.173 C 
BRANCH  10  16
HETATM   16  C13 UNL     1      -7.233   3.084  25.929  1.00  0.00     0.333 C 
BRANCH  16  17
HETATM   17  N10 UNL     1      -6.669   1.913  25.275  1.00  0.00    -0.060 N 
ATOM     18 3H10 UNL     1      -6.174   2.167  24.420  1.00  0.00     0.275 HD
ATOM     19 2H10 UNL     1      -5.885   1.532  25.806  1.00  0.00     0.275 HD
ATOM     20 1H10 UNL     1      -7.378   1.201  25.097  1.00  0.00     0.275 HD
ENDBRANCH  16  17
BRANCH  16  21
HETATM   21  C14 UNL     1      -8.357   2.570  26.772  1.00  0.00     0.210 C 
HETATM   22  O5  UNL     1      -8.094   1.999  27.846  1.00  0.00    -0.646 OA
HETATM   23  O6  UNL     1      -9.652   2.726  26.366  1.00  0.00    -0.646 OA
ENDBRANCH  16  21
ENDBRANCH  10  16
BRANCH  15  24
HETATM   24  O7  UNL     1      -3.684   2.206  29.590  1.00  0.00    -0.274 OA
BRANCH  24  25
HETATM   25  C17 UNL     1      -4.646   1.796  30.484  1.00  0.00     0.377 C 
HETATM   26  N12 UNL     1      -4.488   2.002  31.895  1.00  0.00    -0.032 NA
HETATM   27  O8  UNL     1      -5.679   1.229  30.029  1.00  0.00    -0.242 OA
ENDBRANCH  24  25
ENDBRANCH  15  24
BRANCH  11  28
HETATM   28  C19 UNL     1      -3.673   5.322  26.392  1.00  0.00     0.137 C 
HETATM   29  C20 UNL     1      -3.317   6.708  25.918  1.00  0.00     0.092 C 
HETATM   30  O9  UNL     1      -3.144   4.424  25.783  1.00  0.00    -0.297 OA
ENDBRANCH  11  28
ENDBRANCH   7   8
BRANCH   1  31
HETATM   31  S2  UNL     1      -8.188   7.419  24.343  1.00  0.00     0.155 S 
HETATM   32  O2  UNL     1      -9.120   7.392  23.155  1.00  0.00    -0.222 OA
BRANCH  31  33
HETATM   33  N4  UNL     1      -6.746   6.591  23.785  1.00  0.00    -0.306 N 
ATOM     34  H4  UNL     1      -5.998   6.258  24.392  1.00  0.00     0.173 HD
BRANCH  33  35
HETATM   35  C7  UNL     1      -6.761   6.445  22.368  1.00  0.00     0.224 C 
HETATM   36  C3  UNL     1      -5.438   6.424  21.685  1.00  0.00     0.208 C 
HETATM   37  N1  UNL     1      -5.758   5.746  20.424  1.00  0.00    -0.346 N 
HETATM   38  C4  UNL     1      -6.844   5.066  20.544  1.00  0.00     0.175 C 
ATOM     39  H1  UNL     1      -5.199   5.806  19.573  1.00  0.00     0.163 HD
HETATM   40  N3  UNL     1      -7.356   5.216  21.882  1.00  0.00    -0.338 N 
ATOM     41  H3  UNL     1      -7.995   4.594  22.378  1.00  0.00     0.164 HD
BRANCH  36  42
HETATM   42  C2  UNL     1      -4.363   5.707  22.384  1.00  0.00     0.212 C 
HETATM   43  O1  UNL     1      -4.608   4.777  23.107  1.00  0.00    -0.283 OA
BRANCH  42  44
HETATM   44  S1  UNL     1      -2.680   6.218  22.161  1.00  0.00    -0.095 SA
HETATM   45  C1  UNL     1      -2.133   6.134  20.449  1.00  0.00     0.099 C 
ENDBRANCH  42  44
ENDBRANCH  36  42
BRANCH  38  46
HETATM   46  N2  UNL     1      -7.415   4.297  19.488  1.00  0.00    -0.362 N 
HETATM   47  C5  UNL     1      -8.834   4.293  19.200  1.00  0.00     0.152 C 
HETATM   48  C6  UNL     1      -6.576   3.470  18.643  1.00  0.00     0.152 C 
ENDBRANCH  38  46
ENDBRANCH  33  35
ENDBRANCH  31  33
BRANCH  31  49
HETATM   49  N5  UNL     1      -7.812   8.874  24.601  1.00  0.00    -0.340 N 
ATOM     50  H52 UNL     1      -6.924   9.309  24.349  1.00  0.00     0.167 HD
ATOM     51  H51 UNL     1      -8.604   9.319  25.063  1.00  0.00     0.167 HD
ENDBRANCH  31  49
ENDBRANCH   1  31
BRANCH   2  52
HETATM   52  S3  UNL     1     -11.538   6.801  24.664  1.00  0.00     0.276 S 
HETATM   53  O3  UNL     1     -12.863   6.510  25.376  1.00  0.00    -0.199 OA
HETATM   54  O4  UNL     1     -11.595   8.240  24.335  1.00  0.00    -0.199 OA
BRANCH  52  55
HETATM   55  N6  UNL     1     -11.562   5.765  23.275  1.00  0.00    -0.323 N 
ATOM     56  H62 UNL     1     -11.565   6.118  22.318  1.00  0.00     0.169 HD
ATOM     57  H61 UNL     1     -11.572   4.777  23.531  1.00  0.00     0.169 HD
ENDBRANCH  52  55
ENDBRANCH   2  52
TORSDOF 16
ENDMDL
MODEL 4
REMARK VINA RESULT: -6.746944360      4.196      9.552
REMARK  16 active torsions:
REMARK  status: ('A' for Active; 'I' for Inactive)
REMARK    1  A    between atoms: S1_2  and  C2_3 
REMARK    2  A    between atoms: C2_3  and  C3_5 
REMARK    3  A    between atoms: C4_8  and  N2_9 
REMARK    4  A    between atoms: C7_14  and  N4_15 
REMARK    5  A    between atoms: N4_15  and  S2_17 
REMARK    6  A    between atoms: S2_17  and  N5_18 
REMARK    7  A    between atoms: S2_17  and  C8_22 
REMARK    8  A    between atoms: C9_23  and  S3_24 
REMARK    9  A    between atoms: S3_24  and  N6_25 
REMARK   10  A    between atoms: N9_34  and  C10_35 
REMARK   11  A    between atoms: C12_37  and  C13_38 
REMARK   12  A    between atoms: C13_38  and  N10_39 
REMARK   13  A    between atoms: C13_38  and  C14_43 
REMARK   14  A    between atoms: C16_49  and  O7_50 
REMARK   15  A    between atoms: O7_50  and  C17_51 
REMARK   16  A    between atoms: C18_54  and  C19_55 
ROOT
HETATM    1  C8  UNL     1      -9.498   6.999  26.431  1.00  0.00     0.192 A 
HETATM    2  C9  UNL     1     -10.746   6.396  26.284  1.00  0.00     0.205 A 
HETATM    3  N7  UNL     1     -10.651   5.249  26.988  1.00  0.00    -0.271 N 
ATOM      4  H7  UNL     1     -11.396   4.561  27.092  1.00  0.00     0.189 HD
HETATM    5  N8  UNL     1      -9.453   5.153  27.521  1.00  0.00    -0.234 N 
ATOM      6  H8  UNL     1      -9.134   4.376  28.100  1.00  0.00     0.209 HD
HETATM    7  N9  UNL     1      -8.702   6.229  27.194  1.00  0.00    -0.238 N 
ENDROOT
BRANCH   7   8
HETATM    8  C10 UNL     1      -7.367   6.459  27.616  1.00  0.00     0.129 C 
HETATM    9  C11 UNL     1      -6.309   5.785  27.317  1.00  0.00     0.002 C 
HETATM   10  C12 UNL     1      -6.137   4.623  26.482  1.00  0.00     0.059 C 
HETATM   11  C18 UNL     1      -4.908   6.024  27.858  1.00  0.00     0.143 C 
HETATM   12  N11 UNL     1      -5.054   3.976  26.848  1.00  0.00    -0.358 N 
HETATM   13  C15 UNL     1      -4.411   4.615  27.922  1.00  0.00     0.048 C 
ATOM     14  H11 UNL     1      -4.721   3.119  26.408  1.00  0.00     0.165 HD
HETATM   15  C16 UNL     1      -3.575   4.074  28.764  1.00  0.00     0.173 C 
BRANCH  10  16
HETATM   16  C13 UNL     1      -6.945   4.130  25.342  1.00  0.00     0.333 C 
BRANCH  16  17
HETATM   17  N10 UNL     1      -6.127   3.909  24.158  1.00  0.00    -0.060 N 
ATOM     18 3H10 UNL     1      -5.334   3.301  24.362  1.00  0.00     0.275 HD
ATOM     19 2H10 UNL     1      -6.609   3.320  23.478  1.00  0.00     0.275 HD
ATOM     20 1H10 UNL     1      -5.824   4.788  23.738  1.00  0.00     0.275 HD
ENDBRANCH  16  17
BRANCH  16  21
HETATM   21  C14 UNL     1      -7.528   2.795  25.680  1.00  0.00     0.210 C 
HETATM   22  O5  UNL     1      -6.831   1.776  25.528  1.00  0.00    -0.646 OA
HETATM   23  O6  UNL     1      -8.807   2.699  26.150  1.00  0.00    -0.646 OA
ENDBRANCH  16  21
ENDBRANCH  10  16
BRANCH  15  24
HETATM   24  O7  UNL     1      -3.231   2.723  28.658  1.00  0.00    -0.274 OA
BRANCH  24  25
HETATM   25  C17 UNL     1      -3.351   1.912  29.762  1.00  0.00     0.377 C 
HETATM   26  N12 UNL     1      -4.637   1.534  30.274  1.00  0.00    -0.032 NA
HETATM   27  O8  UNL     1      -2.293   1.504  30.319  1.00  0.00    -0.242 OA
ENDBRANCH  24  25
ENDBRANCH  15  24
BRANCH  11  28
HETATM   28  C19 UNL     1      -4.049   6.765  26.944  1.00  0.00     0.137 C 
HETATM   29  C20 UNL     1      -3.737   8.190  27.321  1.00  0.00     0.092 C 
HETATM   30  O9  UNL     1      -3.546   6.389  25.913  1.00  0.00    -0.297 OA
ENDBRANCH  11  28
ENDBRANCH   7   8
BRANCH   1  31
HETATM   31  S2  UNL     1      -9.074   8.529  25.728  1.00  0.00     0.155 S 
HETATM   32  O2  UNL     1     -10.089   8.905  24.674  1.00  0.00    -0.222 OA
BRANCH  31  33
HETATM   33  N4  UNL     1      -7.554   8.443  24.857  1.00  0.00    -0.306 N 
ATOM     34  H4  UNL     1      -6.696   8.913  25.143  1.00  0.00     0.173 HD
BRANCH  33  35
HETATM   35  C7  UNL     1      -7.680   7.629  23.695  1.00  0.00     0.224 C 
HETATM   36  C3  UNL     1      -8.141   8.305  22.451  1.00  0.00     0.208 C 
HETATM   37  N1  UNL     1      -7.652   7.394  21.411  1.00  0.00    -0.346 N 
HETATM   38  C4  UNL     1      -6.697   6.662  21.869  1.00  0.00     0.175 C 
ATOM     39  H1  UNL     1      -8.018   7.347  20.460  1.00  0.00     0.163 HD
HETATM   40  N3  UNL     1      -6.450   7.006  23.246  1.00  0.00    -0.338 N 
ATOM     41  H3  UNL     1      -5.599   6.846  23.784  1.00  0.00     0.164 HD
BRANCH  36  42
HETATM   42  C2  UNL     1      -7.618   9.659  22.222  1.00  0.00     0.212 C 
HETATM   43  O1  UNL     1      -7.811  10.541  23.016  1.00  0.00    -0.283 OA
BRANCH  42  44
HETATM   44  S1  UNL     1      -6.687  10.000  20.751  1.00  0.00    -0.095 SA
HETATM   45  C1  UNL     1      -6.380  11.755  20.497  1.00  0.00     0.099 C 
ENDBRANCH  42  44
ENDBRANCH  36  42
BRANCH  38  46
HETATM   46  N2  UNL     1      -6.016   5.677  21.094  1.00  0.00    -0.362 N 
HETATM   47  C5  UNL     1      -6.708   4.754  20.218  1.00  0.00     0.152 C 
HETATM   48  C6  UNL     1      -4.573   5.559  21.157  1.00  0.00     0.152 C 
ENDBRANCH  38  46
ENDBRANCH  33  35
ENDBRANCH  31  33
BRANCH  31  49
HETATM   49  N5  UNL     1      -8.976   9.692  26.709  1.00  0.00    -0.340 N 
ATOM     50  H52 UNL     1      -9.715  10.369  26.899  1.00  0.00     0.167 HD
ATOM     51  H51 UNL     1      -8.049   9.661  27.131  1.00  0.00     0.167 HD
ENDBRANCH  31  49
ENDBRANCH   1  31
BRANCH   2  52
HETATM   52  S3  UNL     1     -12.116   6.997  25.395  1.00  0.00     0.276 S 
HETATM   53  O3  UNL     1     -13.251   6.005  25.666  1.00  0.00    -0.199 OA
HETATM   54  O4  UNL     1     -12.635   8.299  25.862  1.00  0.00    -0.199 OA
BRANCH  52  55
HETATM   55  N6  UNL     1     -11.873   6.914  23.682  1.00  0.00    -0.323 N 
ATOM     56  H62 UNL     1     -11.118   7.403  23.203  1.00  0.00     0.169 HD
ATOM     57  H61 UNL     1     -12.568   6.325  23.222  1.00  0.00     0.169 HD
ENDBRANCH  52  55
ENDBRANCH   2  52
TORSDOF 16
ENDMDL
MODEL 5
REMARK VINA RESULT: -6.742079993      4.006      9.930
REMARK  16 active torsions:
REMARK  status: ('A' for Active; 'I' for Inactive)
REMARK    1  A    between atoms: S1_2  and  C2_3 
REMARK    2  A    between atoms: C2_3  and  C3_5 
REMARK    3  A    between atoms: C4_8  and  N2_9 
REMARK    4  A    between atoms: C7_14  and  N4_15 
REMARK    5  A    between atoms: N4_15  and  S2_17 
REMARK    6  A    between atoms: S2_17  and  N5_18 
REMARK    7  A    between atoms: S2_17  and  C8_22 
REMARK    8  A    between atoms: C9_23  and  S3_24 
REMARK    9  A    between atoms: S3_24  and  N6_25 
REMARK   10  A    between atoms: N9_34  and  C10_35 
REMARK   11  A    between atoms: C12_37  and  C13_38 
REMARK   12  A    between atoms: C13_38  and  N10_39 
REMARK   13  A    between atoms: C13_38  and  C14_43 
REMARK   14  A    between atoms: C16_49  and  O7_50 
REMARK   15  A    between atoms: O7_50  and  C17_51 
REMARK   16  A    between atoms: C18_54  and  C19_55 
ROOT
HETATM    1  C8  UNL     1      -9.242   6.967  26.011  1.00  0.00     0.192 A 
HETATM    2  C9  UNL     1     -10.519   6.442  25.825  1.00  0.00     0.205 A 
HETATM    3  N7  UNL     1     -10.630   5.484  26.768  1.00  0.00    -0.271 N 
ATOM      4  H7  UNL     1     -11.450   4.896  26.913  1.00  0.00     0.189 HD
HETATM    5  N8  UNL     1      -9.522   5.423  27.472  1.00  0.00    -0.234 N 
ATOM      6  H8  UNL     1      -9.358   4.777  28.244  1.00  0.00     0.209 HD
HETATM    7  N9  UNL     1      -8.628   6.335  27.027  1.00  0.00    -0.238 N 
ENDROOT
BRANCH   7   8
HETATM    8  C10 UNL     1      -7.337   6.555  27.572  1.00  0.00     0.129 C 
HETATM    9  C11 UNL     1      -6.242   5.924  27.310  1.00  0.00     0.002 C 
HETATM   10  C12 UNL     1      -5.978   4.833  26.407  1.00  0.00     0.059 C 
HETATM   11  C18 UNL     1      -4.895   6.145  27.979  1.00  0.00     0.143 C 
HETATM   12  N11 UNL     1      -4.913   4.179  26.811  1.00  0.00    -0.358 N 
HETATM   13  C15 UNL     1      -4.373   4.744  27.978  1.00  0.00     0.048 C 
ATOM     14  H11 UNL     1      -4.526   3.363  26.336  1.00  0.00     0.165 HD
HETATM   15  C16 UNL     1      -3.594   4.155  28.843  1.00  0.00     0.173 C 
BRANCH  10  16
HETATM   16  C13 UNL     1      -6.681   4.415  25.172  1.00  0.00     0.333 C 
BRANCH  16  17
HETATM   17  N10 UNL     1      -5.747   4.120  24.094  1.00  0.00    -0.060 N 
ATOM     18 3H10 UNL     1      -5.055   4.862  23.988  1.00  0.00     0.275 HD
ATOM     19 2H10 UNL     1      -5.122   3.353  24.343  1.00  0.00     0.275 HD
ATOM     20 1H10 UNL     1      -6.231   3.935  23.215  1.00  0.00     0.275 HD
ENDBRANCH  16  17
BRANCH  16  21
HETATM   21  C14 UNL     1      -7.419   3.139  25.422  1.00  0.00     0.210 C 
HETATM   22  O5  UNL     1      -8.636   3.185  25.676  1.00  0.00    -0.646 OA
HETATM   23  O6  UNL     1      -6.765   1.940  25.371  1.00  0.00    -0.646 OA
ENDBRANCH  16  21
ENDBRANCH  10  16
BRANCH  15  24
HETATM   24  O7  UNL     1      -3.212   2.822  28.664  1.00  0.00    -0.274 OA
BRANCH  24  25
HETATM   25  C17 UNL     1      -3.165   1.985  29.755  1.00  0.00     0.377 C 
HETATM   26  N12 UNL     1      -2.230   0.899  29.822  1.00  0.00    -0.032 NA
HETATM   27  O8  UNL     1      -3.972   2.199  30.703  1.00  0.00    -0.242 OA
ENDBRANCH  24  25
ENDBRANCH  15  24
BRANCH  11  28
HETATM   28  C19 UNL     1      -3.984   6.968  27.197  1.00  0.00     0.137 C 
HETATM   29  C20 UNL     1      -3.764   8.378  27.684  1.00  0.00     0.092 C 
HETATM   30  O9  UNL     1      -3.372   6.673  26.199  1.00  0.00    -0.297 OA
ENDBRANCH  11  28
ENDBRANCH   7   8
BRANCH   1  31
HETATM   31  S2  UNL     1      -8.579   8.259  25.058  1.00  0.00     0.155 S 
HETATM   32  O2  UNL     1      -9.385   9.519  25.275  1.00  0.00    -0.222 OA
BRANCH  31  33
HETATM   33  N4  UNL     1      -8.724   7.939  23.340  1.00  0.00    -0.306 N 
ATOM     34  H4  UNL     1      -9.521   7.477  22.903  1.00  0.00     0.173 HD
BRANCH  33  35
HETATM   35  C7  UNL     1      -7.581   8.413  22.636  1.00  0.00     0.224 C 
HETATM   36  C3  UNL     1      -6.666   7.379  22.075  1.00  0.00     0.208 C 
HETATM   37  N1  UNL     1      -5.973   8.128  21.021  1.00  0.00    -0.346 N 
HETATM   38  C4  UNL     1      -6.659   9.162  20.680  1.00  0.00     0.175 C 
ATOM     39  H1  UNL     1      -5.074   7.865  20.616  1.00  0.00     0.163 HD
HETATM   40  N3  UNL     1      -7.869   9.211  21.461  1.00  0.00    -0.338 N 
ATOM     41  H3  UNL     1      -8.735   9.700  21.236  1.00  0.00     0.164 HD
BRANCH  36  42
HETATM   42  C2  UNL     1      -7.312   6.188  21.506  1.00  0.00     0.212 C 
HETATM   43  O1  UNL     1      -8.037   5.499  22.174  1.00  0.00    -0.283 OA
BRANCH  42  44
HETATM   44  S1  UNL     1      -7.018   5.758  19.811  1.00  0.00    -0.095 SA
HETATM   45  C1  UNL     1      -7.917   4.291  19.285  1.00  0.00     0.099 C 
ENDBRANCH  42  44
ENDBRANCH  36  42
BRANCH  38  46
HETATM   46  N2  UNL     1      -6.246  10.089  19.678  1.00  0.00    -0.362 N 
HETATM   47  C5  UNL     1      -7.097  10.480  18.574  1.00  0.00     0.152 C 
HETATM   48  C6  UNL     1      -4.927  10.688  19.730  1.00  0.00     0.152 C 
ENDBRANCH  38  46
ENDBRANCH  33  35
ENDBRANCH  31  33
BRANCH  31  49
HETATM   49  N5  UNL     1      -7.118   8.593  25.342  1.00  0.00    -0.340 N 
ATOM     50  H52 UNL     1      -6.559   9.280  24.835  1.00  0.00     0.167 HD
ATOM     51  H51 UNL     1      -6.815   8.008  26.120  1.00  0.00     0.167 HD
ENDBRANCH  31  49
ENDBRANCH   1  31
BRANCH   2  52
HETATM   52  S3  UNL     1     -11.702   6.925  24.643  1.00  0.00     0.276 S 
HETATM   53  O3  UNL     1     -11.543   8.441  24.495  1.00  0.00    -0.199 OA
HETATM   54  O4  UNL     1     -11.478   6.388  23.285  1.00  0.00    -0.199 OA
BRANCH  52  55
HETATM   55  N6  UNL     1     -13.324   6.719  25.218  1.00  0.00    -0.323 N 
ATOM     56  H62 UNL     1     -13.567   6.093  25.986  1.00  0.00     0.169 HD
ATOM     57  H61 UNL     1     -13.992   7.292  24.701  1.00  0.00     0.169 HD
ENDBRANCH  52  55
ENDBRANCH   2  52
TORSDOF 16
ENDMDL
