MODEL 1
REMARK VINA RESULT: -12.118668542      0.000      0.000
REMARK  12 active torsions:
REMARK  status: ('A' for Active; 'I' for Inactive)
REMARK       I    between atoms: C2_2  and  N1_4 
REMARK    1  A    between atoms: C3_5  and  C4_6 
REMARK    2  A    between atoms: C5_9  and  C6_10 
REMARK    3  A    between atoms: C6_10  and  S1_11 
REMARK    4  A    between atoms: S1_11  and  C7_12 
REMARK    5  A    between atoms: C8_15  and  N3_16 
REMARK    6  A    between atoms: C9_23  and  O4_24 
REMARK    7  A    between atoms: C10_26  and  C11_27 
REMARK       I    between atoms: C11_27  and  N6_29 
REMARK    8  A    between atoms: N6_29  and  C12_31 
REMARK    9  A    between atoms: C12_31  and  C13_32 
REMARK       I    between atoms: C13_32  and  N7_34 
REMARK   10  A    between atoms: C15_36  and  C16_37 
REMARK   11  A    between atoms: C16_37  and  N8_38 
REMARK   12  A    between atoms: C20_47  and  N12_48 
ROOT
HETATM    1  C11 UNL     1      -8.809   2.592  26.220  1.00  0.00     0.244 C 
HETATM    2  O5  UNL     1      -9.340   1.956  25.282  1.00  0.00    -0.271 OA
HETATM    3  N6  UNL     1      -9.432   3.799  26.638  1.00  0.00    -0.350 N 
ATOM      4  H6  UNL     1      -9.023   4.335  27.402  1.00  0.00     0.163 HD
ENDROOT
BRANCH   3   5
HETATM    5  C12 UNL     1     -10.618   4.272  26.007  1.00  0.00     0.227 C 
BRANCH   5   6
HETATM    6  C13 UNL     1     -10.561   5.643  25.476  1.00  0.00     0.258 C 
HETATM    7  O6  UNL     1      -9.533   6.100  24.944  1.00  0.00    -0.270 OA
HETATM    8  N7  UNL     1     -11.717   6.461  25.576  1.00  0.00    -0.216 N 
HETATM    9  C14 UNL     1     -12.918   6.143  26.118  1.00  0.00     0.145 A 
HETATM   10  N14 UNL     1     -11.838   7.708  25.148  1.00  0.00    -0.013 NA
HETATM   11  C15 UNL     1     -13.775   7.216  26.014  1.00  0.00     0.061 A 
HETATM   12  N13 UNL     1     -13.059   8.171  25.402  1.00  0.00    -0.285 N 
ATOM     13  H13 UNL     1     -13.397   9.105  25.168  1.00  0.00     0.184 HD
BRANCH  11  14
HETATM   14  C16 UNL     1     -15.178   7.296  26.480  1.00  0.00     0.213 C 
BRANCH  14  15
HETATM   15  N8  UNL     1     -15.279   8.506  27.310  1.00  0.00    -0.236 N 
HETATM   16  N9  UNL     1     -14.302   9.387  27.374  1.00  0.00    -0.237 N 
HETATM   17  N10 UNL     1     -14.426  10.461  28.126  1.00  0.00    -0.285 N 
ATOM     18  H9  UNL     1     -13.446   9.237  26.839  1.00  0.00     0.208 HD
HETATM   19  C17 UNL     1     -15.549  10.686  28.846  1.00  0.00     0.067 A 
ATOM     20  H10 UNL     1     -13.661  11.135  28.167  1.00  0.00     0.188 HD
HETATM   21  C18 UNL     1     -15.733  11.786  29.646  1.00  0.00     0.061 A 
HETATM   22  C22 UNL     1     -16.583   9.774  28.790  1.00  0.00     0.064 A 
HETATM   23  C19 UNL     1     -16.910  11.970  30.367  1.00  0.00     0.081 A 
HETATM   24  N11 UNL     1     -17.111  13.106  31.199  1.00  0.00    -0.100 NA
HETATM   25  C20 UNL     1     -17.912  11.043  30.286  1.00  0.00     0.128 A 
HETATM   26  C21 UNL     1     -17.754   9.940  29.498  1.00  0.00     0.057 A 
HETATM   27  C23 UNL     1     -16.409   8.672  27.995  1.00  0.00     0.276 A 
HETATM   28  O9  UNL     1     -17.329   7.809  27.913  1.00  0.00    -0.266 OA
BRANCH  25  29
HETATM   29  N12 UNL     1     -19.151  11.165  31.000  1.00  0.00    -0.114 N 
HETATM   30  O7  UNL     1     -20.163  11.681  30.506  1.00  0.00    -0.532 OA
HETATM   31  O8  UNL     1     -19.229  10.693  32.286  1.00  0.00    -0.532 OA
ENDBRANCH  25  29
ENDBRANCH  14  15
ENDBRANCH  11  14
ENDBRANCH   5   6
ENDBRANCH   3   5
BRANCH   1  32
HETATM   32  C10 UNL     1      -7.574   2.124  26.890  1.00  0.00     0.218 C 
HETATM   33  N1  UNL     1      -6.584   3.203  27.031  1.00  0.00    -0.295 N 
HETATM   34  C2  UNL     1      -6.434   4.343  26.242  1.00  0.00     0.221 C 
HETATM   35  C3  UNL     1      -5.864   2.841  28.239  1.00  0.00     0.121 C 
HETATM   36  C1  UNL     1      -5.670   5.566  26.541  1.00  0.00     0.117 C 
HETATM   37  O1  UNL     1      -7.043   4.356  25.100  1.00  0.00    -0.273 OA
HETATM   38  C5  UNL     1      -6.677   2.239  29.065  1.00  0.00    -0.005 C 
HETATM   39  C9  UNL     1      -8.017   2.075  28.391  1.00  0.00     0.183 C 
BRANCH  35  40
HETATM   40  C4  UNL     1      -4.423   3.073  28.456  1.00  0.00     0.227 C 
HETATM   41  O2  UNL     1      -3.577   3.106  27.519  1.00  0.00    -0.643 OA
HETATM   42  O3  UNL     1      -3.865   3.277  29.707  1.00  0.00    -0.643 OA
ENDBRANCH  35  40
BRANCH  38  43
HETATM   43  C6  UNL     1      -6.445   1.674  30.451  1.00  0.00     0.122 C 
BRANCH  43  44
HETATM   44  S1  UNL     1      -5.581   0.084  30.273  1.00  0.00    -0.088 SA
BRANCH  44  45
HETATM   45  C7  UNL     1      -5.517  -0.676  31.888  1.00  0.00     0.174 A 
HETATM   46  N2  UNL     1      -4.644  -0.394  32.870  1.00  0.00    -0.168 N 
HETATM   47  C8  UNL     1      -4.923  -1.176  33.925  1.00  0.00     0.692 A 
ATOM     48  H2  UNL     1      -3.895   0.298  32.821  1.00  0.00     0.186 HD
HETATM   49  N4  UNL     1      -5.963  -1.946  33.619  1.00  0.00    -0.130 N 
HETATM   50  N5  UNL     1      -6.316  -1.634  32.379  1.00  0.00    -0.265 N 
ATOM     51  H4  UNL     1      -6.404  -2.642  34.221  1.00  0.00     0.205 HD
ATOM     52  H5  UNL     1      -7.088  -2.064  31.870  1.00  0.00     0.189 HD
BRANCH  47  53
HETATM   53  N3  UNL     1      -4.311  -1.208  35.068  1.00  0.00    -0.233 N 
ATOM     54  H32 UNL     1      -3.653  -0.494  35.381  1.00  0.00     0.174 HD
ATOM     55  H31 UNL     1      -4.389  -1.921  35.794  1.00  0.00     0.174 HD
ENDBRANCH  47  53
ENDBRANCH  44  45
ENDBRANCH  43  44
ENDBRANCH  38  43
BRANCH  39  56
HETATM   56  O4  UNL     1      -8.518   0.823  28.700  1.00  0.00    -0.389 OA
ATOM     57  H4  UNL     1      -9.460   0.833  28.578  1.00  0.00     0.210 HD
ENDBRANCH  39  56
ENDBRANCH   1  32
TORSDOF 12
ENDMDL
MODEL 2
REMARK VINA RESULT: -11.870082054      1.535      1.894
REMARK  12 active torsions:
REMARK  status: ('A' for Active; 'I' for Inactive)
REMARK       I    between atoms: C2_2  and  N1_4 
REMARK    1  A    between atoms: C3_5  and  C4_6 
REMARK    2  A    between atoms: C5_9  and  C6_10 
REMARK    3  A    between atoms: C6_10  and  S1_11 
REMARK    4  A    between atoms: S1_11  and  C7_12 
REMARK    5  A    between atoms: C8_15  and  N3_16 
REMARK    6  A    between atoms: C9_23  and  O4_24 
REMARK    7  A    between atoms: C10_26  and  C11_27 
REMARK       I    between atoms: C11_27  and  N6_29 
REMARK    8  A    between atoms: N6_29  and  C12_31 
REMARK    9  A    between atoms: C12_31  and  C13_32 
REMARK       I    between atoms: C13_32  and  N7_34 
REMARK   10  A    between atoms: C15_36  and  C16_37 
REMARK   11  A    between atoms: C16_37  and  N8_38 
REMARK   12  A    between atoms: C20_47  and  N12_48 
ROOT
HETATM    1  C11 UNL     1      -9.110   2.861  26.149  1.00  0.00     0.244 C 
HETATM    2  O5  UNL     1      -9.911   2.114  25.544  1.00  0.00    -0.271 OA
HETATM    3  N6  UNL     1      -9.532   4.187  26.441  1.00  0.00    -0.350 N 
ATOM      4  H6  UNL     1      -8.901   4.816  26.936  1.00  0.00     0.163 HD
ENDROOT
BRANCH   3   5
HETATM    5  C12 UNL     1     -10.822   4.651  26.054  1.00  0.00     0.227 C 
BRANCH   5   6
HETATM    6  C13 UNL     1     -10.872   6.002  25.475  1.00  0.00     0.258 C 
HETATM    7  O6  UNL     1      -9.901   6.496  24.873  1.00  0.00    -0.270 OA
HETATM    8  N7  UNL     1     -12.067   6.757  25.608  1.00  0.00    -0.216 N 
HETATM    9  C14 UNL     1     -13.218   6.392  26.224  1.00  0.00     0.145 A 
HETATM   10  N14 UNL     1     -12.282   7.978  25.145  1.00  0.00    -0.013 NA
HETATM   11  C15 UNL     1     -14.140   7.410  26.130  1.00  0.00     0.061 A 
HETATM   12  N13 UNL     1     -13.513   8.381  25.448  1.00  0.00    -0.285 N 
ATOM     13  H13 UNL     1     -13.917   9.285  25.201  1.00  0.00     0.184 HD
BRANCH  11  14
HETATM   14  C16 UNL     1     -15.520   7.429  26.667  1.00  0.00     0.213 C 
BRANCH  14  15
HETATM   15  N8  UNL     1     -15.615   8.604  27.545  1.00  0.00    -0.236 N 
HETATM   16  N9  UNL     1     -14.578   9.383  27.778  1.00  0.00    -0.237 N 
HETATM   17  N10 UNL     1     -14.700  10.428  28.569  1.00  0.00    -0.285 N 
ATOM     18  H9  UNL     1     -13.679   9.175  27.344  1.00  0.00     0.208 HD
HETATM   19  C17 UNL     1     -15.880  10.729  29.158  1.00  0.00     0.067 A 
ATOM     20  H10 UNL     1     -13.888  11.023  28.741  1.00  0.00     0.188 HD
HETATM   21  C18 UNL     1     -16.064  11.804  29.990  1.00  0.00     0.061 A 
HETATM   22  C22 UNL     1     -16.977   9.925  28.925  1.00  0.00     0.064 A 
HETATM   23  C19 UNL     1     -17.301  12.069  30.572  1.00  0.00     0.081 A 
HETATM   24  N11 UNL     1     -17.502  13.181  31.435  1.00  0.00    -0.100 NA
HETATM   25  C20 UNL     1     -18.365  11.248  30.317  1.00  0.00     0.128 A 
HETATM   26  C21 UNL     1     -18.209  10.171  29.492  1.00  0.00     0.057 A 
HETATM   27  C23 UNL     1     -16.803   8.848  28.096  1.00  0.00     0.276 A 
HETATM   28  O9  UNL     1     -17.780   8.082  27.853  1.00  0.00    -0.266 OA
BRANCH  25  29
HETATM   29  N12 UNL     1     -19.667  11.457  30.879  1.00  0.00    -0.114 N 
HETATM   30  O7  UNL     1     -20.420  12.369  30.511  1.00  0.00    -0.532 OA
HETATM   31  O8  UNL     1     -20.110  10.616  31.870  1.00  0.00    -0.532 OA
ENDBRANCH  25  29
ENDBRANCH  14  15
ENDBRANCH  11  14
ENDBRANCH   5   6
ENDBRANCH   3   5
BRANCH   1  32
HETATM   32  C10 UNL     1      -7.762   2.405  26.558  1.00  0.00     0.218 C 
HETATM   33  N1  UNL     1      -6.729   3.412  26.267  1.00  0.00    -0.295 N 
HETATM   34  C2  UNL     1      -6.747   4.405  25.287  1.00  0.00     0.221 C 
HETATM   35  C3  UNL     1      -5.737   3.182  27.301  1.00  0.00     0.121 C 
HETATM   36  C1  UNL     1      -5.886   5.595  25.179  1.00  0.00     0.117 C 
HETATM   37  O1  UNL     1      -7.629   4.292  24.347  1.00  0.00    -0.273 OA
HETATM   38  C5  UNL     1      -6.330   2.778  28.392  1.00  0.00    -0.005 C 
HETATM   39  C9  UNL     1      -7.803   2.619  28.110  1.00  0.00     0.183 C 
BRANCH  35  40
HETATM   40  C4  UNL     1      -4.280   3.330  27.111  1.00  0.00     0.227 C 
HETATM   41  O2  UNL     1      -3.493   3.686  28.032  1.00  0.00    -0.643 OA
HETATM   42  O3  UNL     1      -3.643   3.092  25.905  1.00  0.00    -0.643 OA
ENDBRANCH  35  40
BRANCH  38  43
HETATM   43  C6  UNL     1      -5.769   2.413  29.750  1.00  0.00     0.122 C 
BRANCH  43  44
HETATM   44  S1  UNL     1      -5.263   0.667  29.700  1.00  0.00    -0.088 SA
BRANCH  44  45
HETATM   45  C7  UNL     1      -3.519   0.602  30.082  1.00  0.00     0.174 A 
HETATM   46  N2  UNL     1      -2.938  -0.137  31.041  1.00  0.00    -0.168 N 
HETATM   47  C8  UNL     1      -1.616   0.089  31.010  1.00  0.00     0.692 A 
ATOM     48  H2  UNL     1      -3.421  -0.765  31.684  1.00  0.00     0.186 HD
HETATM   49  N4  UNL     1      -1.356   0.963  30.041  1.00  0.00    -0.130 N 
HETATM   50  N5  UNL     1      -2.521   1.268  29.483  1.00  0.00    -0.265 N 
ATOM     51  H4  UNL     1      -0.441   1.327  29.777  1.00  0.00     0.205 HD
ATOM     52  H5  UNL     1      -2.640   1.918  28.706  1.00  0.00     0.189 HD
BRANCH  47  53
HETATM   53  N3  UNL     1      -0.706  -0.432  31.775  1.00  0.00    -0.233 N 
ATOM     54  H32 UNL     1       0.291  -0.421  31.560  1.00  0.00     0.174 HD
ATOM     55  H31 UNL     1      -0.843  -0.912  32.665  1.00  0.00     0.174 HD
ENDBRANCH  47  53
ENDBRANCH  44  45
ENDBRANCH  43  44
ENDBRANCH  38  43
BRANCH  39  56
HETATM   56  O4  UNL     1      -8.254   1.471  28.737  1.00  0.00    -0.389 OA
ATOM     57  H4  UNL     1      -8.096   1.552  29.671  1.00  0.00     0.210 HD
ENDBRANCH  39  56
ENDBRANCH   1  32
TORSDOF 12
ENDMDL
MODEL 3
REMARK VINA RESULT: -11.815326890      1.139      1.420
REMARK  12 active torsions:
REMARK  status: ('A' for Active; 'I' for Inactive)
REMARK       I    between atoms: C2_2  and  N1_4 
REMARK    1  A    between atoms: C3_5  and  C4_6 
REMARK    2  A    between atoms: C5_9  and  C6_10 
REMARK    3  A    between atoms: C6_10  and  S1_11 
REMARK    4  A    between atoms: S1_11  and  C7_12 
REMARK    5  A    between atoms: C8_15  and  N3_16 
REMARK    6  A    between atoms: C9_23  and  O4_24 
REMARK    7  A    between atoms: C10_26  and  C11_27 
REMARK       I    between atoms: C11_27  and  N6_29 
REMARK    8  A    between atoms: N6_29  and  C12_31 
REMARK    9  A    between atoms: C12_31  and  C13_32 
REMARK       I    between atoms: C13_32  and  N7_34 
REMARK   10  A    between atoms: C15_36  and  C16_37 
REMARK   11  A    between atoms: C16_37  and  N8_38 
REMARK   12  A    between atoms: C20_47  and  N12_48 
ROOT
HETATM    1  C11 UNL     1      -7.888   2.347  26.617  1.00  0.00     0.244 C 
HETATM    2  O5  UNL     1      -7.910   2.066  25.398  1.00  0.00    -0.271 OA
HETATM    3  N6  UNL     1      -8.820   3.309  27.092  1.00  0.00    -0.350 N 
ATOM      4  H6  UNL     1      -8.826   3.555  28.081  1.00  0.00     0.163 HD
ENDROOT
BRANCH   3   5
HETATM    5  C12 UNL     1      -9.746   3.936  26.209  1.00  0.00     0.227 C 
BRANCH   5   6
HETATM    6  C13 UNL     1      -9.540   5.373  25.977  1.00  0.00     0.258 C 
HETATM    7  O6  UNL     1      -8.412   5.847  25.748  1.00  0.00    -0.270 OA
HETATM    8  N7  UNL     1     -10.665   6.238  26.013  1.00  0.00    -0.216 N 
HETATM    9  C14 UNL     1     -11.960   5.911  26.246  1.00  0.00     0.145 A 
HETATM   10  N14 UNL     1     -10.658   7.548  25.821  1.00  0.00    -0.013 NA
HETATM   11  C15 UNL     1     -12.744   7.041  26.193  1.00  0.00     0.061 A 
HETATM   12  N13 UNL     1     -11.889   8.041  25.925  1.00  0.00    -0.285 N 
ATOM     13  H13 UNL     1     -12.144   9.023  25.817  1.00  0.00     0.184 HD
BRANCH  11  14
HETATM   14  C16 UNL     1     -14.208   7.133  26.391  1.00  0.00     0.213 C 
BRANCH  14  15
HETATM   15  N8  UNL     1     -14.453   8.355  27.169  1.00  0.00    -0.236 N 
HETATM   16  N9  UNL     1     -13.561   9.322  27.244  1.00  0.00    -0.237 N 
HETATM   17  N10 UNL     1     -13.814  10.405  27.949  1.00  0.00    -0.285 N 
ATOM     18  H9  UNL     1     -12.670   9.231  26.753  1.00  0.00     0.208 HD
HETATM   19  C17 UNL     1     -14.985  10.553  28.609  1.00  0.00     0.067 A 
ATOM     20  H10 UNL     1     -13.114  11.145  27.998  1.00  0.00     0.188 HD
HETATM   21  C18 UNL     1     -15.302  11.659  29.358  1.00  0.00     0.061 A 
HETATM   22  C22 UNL     1     -15.932   9.552  28.542  1.00  0.00     0.064 A 
HETATM   23  C19 UNL     1     -16.523  11.762  30.019  1.00  0.00     0.081 A 
HETATM   24  N11 UNL     1     -16.862  12.903  30.797  1.00  0.00    -0.100 NA
HETATM   25  C20 UNL     1     -17.436  10.748  29.929  1.00  0.00     0.128 A 
HETATM   26  C21 UNL     1     -17.146   9.637  29.190  1.00  0.00     0.057 A 
HETATM   27  C23 UNL     1     -15.624   8.444  27.797  1.00  0.00     0.276 A 
HETATM   28  O9  UNL     1     -16.461   7.500  27.707  1.00  0.00    -0.266 OA
BRANCH  25  29
HETATM   29  N12 UNL     1     -18.713  10.783  30.581  1.00  0.00    -0.114 N 
HETATM   30  O7  UNL     1     -18.906  10.303  31.708  1.00  0.00    -0.532 OA
HETATM   31  O8  UNL     1     -19.775  11.369  29.940  1.00  0.00    -0.532 OA
ENDBRANCH  25  29
ENDBRANCH  14  15
ENDBRANCH  11  14
ENDBRANCH   5   6
ENDBRANCH   3   5
BRANCH   1  32
HETATM   32  C10 UNL     1      -6.933   1.714  27.555  1.00  0.00     0.218 C 
HETATM   33  N1  UNL     1      -5.890   2.653  27.995  1.00  0.00    -0.295 N 
HETATM   34  C2  UNL     1      -5.406   3.777  27.325  1.00  0.00     0.221 C 
HETATM   35  C3  UNL     1      -5.556   2.183  29.327  1.00  0.00     0.121 C 
HETATM   36  C1  UNL     1      -4.603   4.886  27.868  1.00  0.00     0.117 C 
HETATM   37  O1  UNL     1      -5.694   3.887  26.068  1.00  0.00    -0.273 OA
HETATM   38  C5  UNL     1      -6.621   1.678  29.889  1.00  0.00    -0.005 C 
HETATM   39  C9  UNL     1      -7.751   1.699  28.891  1.00  0.00     0.183 C 
BRANCH  35  40
HETATM   40  C4  UNL     1      -4.202   2.223  29.913  1.00  0.00     0.227 C 
HETATM   41  O2  UNL     1      -3.794   3.162  30.653  1.00  0.00    -0.643 OA
HETATM   42  O3  UNL     1      -3.254   1.234  29.708  1.00  0.00    -0.643 OA
ENDBRANCH  35  40
BRANCH  38  43
HETATM   43  C6  UNL     1      -6.823   1.066  31.260  1.00  0.00     0.122 C 
BRANCH  43  44
HETATM   44  S1  UNL     1      -6.195  -0.639  31.213  1.00  0.00    -0.088 SA
BRANCH  44  45
HETATM   45  C7  UNL     1      -4.798  -0.727  32.323  1.00  0.00     0.174 A 
HETATM   46  N2  UNL     1      -4.845  -0.783  33.665  1.00  0.00    -0.168 N 
HETATM   47  C8  UNL     1      -3.588  -0.840  34.133  1.00  0.00     0.692 A 
ATOM     48  H2  UNL     1      -5.694  -0.782  34.232  1.00  0.00     0.186 HD
HETATM   49  N4  UNL     1      -2.750  -0.822  33.101  1.00  0.00    -0.130 N 
HETATM   50  N5  UNL     1      -3.496  -0.754  32.006  1.00  0.00    -0.265 N 
ATOM     51  H4  UNL     1      -1.731  -0.855  33.142  1.00  0.00     0.205 HD
ATOM     52  H5  UNL     1      -3.129  -0.725  31.054  1.00  0.00     0.189 HD
BRANCH  47  53
HETATM   53  N3  UNL     1      -3.208  -0.904  35.372  1.00  0.00    -0.233 N 
ATOM     54  H32 UNL     1      -3.803  -0.654  36.162  1.00  0.00     0.174 HD
ATOM     55  H31 UNL     1      -2.299  -1.198  35.728  1.00  0.00     0.174 HD
ENDBRANCH  47  53
ENDBRANCH  44  45
ENDBRANCH  43  44
ENDBRANCH  38  43
BRANCH  39  56
HETATM   56  O4  UNL     1      -8.462   0.517  29.001  1.00  0.00    -0.389 OA
ATOM     57  H4  UNL     1      -8.258  -0.033  28.254  1.00  0.00     0.210 HD
ENDBRANCH  39  56
ENDBRANCH   1  32
TORSDOF 12
ENDMDL
MODEL 4
REMARK VINA RESULT: -11.269045435      3.290      5.709
REMARK  12 active torsions:
REMARK  status: ('A' for Active; 'I' for Inactive)
REMARK       I    between atoms: C2_2  and  N1_4 
REMARK    1  A    between atoms: C3_5  and  C4_6 
REMARK    2  A    between atoms: C5_9  and  C6_10 
REMARK    3  A    between atoms: C6_10  and  S1_11 
REMARK    4  A    between atoms: S1_11  and  C7_12 
REMARK    5  A    between atoms: C8_15  and  N3_16 
REMARK    6  A    between atoms: C9_23  and  O4_24 
REMARK    7  A    between atoms: C10_26  and  C11_27 
REMARK       I    between atoms: C11_27  and  N6_29 
REMARK    8  A    between atoms: N6_29  and  C12_31 
REMARK    9  A    between atoms: C12_31  and  C13_32 
REMARK       I    between atoms: C13_32  and  N7_34 
REMARK   10  A    between atoms: C15_36  and  C16_37 
REMARK   11  A    between atoms: C16_37  and  N8_38 
REMARK   12  A    between atoms: C20_47  and  N12_48 
ROOT
HETATM    1  C11 UNL     1      -8.385   5.980  26.765  1.00  0.00     0.244 C 
HETATM    2  O5  UNL     1      -9.375   6.366  27.425  1.00  0.00    -0.271 OA
HETATM    3  N6  UNL     1      -8.608   5.534  25.435  1.00  0.00    -0.350 N 
ATOM      4  H6  UNL     1      -7.819   5.217  24.873  1.00  0.00     0.163 HD
ENDROOT
BRANCH   3   5
HETATM    5  C12 UNL     1      -9.917   5.522  24.872  1.00  0.00     0.227 C 
BRANCH   5   6
HETATM    6  C13 UNL     1     -10.398   6.805  24.338  1.00  0.00     0.258 C 
HETATM    7  O6  UNL     1      -9.744   7.457  23.504  1.00  0.00    -0.270 OA
HETATM    8  N7  UNL     1     -11.647   7.306  24.789  1.00  0.00    -0.216 N 
HETATM    9  C14 UNL     1     -12.495   6.744  25.687  1.00  0.00     0.145 A 
HETATM   10  N14 UNL     1     -12.228   8.433  24.409  1.00  0.00    -0.013 NA
HETATM   11  C15 UNL     1     -13.601   7.547  25.848  1.00  0.00     0.061 A 
HETATM   12  N13 UNL     1     -13.393   8.591  25.032  1.00  0.00    -0.285 N 
ATOM     13  H13 UNL     1     -14.027   9.381  24.908  1.00  0.00     0.184 HD
BRANCH  11  14
HETATM   14  C16 UNL     1     -14.765   7.310  26.733  1.00  0.00     0.213 C 
BRANCH  14  15
HETATM   15  N8  UNL     1     -14.968   8.545  27.504  1.00  0.00    -0.236 N 
HETATM   16  N9  UNL     1     -14.055   9.494  27.547  1.00  0.00    -0.237 N 
HETATM   17  N10 UNL     1     -14.271  10.589  28.247  1.00  0.00    -0.285 N 
ATOM     18  H9  UNL     1     -13.179   9.381  27.037  1.00  0.00     0.208 HD
HETATM   19  C17 UNL     1     -15.423  10.767  28.933  1.00  0.00     0.067 A 
ATOM     20  H10 UNL     1     -13.555  11.316  28.272  1.00  0.00     0.188 HD
HETATM   21  C18 UNL     1     -15.700  11.886  29.678  1.00  0.00     0.061 A 
HETATM   22  C22 UNL     1     -16.390   9.783  28.899  1.00  0.00     0.064 A 
HETATM   23  C19 UNL     1     -16.903  12.019  30.367  1.00  0.00     0.081 A 
HETATM   24  N11 UNL     1     -17.201  13.174  31.141  1.00  0.00    -0.100 NA
HETATM   25  C20 UNL     1     -17.838  11.022  30.309  1.00  0.00     0.128 A 
HETATM   26  C21 UNL     1     -17.586   9.898  29.575  1.00  0.00     0.057 A 
HETATM   27  C23 UNL     1     -16.122   8.662  28.158  1.00  0.00     0.276 A 
HETATM   28  O9  UNL     1     -16.979   7.734  28.098  1.00  0.00    -0.266 OA
BRANCH  25  29
HETATM   29  N12 UNL     1     -19.097  11.088  30.991  1.00  0.00    -0.114 N 
HETATM   30  O7  UNL     1     -20.139  11.476  30.443  1.00  0.00    -0.532 OA
HETATM   31  O8  UNL     1     -19.164  10.708  32.308  1.00  0.00    -0.532 OA
ENDBRANCH  25  29
ENDBRANCH  14  15
ENDBRANCH  11  14
ENDBRANCH   5   6
ENDBRANCH   3   5
BRANCH   1  32
HETATM   32  C10 UNL     1      -7.015   5.978  27.327  1.00  0.00     0.218 C 
HETATM   33  N1  UNL     1      -6.531   4.614  27.591  1.00  0.00    -0.295 N 
HETATM   34  C2  UNL     1      -7.284   3.470  27.860  1.00  0.00     0.221 C 
HETATM   35  C3  UNL     1      -5.095   4.727  27.412  1.00  0.00     0.121 C 
HETATM   36  C1  UNL     1      -6.851   2.063  27.820  1.00  0.00     0.117 C 
HETATM   37  O1  UNL     1      -8.526   3.642  28.179  1.00  0.00    -0.273 OA
HETATM   38  C5  UNL     1      -4.840   5.620  26.494  1.00  0.00    -0.005 C 
HETATM   39  C9  UNL     1      -6.140   6.246  26.055  1.00  0.00     0.183 C 
BRANCH  35  40
HETATM   40  C4  UNL     1      -4.092   3.982  28.198  1.00  0.00     0.227 C 
HETATM   41  O2  UNL     1      -3.559   2.907  27.803  1.00  0.00    -0.643 OA
HETATM   42  O3  UNL     1      -3.642   4.393  29.442  1.00  0.00    -0.643 OA
ENDBRANCH  35  40
BRANCH  38  43
HETATM   43  C6  UNL     1      -3.526   6.110  25.923  1.00  0.00     0.122 C 
BRANCH  43  44
HETATM   44  S1  UNL     1      -2.937   4.876  24.724  1.00  0.00    -0.088 SA
BRANCH  44  45
HETATM   45  C7  UNL     1      -2.852   5.676  23.129  1.00  0.00     0.174 A 
HETATM   46  N2  UNL     1      -1.753   6.188  22.550  1.00  0.00    -0.168 N 
HETATM   47  C8  UNL     1      -2.100   6.700  21.358  1.00  0.00     0.692 A 
ATOM     48  H2  UNL     1      -0.814   6.187  22.948  1.00  0.00     0.186 HD
HETATM   49  N4  UNL     1      -3.405   6.515  21.180  1.00  0.00    -0.130 N 
HETATM   50  N5  UNL     1      -3.852   5.892  22.263  1.00  0.00    -0.265 N 
ATOM     51  H4  UNL     1      -3.956   6.797  20.369  1.00  0.00     0.205 HD
ATOM     52  H5  UNL     1      -4.822   5.615  22.415  1.00  0.00     0.189 HD
BRANCH  47  53
HETATM   53  N3  UNL     1      -1.329   7.283  20.493  1.00  0.00    -0.233 N 
ATOM     54  H32 UNL     1      -0.629   6.794  19.935  1.00  0.00     0.174 HD
ATOM     55  H31 UNL     1      -1.305   8.274  20.252  1.00  0.00     0.174 HD
ENDBRANCH  47  53
ENDBRANCH  44  45
ENDBRANCH  43  44
ENDBRANCH  38  43
BRANCH  39  56
HETATM   56  O4  UNL     1      -5.944   7.606  25.890  1.00  0.00    -0.389 OA
ATOM     57  H4  UNL     1      -6.268   7.859  25.033  1.00  0.00     0.210 HD
ENDBRANCH  39  56
ENDBRANCH   1  32
TORSDOF 12
ENDMDL
MODEL 5
REMARK VINA RESULT: -11.251939374      3.396      4.118
REMARK  12 active torsions:
REMARK  status: ('A' for Active; 'I' for Inactive)
REMARK       I    between atoms: C2_2  and  N1_4 
REMARK    1  A    between atoms: C3_5  and  C4_6 
REMARK    2  A    between atoms: C5_9  and  C6_10 
REMARK    3  A    between atoms: C6_10  and  S1_11 
REMARK    4  A    between atoms: S1_11  and  C7_12 
REMARK    5  A    between atoms: C8_15  and  N3_16 
REMARK    6  A    between atoms: C9_23  and  O4_24 
REMARK    7  A    between atoms: C10_26  and  C11_27 
REMARK       I    between atoms: C11_27  and  N6_29 
REMARK    8  A    between atoms: N6_29  and  C12_31 
REMARK    9  A    between atoms: C12_31  and  C13_32 
REMARK       I    between atoms: C13_32  and  N7_34 
REMARK   10  A    between atoms: C15_36  and  C16_37 
REMARK   11  A    between atoms: C16_37  and  N8_38 
REMARK   12  A    between atoms: C20_47  and  N12_48 
ROOT
HETATM    1  C11 UNL     1      -8.852   3.574  26.040  1.00  0.00     0.244 C 
HETATM    2  O5  UNL     1      -9.824   2.882  25.660  1.00  0.00    -0.271 OA
HETATM    3  N6  UNL     1      -9.116   4.893  26.496  1.00  0.00    -0.350 N 
ATOM      4  H6  UNL     1      -8.343   5.478  26.814  1.00  0.00     0.163 HD
ENDROOT
BRANCH   3   5
HETATM    5  C12 UNL     1     -10.442   5.414  26.516  1.00  0.00     0.227 C 
BRANCH   5   6
HETATM    6  C13 UNL     1     -10.675   6.610  25.693  1.00  0.00     0.258 C 
HETATM    7  O6  UNL     1      -9.783   7.099  24.976  1.00  0.00    -0.270 OA
HETATM    8  N7  UNL     1     -11.959   7.216  25.720  1.00  0.00    -0.216 N 
HETATM    9  C14 UNL     1     -13.047   6.833  26.433  1.00  0.00     0.145 A 
HETATM   10  N14 UNL     1     -12.339   8.286  25.040  1.00  0.00    -0.013 NA
HETATM   11  C15 UNL     1     -14.096   7.685  26.177  1.00  0.00     0.061 A 
HETATM   12  N13 UNL     1     -13.610   8.578  25.302  1.00  0.00    -0.285 N 
ATOM     13  H13 UNL     1     -14.132   9.358  24.901  1.00  0.00     0.184 HD
BRANCH  11  14
HETATM   14  C16 UNL     1     -15.462   7.630  26.747  1.00  0.00     0.213 C 
BRANCH  14  15
HETATM   15  N8  UNL     1     -15.599   8.797  27.630  1.00  0.00    -0.236 N 
HETATM   16  N9  UNL     1     -14.589   9.608  27.871  1.00  0.00    -0.237 N 
HETATM   17  N10 UNL     1     -14.747  10.646  28.665  1.00  0.00    -0.285 N 
ATOM     18  H9  UNL     1     -13.681   9.431  27.440  1.00  0.00     0.208 HD
HETATM   19  C17 UNL     1     -15.939  10.906  29.250  1.00  0.00     0.067 A 
ATOM     20  H10 UNL     1     -13.956  11.266  28.844  1.00  0.00     0.188 HD
HETATM   21  C18 UNL     1     -16.161  11.972  30.086  1.00  0.00     0.061 A 
HETATM   22  C22 UNL     1     -17.009  10.068  29.008  1.00  0.00     0.064 A 
HETATM   23  C19 UNL     1     -17.409  12.194  30.662  1.00  0.00     0.081 A 
HETATM   24  N11 UNL     1     -17.650  13.295  31.529  1.00  0.00    -0.100 NA
HETATM   25  C20 UNL     1     -18.445  11.341  30.399  1.00  0.00     0.128 A 
HETATM   26  C21 UNL     1     -18.250  10.273  29.571  1.00  0.00     0.057 A 
HETATM   27  C23 UNL     1     -16.797   9.001  28.176  1.00  0.00     0.276 A 
HETATM   28  O9  UNL     1     -17.747   8.205  27.925  1.00  0.00    -0.266 OA
BRANCH  25  29
HETATM   29  N12 UNL     1     -19.756  11.505  30.956  1.00  0.00    -0.114 N 
HETATM   30  O7  UNL     1     -20.530  12.405  30.599  1.00  0.00    -0.532 OA
HETATM   31  O8  UNL     1     -20.183  10.635  31.927  1.00  0.00    -0.532 OA
ENDBRANCH  25  29
ENDBRANCH  14  15
ENDBRANCH  11  14
ENDBRANCH   5   6
ENDBRANCH   3   5
BRANCH   1  32
HETATM   32  C10 UNL     1      -7.464   3.058  26.024  1.00  0.00     0.218 C 
HETATM   33  N1  UNL     1      -6.557   3.943  25.276  1.00  0.00    -0.295 N 
HETATM   34  C2  UNL     1      -6.874   4.824  24.242  1.00  0.00     0.221 C 
HETATM   35  C3  UNL     1      -5.279   3.746  25.934  1.00  0.00     0.121 C 
HETATM   36  C1  UNL     1      -6.059   5.925  23.700  1.00  0.00     0.117 C 
HETATM   37  O1  UNL     1      -8.030   4.683  23.678  1.00  0.00    -0.273 OA
HETATM   38  C5  UNL     1      -5.475   3.509  27.203  1.00  0.00    -0.005 C 
HETATM   39  C9  UNL     1      -6.960   3.438  27.458  1.00  0.00     0.183 C 
BRANCH  35  40
HETATM   40  C4  UNL     1      -3.973   3.758  25.246  1.00  0.00     0.227 C 
HETATM   41  O2  UNL     1      -3.139   4.700  25.356  1.00  0.00    -0.643 OA
HETATM   42  O3  UNL     1      -3.541   2.735  24.418  1.00  0.00    -0.643 OA
ENDBRANCH  35  40
BRANCH  38  43
HETATM   43  C6  UNL     1      -4.494   3.247  28.327  1.00  0.00     0.122 C 
BRANCH  43  44
HETATM   44  S1  UNL     1      -3.873   4.850  28.918  1.00  0.00    -0.088 SA
BRANCH  44  45
HETATM   45  C7  UNL     1      -4.799   6.127  28.080  1.00  0.00     0.174 A 
HETATM   46  N2  UNL     1      -6.095   6.429  28.269  1.00  0.00    -0.168 N 
HETATM   47  C8  UNL     1      -6.418   7.445  27.453  1.00  0.00     0.692 A 
ATOM     48  H2  UNL     1      -6.726   5.964  28.922  1.00  0.00     0.186 HD
HETATM   49  N4  UNL     1      -5.340   7.787  26.753  1.00  0.00    -0.130 N 
HETATM   50  N5  UNL     1      -4.362   6.979  27.142  1.00  0.00    -0.265 N 
ATOM     51  H4  UNL     1      -5.276   8.527  26.054  1.00  0.00     0.205 HD
ATOM     52  H5  UNL     1      -3.409   7.004  26.778  1.00  0.00     0.189 HD
BRANCH  47  53
HETATM   53  N3  UNL     1      -7.571   8.027  27.334  1.00  0.00    -0.233 N 
ATOM     54  H32 UNL     1      -8.192   8.223  28.119  1.00  0.00     0.174 HD
ATOM     55  H31 UNL     1      -8.013   8.360  26.477  1.00  0.00     0.174 HD
ENDBRANCH  47  53
ENDBRANCH  44  45
ENDBRANCH  43  44
ENDBRANCH  38  43
BRANCH  39  56
HETATM   56  O4  UNL     1      -7.210   2.403  28.341  1.00  0.00    -0.389 OA
ATOM     57  H4  UNL     1      -6.990   2.692  29.220  1.00  0.00     0.210 HD
ENDBRANCH  39  56
ENDBRANCH   1  32
TORSDOF 12
ENDMDL
