MODEL 1
REMARK VINA RESULT: -7.876805518      0.000      0.000
REMARK  18 active torsions:
REMARK  status: ('A' for Active; 'I' for Inactive)
REMARK    1  A    between atoms: C2_2  and  C3_3 
REMARK    2  A    between atoms: C3_3  and  C4_4 
REMARK    3  A    between atoms: C4_4  and  O2_6 
REMARK    4  A    between atoms: O2_6  and  C5_7 
REMARK    5  A    between atoms: C6_9  and  C7_10 
REMARK    6  A    between atoms: C8_14  and  O7_15 
REMARK    7  A    between atoms: C9_17  and  N1_18 
REMARK    8  A    between atoms: N1_18  and  C10_20 
REMARK    9  A    between atoms: C13_24  and  O9_25 
REMARK   10  A    between atoms: C14_27  and  O10_28 
REMARK   11  A    between atoms: N2_32  and  C16_33 
REMARK   12  A    between atoms: C18_35  and  O12_36 
REMARK   13  A    between atoms: N3_41  and  C22_42 
REMARK   14  A    between atoms: C22_42  and  C23_43 
REMARK   15  A    between atoms: C23_43  and  O13_44 
REMARK   16  A    between atoms: C24_47  and  C25_48 
REMARK   17  A    between atoms: C25_48  and  O15_50 
REMARK   18  A    between atoms: O15_50  and  C26_51 
ROOT
HETATM    1  C5  UNL     1      -8.734   6.881  25.074  1.00  0.00     0.292 C 
HETATM    2  O3  UNL     1      -8.876   5.900  26.032  1.00  0.00    -0.290 OA
HETATM    3  C6  UNL     1      -8.929   4.676  25.398  1.00  0.00     0.297 C 
HETATM    4  O6  UNL     1      -9.283   4.982  24.082  1.00  0.00    -0.294 OA
HETATM    5  C8  UNL     1      -8.449   6.105  23.859  1.00  0.00     0.279 C 
HETATM    6  C9  UNL     1      -7.055   5.570  23.671  1.00  0.00     0.097 C 
HETATM    7  C18 UNL     1      -6.472   4.841  24.839  1.00  0.00     0.169 C 
HETATM    8  C19 UNL     1      -5.666   5.570  25.800  1.00  0.00     0.283 C 
HETATM    9  C20 UNL     1      -5.969   6.934  26.239  1.00  0.00     0.118 C 
HETATM   10  C21 UNL     1      -6.264   6.400  27.645  1.00  0.00     0.290 C 
HETATM   11  N3  UNL     1      -5.689   5.172  27.208  1.00  0.00     0.101 N 
HETATM   12  S1  UNL     1      -7.242   7.839  25.471  1.00  0.00    -0.086 SA
HETATM   13  C24 UNL     1      -7.603   3.961  25.320  1.00  0.00     0.110 C 
ENDROOT
BRANCH   6  14
HETATM   14  N1  UNL     1      -6.193   6.466  22.948  1.00  0.00    -0.363 N 
ATOM     15  H1  UNL     1      -6.571   7.390  22.739  1.00  0.00     0.165 HD
BRANCH  14  16
HETATM   16  C10 UNL     1      -4.896   6.209  22.501  1.00  0.00     0.122 C 
HETATM   17  C11 UNL     1      -4.348   5.900  21.363  1.00  0.00     0.106 A 
HETATM   18  C12 UNL     1      -2.874   5.700  21.302  1.00  0.00     0.236 A 
HETATM   19  N2  UNL     1      -5.085   5.746  20.175  1.00  0.00    -0.308 N 
HETATM   20  O8  UNL     1      -2.183   5.828  22.338  1.00  0.00    -0.283 OA
HETATM   21  C13 UNL     1      -2.246   5.361  20.058  1.00  0.00     0.157 A 
HETATM   22  C14 UNL     1      -2.920   5.212  18.930  1.00  0.00     0.172 A 
HETATM   23  C15 UNL     1      -4.354   5.402  18.970  1.00  0.00     0.284 A 
HETATM   24  O11 UNL     1      -5.022   5.260  17.885  1.00  0.00    -0.265 OA
BRANCH  21  25
HETATM   25  O9  UNL     1      -0.857   5.165  19.962  1.00  0.00    -0.355 OA
ATOM     26  H9  UNL     1      -0.313   5.711  19.406  1.00  0.00     0.218 HD
ENDBRANCH  21  25
BRANCH  22  27
HETATM   27  O10 UNL     1      -2.317   4.884  17.727  1.00  0.00    -0.354 OA
ATOM     28  H10 UNL     1      -2.653   5.166  16.884  1.00  0.00     0.218 HD
ENDBRANCH  22  27
BRANCH  19  29
HETATM   29  C16 UNL     1      -6.519   5.900  20.031  1.00  0.00     0.128 C 
HETATM   30  C17 UNL     1      -7.268   4.583  20.130  1.00  0.00     0.027 C 
ENDBRANCH  19  29
ENDBRANCH  14  16
ENDBRANCH   6  14
BRANCH   5  31
HETATM   31  O7  UNL     1      -8.845   6.715  22.694  1.00  0.00    -0.356 OA
ATOM     32  H7  UNL     1      -9.615   6.329  22.294  1.00  0.00     0.213 HD
ENDBRANCH   5  31
BRANCH   7  33
HETATM   33  O12 UNL     1      -5.577   3.878  24.258  1.00  0.00    -0.376 OA
ATOM     34  H12 UNL     1      -5.025   3.595  24.979  1.00  0.00     0.211 HD
ENDBRANCH   7  33
BRANCH   1  35
HETATM   35  O2  UNL     1      -9.699   7.856  25.003  1.00  0.00    -0.267 OA
BRANCH  35  36
HETATM   36  C4  UNL     1     -11.046   7.788  25.007  1.00  0.00     0.262 C 
HETATM   37  O1  UNL     1     -11.623   7.714  23.920  1.00  0.00    -0.265 OA
BRANCH  36  38
HETATM   38  C3  UNL     1     -11.839   7.800  26.255  1.00  0.00     0.111 C 
BRANCH  38  39
HETATM   39  C2  UNL     1     -13.154   7.062  26.088  1.00  0.00     0.005 C 
HETATM   40  C1  UNL     1     -14.322   7.953  26.443  1.00  0.00     0.005 C 
ENDBRANCH  38  39
ENDBRANCH  36  38
ENDBRANCH  35  36
ENDBRANCH   1  35
BRANCH  13  41
HETATM   41  C25 UNL     1      -7.322   2.966  26.324  1.00  0.00     0.294 C 
HETATM   42  O14 UNL     1      -6.703   1.909  25.998  1.00  0.00    -0.260 OA
BRANCH  41  43
HETATM   43  O15 UNL     1      -7.654   3.009  27.677  1.00  0.00    -0.318 OA
BRANCH  43  44
HETATM   44  C26 UNL     1      -7.165   2.070  28.621  1.00  0.00     0.174 C 
HETATM   45  C27 UNL     1      -8.219   1.098  29.057  1.00  0.00     0.034 C 
ENDBRANCH  43  44
ENDBRANCH  41  43
ENDBRANCH  13  41
BRANCH   3  46
HETATM   46  C7  UNL     1      -9.906   3.736  25.943  1.00  0.00     0.244 C 
HETATM   47  O4  UNL     1     -10.784   4.155  26.745  1.00  0.00    -0.644 OA
HETATM   48  O5  UNL     1      -9.922   2.398  25.628  1.00  0.00    -0.644 OA
ENDBRANCH   3  46
BRANCH  11  49
HETATM   49  C22 UNL     1      -4.439   4.776  27.782  1.00  0.00     0.299 C 
BRANCH  49  50
HETATM   50  C23 UNL     1      -4.122   3.327  27.694  1.00  0.00     0.194 C 
BRANCH  50  51
HETATM   51  O13 UNL     1      -3.756   3.069  26.353  1.00  0.00    -0.399 OA
ATOM     52  H13 UNL     1      -4.105   2.214  26.133  1.00  0.00     0.209 HD
ENDBRANCH  50  51
ENDBRANCH  49  50
ENDBRANCH  11  49
TORSDOF 18
ENDMDL
MODEL 2
REMARK VINA RESULT: -7.245953818      1.099      1.249
REMARK  18 active torsions:
REMARK  status: ('A' for Active; 'I' for Inactive)
REMARK    1  A    between atoms: C2_2  and  C3_3 
REMARK    2  A    between atoms: C3_3  and  C4_4 
REMARK    3  A    between atoms: C4_4  and  O2_6 
REMARK    4  A    between atoms: O2_6  and  C5_7 
REMARK    5  A    between atoms: C6_9  and  C7_10 
REMARK    6  A    between atoms: C8_14  and  O7_15 
REMARK    7  A    between atoms: C9_17  and  N1_18 
REMARK    8  A    between atoms: N1_18  and  C10_20 
REMARK    9  A    between atoms: C13_24  and  O9_25 
REMARK   10  A    between atoms: C14_27  and  O10_28 
REMARK   11  A    between atoms: N2_32  and  C16_33 
REMARK   12  A    between atoms: C18_35  and  O12_36 
REMARK   13  A    between atoms: N3_41  and  C22_42 
REMARK   14  A    between atoms: C22_42  and  C23_43 
REMARK   15  A    between atoms: C23_43  and  O13_44 
REMARK   16  A    between atoms: C24_47  and  C25_48 
REMARK   17  A    between atoms: C25_48  and  O15_50 
REMARK   18  A    between atoms: O15_50  and  C26_51 
ROOT
HETATM    1  C5  UNL     1      -8.908   7.086  25.222  1.00  0.00     0.292 C 
HETATM    2  O3  UNL     1      -9.043   6.045  26.116  1.00  0.00    -0.290 OA
HETATM    3  C6  UNL     1      -9.185   4.874  25.402  1.00  0.00     0.297 C 
HETATM    4  O6  UNL     1      -9.595   5.289  24.132  1.00  0.00    -0.294 OA
HETATM    5  C8  UNL     1      -8.724   6.390  23.941  1.00  0.00     0.279 C 
HETATM    6  C9  UNL     1      -7.368   5.813  23.638  1.00  0.00     0.097 C 
HETATM    7  C18 UNL     1      -6.757   4.978  24.716  1.00  0.00     0.169 C 
HETATM    8  C19 UNL     1      -5.868   5.601  25.679  1.00  0.00     0.283 C 
HETATM    9  C20 UNL     1      -6.085   6.941  26.229  1.00  0.00     0.118 C 
HETATM   10  C21 UNL     1      -6.327   6.319  27.609  1.00  0.00     0.290 C 
HETATM   11  N3  UNL     1      -5.833   5.103  27.054  1.00  0.00     0.101 N 
HETATM   12  S1  UNL     1      -7.356   7.950  25.600  1.00  0.00    -0.086 SA
HETATM   13  C24 UNL     1      -7.899   4.113  25.198  1.00  0.00     0.110 C 
ENDROOT
BRANCH   6  14
HETATM   14  N1  UNL     1      -6.506   6.723  22.931  1.00  0.00    -0.363 N 
ATOM     15  H1  UNL     1      -6.749   7.712  22.984  1.00  0.00     0.165 HD
BRANCH  14  16
HETATM   16  C10 UNL     1      -5.375   6.400  22.181  1.00  0.00     0.122 C 
HETATM   17  C11 UNL     1      -4.984   6.593  20.956  1.00  0.00     0.106 A 
HETATM   18  C12 UNL     1      -3.658   6.069  20.530  1.00  0.00     0.236 A 
HETATM   19  N2  UNL     1      -5.759   7.281  20.005  1.00  0.00    -0.308 N 
HETATM   20  O8  UNL     1      -2.939   5.451  21.347  1.00  0.00    -0.283 OA
HETATM   21  C13 UNL     1      -3.204   6.272  19.185  1.00  0.00     0.157 A 
HETATM   22  C14 UNL     1      -3.916   6.915  18.275  1.00  0.00     0.172 A 
HETATM   23  C15 UNL     1      -5.209   7.432  18.671  1.00  0.00     0.284 A 
HETATM   24  O11 UNL     1      -5.911   8.057  17.800  1.00  0.00    -0.265 OA
BRANCH  21  25
HETATM   25  O9  UNL     1      -1.957   5.792  18.746  1.00  0.00    -0.355 OA
ATOM     26  H9  UNL     1      -1.531   6.142  17.973  1.00  0.00     0.218 HD
ENDBRANCH  21  25
BRANCH  22  27
HETATM   27  O10 UNL     1      -3.481   7.113  16.975  1.00  0.00    -0.354 OA
ATOM     28  H10 UNL     1      -3.378   7.974  16.587  1.00  0.00     0.218 HD
ENDBRANCH  22  27
BRANCH  19  29
HETATM   29  C16 UNL     1      -7.068   7.863  20.225  1.00  0.00     0.128 C 
HETATM   30  C17 UNL     1      -7.003   9.315  20.664  1.00  0.00     0.027 C 
ENDBRANCH  19  29
ENDBRANCH  14  16
ENDBRANCH   6  14
BRANCH   5  31
HETATM   31  O7  UNL     1      -9.155   7.098  22.847  1.00  0.00    -0.356 OA
ATOM     32  H7  UNL     1      -9.653   7.879  23.059  1.00  0.00     0.213 HD
ENDBRANCH   5  31
BRANCH   7  33
HETATM   33  O12 UNL     1      -5.938   4.023  24.019  1.00  0.00    -0.376 OA
ATOM     34  H12 UNL     1      -5.530   4.520  23.319  1.00  0.00     0.211 HD
ENDBRANCH   7  33
BRANCH   1  35
HETATM   35  O2  UNL     1      -9.830   8.102  25.275  1.00  0.00    -0.267 OA
BRANCH  35  36
HETATM   36  C4  UNL     1     -11.179   8.094  25.250  1.00  0.00     0.262 C 
HETATM   37  O1  UNL     1     -11.737   8.237  24.160  1.00  0.00    -0.265 OA
BRANCH  36  38
HETATM   38  C3  UNL     1     -11.995   7.920  26.471  1.00  0.00     0.111 C 
BRANCH  38  39
HETATM   39  C2  UNL     1     -13.259   7.129  26.188  1.00  0.00     0.005 C 
HETATM   40  C1  UNL     1     -14.490   7.968  26.446  1.00  0.00     0.005 C 
ENDBRANCH  38  39
ENDBRANCH  36  38
ENDBRANCH  35  36
ENDBRANCH   1  35
BRANCH  13  41
HETATM   41  C25 UNL     1      -7.609   3.036  26.112  1.00  0.00     0.294 C 
HETATM   42  O14 UNL     1      -7.127   1.952  25.666  1.00  0.00    -0.260 OA
BRANCH  41  43
HETATM   43  O15 UNL     1      -7.795   3.023  27.493  1.00  0.00    -0.318 OA
BRANCH  43  44
HETATM   44  C26 UNL     1      -7.910   1.826  28.245  1.00  0.00     0.174 C 
HETATM   45  C27 UNL     1      -6.840   1.702  29.287  1.00  0.00     0.034 C 
ENDBRANCH  43  44
ENDBRANCH  41  43
ENDBRANCH  13  41
BRANCH   3  46
HETATM   46  C7  UNL     1     -10.172   3.938  25.934  1.00  0.00     0.244 C 
HETATM   47  O4  UNL     1     -11.025   4.348  26.767  1.00  0.00    -0.644 OA
HETATM   48  O5  UNL     1     -10.226   2.612  25.573  1.00  0.00    -0.644 OA
ENDBRANCH   3  46
BRANCH  11  49
HETATM   49  C22 UNL     1      -4.573   4.615  27.527  1.00  0.00     0.299 C 
BRANCH  49  50
HETATM   50  C23 UNL     1      -4.276   3.193  27.214  1.00  0.00     0.194 C 
BRANCH  50  51
HETATM   51  O13 UNL     1      -3.722   3.168  25.914  1.00  0.00    -0.399 OA
ATOM     52  H13 UNL     1      -3.404   4.045  25.734  1.00  0.00     0.209 HD
ENDBRANCH  50  51
ENDBRANCH  49  50
ENDBRANCH  11  49
TORSDOF 18
ENDMDL
MODEL 3
REMARK VINA RESULT: -7.236442226      0.880      1.848
REMARK  18 active torsions:
REMARK  status: ('A' for Active; 'I' for Inactive)
REMARK    1  A    between atoms: C2_2  and  C3_3 
REMARK    2  A    between atoms: C3_3  and  C4_4 
REMARK    3  A    between atoms: C4_4  and  O2_6 
REMARK    4  A    between atoms: O2_6  and  C5_7 
REMARK    5  A    between atoms: C6_9  and  C7_10 
REMARK    6  A    between atoms: C8_14  and  O7_15 
REMARK    7  A    between atoms: C9_17  and  N1_18 
REMARK    8  A    between atoms: N1_18  and  C10_20 
REMARK    9  A    between atoms: C13_24  and  O9_25 
REMARK   10  A    between atoms: C14_27  and  O10_28 
REMARK   11  A    between atoms: N2_32  and  C16_33 
REMARK   12  A    between atoms: C18_35  and  O12_36 
REMARK   13  A    between atoms: N3_41  and  C22_42 
REMARK   14  A    between atoms: C22_42  and  C23_43 
REMARK   15  A    between atoms: C23_43  and  O13_44 
REMARK   16  A    between atoms: C24_47  and  C25_48 
REMARK   17  A    between atoms: C25_48  and  O15_50 
REMARK   18  A    between atoms: O15_50  and  C26_51 
ROOT
HETATM    1  C5  UNL     1      -8.791   7.047  25.207  1.00  0.00     0.292 C 
HETATM    2  O3  UNL     1      -8.929   6.002  26.095  1.00  0.00    -0.290 OA
HETATM    3  C6  UNL     1      -9.046   4.831  25.374  1.00  0.00     0.297 C 
HETATM    4  O6  UNL     1      -9.439   5.245  24.099  1.00  0.00    -0.294 OA
HETATM    5  C8  UNL     1      -8.577   6.357  23.927  1.00  0.00     0.279 C 
HETATM    6  C9  UNL     1      -7.210   5.797  23.645  1.00  0.00     0.097 C 
HETATM    7  C18 UNL     1      -6.608   4.965  24.730  1.00  0.00     0.169 C 
HETATM    8  C19 UNL     1      -5.742   5.595  25.710  1.00  0.00     0.283 C 
HETATM    9  C20 UNL     1      -5.984   6.930  26.260  1.00  0.00     0.118 C 
HETATM   10  C21 UNL     1      -6.242   6.301  27.634  1.00  0.00     0.290 C 
HETATM   11  N3  UNL     1      -5.725   5.093  27.084  1.00  0.00     0.101 N 
HETATM   12  S1  UNL     1      -7.255   7.927  25.613  1.00  0.00    -0.086 SA
HETATM   13  C24 UNL     1      -7.747   4.085  25.190  1.00  0.00     0.110 C 
ENDROOT
BRANCH   6  14
HETATM   14  N1  UNL     1      -6.346   6.718  22.955  1.00  0.00    -0.363 N 
ATOM     15  H1  UNL     1      -5.782   7.335  23.539  1.00  0.00     0.165 HD
BRANCH  14  16
HETATM   16  C10 UNL     1      -6.197   6.861  21.575  1.00  0.00     0.122 C 
HETATM   17  C11 UNL     1      -5.308   6.510  20.694  1.00  0.00     0.106 A 
HETATM   18  C12 UNL     1      -5.525   6.867  19.266  1.00  0.00     0.236 A 
HETATM   19  N2  UNL     1      -4.140   5.800  21.027  1.00  0.00    -0.308 N 
HETATM   20  O8  UNL     1      -6.553   7.498  18.930  1.00  0.00    -0.283 OA
HETATM   21  C13 UNL     1      -4.560   6.488  18.276  1.00  0.00     0.157 A 
HETATM   22  C14 UNL     1      -3.456   5.821  18.566  1.00  0.00     0.172 A 
HETATM   23  C15 UNL     1      -3.227   5.465  19.950  1.00  0.00     0.284 A 
HETATM   24  O11 UNL     1      -2.161   4.818  20.248  1.00  0.00    -0.265 OA
BRANCH  21  25
HETATM   25  O9  UNL     1      -4.732   6.808  16.917  1.00  0.00    -0.355 OA
ATOM     26  H9  UNL     1      -4.530   7.672  16.578  1.00  0.00     0.218 HD
ENDBRANCH  21  25
BRANCH  22  27
HETATM   27  O10 UNL     1      -2.521   5.454  17.612  1.00  0.00    -0.354 OA
ATOM     28  H10 UNL     1      -2.703   4.828  16.920  1.00  0.00     0.218 HD
ENDBRANCH  22  27
BRANCH  19  29
HETATM   29  C16 UNL     1      -3.751   5.362  22.353  1.00  0.00     0.128 C 
HETATM   30  C17 UNL     1      -2.652   6.216  22.959  1.00  0.00     0.027 C 
ENDBRANCH  19  29
ENDBRANCH  14  16
ENDBRANCH   6  14
BRANCH   5  31
HETATM   31  O7  UNL     1      -8.997   7.064  22.827  1.00  0.00    -0.356 OA
ATOM     32  H7  UNL     1      -9.725   7.651  22.995  1.00  0.00     0.213 HD
ENDBRANCH   5  31
BRANCH   7  33
HETATM   33  O12 UNL     1      -5.766   4.022  24.044  1.00  0.00    -0.376 OA
ATOM     34  H12 UNL     1      -5.304   3.562  24.736  1.00  0.00     0.211 HD
ENDBRANCH   7  33
BRANCH   1  35
HETATM   35  O2  UNL     1      -9.725   8.053  25.247  1.00  0.00    -0.267 OA
BRANCH  35  36
HETATM   36  C4  UNL     1     -11.073   8.028  25.215  1.00  0.00     0.262 C 
HETATM   37  O1  UNL     1     -11.628   8.155  24.121  1.00  0.00    -0.265 OA
BRANCH  36  38
HETATM   38  C3  UNL     1     -11.894   7.856  26.434  1.00  0.00     0.111 C 
BRANCH  38  39
HETATM   39  C2  UNL     1     -13.145   7.043  26.154  1.00  0.00     0.005 C 
HETATM   40  C1  UNL     1     -14.389   7.851  26.443  1.00  0.00     0.005 C 
ENDBRANCH  38  39
ENDBRANCH  36  38
ENDBRANCH  35  36
ENDBRANCH   1  35
BRANCH  13  41
HETATM   41  C25 UNL     1      -7.461   3.009  26.105  1.00  0.00     0.294 C 
HETATM   42  O14 UNL     1      -6.934   1.942  25.669  1.00  0.00    -0.260 OA
BRANCH  41  43
HETATM   43  O15 UNL     1      -7.696   2.979  27.479  1.00  0.00    -0.318 OA
BRANCH  43  44
HETATM   44  C26 UNL     1      -7.815   1.772  28.215  1.00  0.00     0.174 C 
HETATM   45  C27 UNL     1      -6.783   1.659  29.295  1.00  0.00     0.034 C 
ENDBRANCH  43  44
ENDBRANCH  41  43
ENDBRANCH  13  41
BRANCH   3  46
HETATM   46  C7  UNL     1     -10.031   3.882  25.887  1.00  0.00     0.244 C 
HETATM   47  O4  UNL     1     -10.893   4.277  26.718  1.00  0.00    -0.644 OA
HETATM   48  O5  UNL     1     -10.074   2.561  25.509  1.00  0.00    -0.644 OA
ENDBRANCH   3  46
BRANCH  11  49
HETATM   49  C22 UNL     1      -4.468   4.618  27.577  1.00  0.00     0.299 C 
BRANCH  49  50
HETATM   50  C23 UNL     1      -4.164   3.191  27.292  1.00  0.00     0.194 C 
BRANCH  50  51
HETATM   51  O13 UNL     1      -3.658   3.137  25.973  1.00  0.00    -0.399 OA
ATOM     52  H13 UNL     1      -4.407   3.174  25.390  1.00  0.00     0.209 HD
ENDBRANCH  50  51
ENDBRANCH  49  50
ENDBRANCH  11  49
TORSDOF 18
ENDMDL
MODEL 4
REMARK VINA RESULT: -7.062620097      1.803      2.784
REMARK  18 active torsions:
REMARK  status: ('A' for Active; 'I' for Inactive)
REMARK    1  A    between atoms: C2_2  and  C3_3 
REMARK    2  A    between atoms: C3_3  and  C4_4 
REMARK    3  A    between atoms: C4_4  and  O2_6 
REMARK    4  A    between atoms: O2_6  and  C5_7 
REMARK    5  A    between atoms: C6_9  and  C7_10 
REMARK    6  A    between atoms: C8_14  and  O7_15 
REMARK    7  A    between atoms: C9_17  and  N1_18 
REMARK    8  A    between atoms: N1_18  and  C10_20 
REMARK    9  A    between atoms: C13_24  and  O9_25 
REMARK   10  A    between atoms: C14_27  and  O10_28 
REMARK   11  A    between atoms: N2_32  and  C16_33 
REMARK   12  A    between atoms: C18_35  and  O12_36 
REMARK   13  A    between atoms: N3_41  and  C22_42 
REMARK   14  A    between atoms: C22_42  and  C23_43 
REMARK   15  A    between atoms: C23_43  and  O13_44 
REMARK   16  A    between atoms: C24_47  and  C25_48 
REMARK   17  A    between atoms: C25_48  and  O15_50 
REMARK   18  A    between atoms: O15_50  and  C26_51 
ROOT
HETATM    1  C5  UNL     1      -9.079   7.210  25.387  1.00  0.00     0.292 C 
HETATM    2  O3  UNL     1      -9.113   6.106  26.212  1.00  0.00    -0.290 OA
HETATM    3  C6  UNL     1      -9.232   4.979  25.426  1.00  0.00     0.297 C 
HETATM    4  O6  UNL     1      -9.728   5.454  24.209  1.00  0.00    -0.294 OA
HETATM    5  C8  UNL     1      -8.926   6.611  24.053  1.00  0.00     0.279 C 
HETATM    6  C9  UNL     1      -7.560   6.131  23.645  1.00  0.00     0.097 C 
HETATM    7  C18 UNL     1      -6.851   5.261  24.632  1.00  0.00     0.169 C 
HETATM    8  C19 UNL     1      -5.946   5.867  25.591  1.00  0.00     0.283 C 
HETATM    9  C20 UNL     1      -6.204   7.153  26.242  1.00  0.00     0.118 C 
HETATM   10  C21 UNL     1      -6.341   6.428  27.586  1.00  0.00     0.290 C 
HETATM   11  N3  UNL     1      -5.814   5.282  26.925  1.00  0.00     0.101 N 
HETATM   12  S1  UNL     1      -7.556   8.131  25.747  1.00  0.00    -0.086 SA
HETATM   13  C24 UNL     1      -7.920   4.304  25.108  1.00  0.00     0.110 C 
ENDROOT
BRANCH   6  14
HETATM   14  N1  UNL     1      -6.784   7.132  22.962  1.00  0.00    -0.363 N 
ATOM     15  H1  UNL     1      -5.797   7.189  23.211  1.00  0.00     0.165 HD
BRANCH  14  16
HETATM   16  C10 UNL     1      -7.235   8.032  21.996  1.00  0.00     0.122 C 
HETATM   17  C11 UNL     1      -7.183   8.109  20.698  1.00  0.00     0.106 A 
HETATM   18  C12 UNL     1      -7.807   9.276  20.018  1.00  0.00     0.236 A 
HETATM   19  N2  UNL     1      -6.563   7.132  19.899  1.00  0.00    -0.308 N 
HETATM   20  O8  UNL     1      -8.369  10.166  20.695  1.00  0.00    -0.283 OA
HETATM   21  C13 UNL     1      -7.766   9.381  18.589  1.00  0.00     0.157 A 
HETATM   22  C14 UNL     1      -7.189   8.475  17.818  1.00  0.00     0.172 A 
HETATM   23  C15 UNL     1      -6.575   7.333  18.462  1.00  0.00     0.284 A 
HETATM   24  O11 UNL     1      -6.011   6.445  17.728  1.00  0.00    -0.265 OA
BRANCH  21  25
HETATM   25  O9  UNL     1      -8.345  10.469  17.911  1.00  0.00    -0.355 OA
ATOM     26  H9  UNL     1      -8.423  10.483  16.965  1.00  0.00     0.218 HD
ENDBRANCH  21  25
BRANCH  22  27
HETATM   27  O10 UNL     1      -7.146   8.573  16.437  1.00  0.00    -0.354 OA
ATOM     28  H10 UNL     1      -7.623   7.988  15.860  1.00  0.00     0.218 HD
ENDBRANCH  22  27
BRANCH  19  29
HETATM   29  C16 UNL     1      -5.905   5.929  20.370  1.00  0.00     0.128 C 
HETATM   30  C17 UNL     1      -6.813   4.713  20.352  1.00  0.00     0.027 C 
ENDBRANCH  19  29
ENDBRANCH  14  16
ENDBRANCH   6  14
BRANCH   5  31
HETATM   31  O7  UNL     1      -9.449   7.366  23.032  1.00  0.00    -0.356 OA
ATOM     32  H7  UNL     1      -9.550   6.898  22.212  1.00  0.00     0.213 HD
ENDBRANCH   5  31
BRANCH   7  33
HETATM   33  O12 UNL     1      -6.022   4.401  23.832  1.00  0.00    -0.376 OA
ATOM     34  H12 UNL     1      -5.272   4.207  24.383  1.00  0.00     0.211 HD
ENDBRANCH   7  33
BRANCH   1  35
HETATM   35  O2  UNL     1     -10.048   8.168  25.554  1.00  0.00    -0.267 OA
BRANCH  35  36
HETATM   36  C4  UNL     1     -11.393   8.110  25.465  1.00  0.00     0.262 C 
HETATM   37  O1  UNL     1     -11.908   8.305  24.362  1.00  0.00    -0.265 OA
BRANCH  36  38
HETATM   38  C3  UNL     1     -12.255   7.826  26.633  1.00  0.00     0.111 C 
BRANCH  38  39
HETATM   39  C2  UNL     1     -13.510   7.075  26.230  1.00  0.00     0.005 C 
HETATM   40  C1  UNL     1     -14.745   7.905  26.495  1.00  0.00     0.005 C 
ENDBRANCH  38  39
ENDBRANCH  36  38
ENDBRANCH  35  36
ENDBRANCH   1  35
BRANCH  13  41
HETATM   41  C25 UNL     1      -7.528   3.187  25.930  1.00  0.00     0.294 C 
HETATM   42  O14 UNL     1      -6.988   2.175  25.390  1.00  0.00    -0.260 OA
BRANCH  41  43
HETATM   43  O15 UNL     1      -7.668   3.060  27.310  1.00  0.00    -0.318 OA
BRANCH  43  44
HETATM   44  C26 UNL     1      -7.749   1.804  27.966  1.00  0.00     0.174 C 
HETATM   45  C27 UNL     1      -6.826   1.715  29.143  1.00  0.00     0.034 C 
ENDBRANCH  43  44
ENDBRANCH  41  43
ENDBRANCH  13  41
BRANCH   3  46
HETATM   46  C7  UNL     1     -10.140   3.956  25.939  1.00  0.00     0.244 C 
HETATM   47  O4  UNL     1     -10.990   4.270  26.816  1.00  0.00    -0.644 OA
HETATM   48  O5  UNL     1     -10.122   2.648  25.514  1.00  0.00    -0.644 OA
ENDBRANCH   3  46
BRANCH  11  49
HETATM   49  C22 UNL     1      -4.508   4.833  27.302  1.00  0.00     0.299 C 
BRANCH  49  50
HETATM   50  C23 UNL     1      -4.261   3.375  27.154  1.00  0.00     0.194 C 
BRANCH  50  51
HETATM   51  O13 UNL     1      -3.976   3.146  25.788  1.00  0.00    -0.399 OA
ATOM     52  H13 UNL     1      -3.599   2.276  25.729  1.00  0.00     0.209 HD
ENDBRANCH  50  51
ENDBRANCH  49  50
ENDBRANCH  11  49
TORSDOF 18
ENDMDL
MODEL 5
REMARK VINA RESULT: -7.040105238      2.564      9.210
REMARK  18 active torsions:
REMARK  status: ('A' for Active; 'I' for Inactive)
REMARK    1  A    between atoms: C2_2  and  C3_3 
REMARK    2  A    between atoms: C3_3  and  C4_4 
REMARK    3  A    between atoms: C4_4  and  O2_6 
REMARK    4  A    between atoms: O2_6  and  C5_7 
REMARK    5  A    between atoms: C6_9  and  C7_10 
REMARK    6  A    between atoms: C8_14  and  O7_15 
REMARK    7  A    between atoms: C9_17  and  N1_18 
REMARK    8  A    between atoms: N1_18  and  C10_20 
REMARK    9  A    between atoms: C13_24  and  O9_25 
REMARK   10  A    between atoms: C14_27  and  O10_28 
REMARK   11  A    between atoms: N2_32  and  C16_33 
REMARK   12  A    between atoms: C18_35  and  O12_36 
REMARK   13  A    between atoms: N3_41  and  C22_42 
REMARK   14  A    between atoms: C22_42  and  C23_43 
REMARK   15  A    between atoms: C23_43  and  O13_44 
REMARK   16  A    between atoms: C24_47  and  C25_48 
REMARK   17  A    between atoms: C25_48  and  O15_50 
REMARK   18  A    between atoms: O15_50  and  C26_51 
ROOT
HETATM    1  C5  UNL     1      -3.160   6.497  20.431  1.00  0.00     0.292 C 
HETATM    2  O3  UNL     1      -3.358   6.243  19.091  1.00  0.00    -0.290 OA
HETATM    3  C6  UNL     1      -3.610   4.896  18.935  1.00  0.00     0.297 C 
HETATM    4  O6  UNL     1      -3.103   4.311  20.098  1.00  0.00    -0.294 OA
HETATM    5  C8  UNL     1      -3.574   5.236  21.062  1.00  0.00     0.279 C 
HETATM    6  C9  UNL     1      -5.047   4.974  21.221  1.00  0.00     0.097 C 
HETATM    7  C18 UNL     1      -5.882   5.181  19.999  1.00  0.00     0.169 C 
HETATM    8  C19 UNL     1      -6.511   6.471  19.780  1.00  0.00     0.283 C 
HETATM    9  C20 UNL     1      -5.866   7.747  20.094  1.00  0.00     0.118 C 
HETATM   10  C21 UNL     1      -5.822   8.077  18.598  1.00  0.00     0.290 C 
HETATM   11  N3  UNL     1      -6.689   6.961  18.413  1.00  0.00     0.101 N 
HETATM   12  S1  UNL     1      -4.345   7.775  20.940  1.00  0.00    -0.086 SA
HETATM   13  C24 UNL     1      -5.075   4.541  18.893  1.00  0.00     0.110 C 
ENDROOT
BRANCH   6  14
HETATM   14  N1  UNL     1      -5.576   5.436  22.476  1.00  0.00    -0.363 N 
ATOM     15  H1  UNL     1      -5.484   6.433  22.669  1.00  0.00     0.165 HD
BRANCH  14  16
HETATM   16  C10 UNL     1      -6.203   4.669  23.459  1.00  0.00     0.122 C 
HETATM   17  C11 UNL     1      -7.034   4.901  24.432  1.00  0.00     0.106 A 
HETATM   18  C12 UNL     1      -7.479   3.767  25.288  1.00  0.00     0.236 A 
HETATM   19  N2  UNL     1      -7.540   6.182  24.717  1.00  0.00    -0.308 N 
HETATM   20  O8  UNL     1      -7.051   2.612  25.066  1.00  0.00    -0.283 OA
HETATM   21  C13 UNL     1      -8.397   3.998  26.365  1.00  0.00     0.157 A 
HETATM   22  C14 UNL     1      -8.885   5.194  26.651  1.00  0.00     0.172 A 
HETATM   23  C15 UNL     1      -8.463   6.308  25.829  1.00  0.00     0.284 A 
HETATM   24  O11 UNL     1      -8.926   7.474  26.093  1.00  0.00    -0.265 OA
BRANCH  21  25
HETATM   25  O9  UNL     1      -8.840   2.952  27.195  1.00  0.00    -0.355 OA
ATOM     26  H9  UNL     1      -9.375   3.116  27.962  1.00  0.00     0.218 HD
ENDBRANCH  21  25
BRANCH  22  27
HETATM   27  O10 UNL     1      -9.771   5.421  27.691  1.00  0.00    -0.354 OA
ATOM     28  H10 UNL     1     -10.655   5.742  27.559  1.00  0.00     0.218 HD
ENDBRANCH  22  27
BRANCH  19  29
HETATM   29  C16 UNL     1      -7.230   7.405  24.002  1.00  0.00     0.128 C 
HETATM   30  C17 UNL     1      -8.256   7.743  22.936  1.00  0.00     0.027 C 
ENDBRANCH  19  29
ENDBRANCH  14  16
ENDBRANCH   6  14
BRANCH   5  31
HETATM   31  O7  UNL     1      -2.950   4.972  22.257  1.00  0.00    -0.356 OA
ATOM     32  H7  UNL     1      -3.233   4.168  22.676  1.00  0.00     0.213 HD
ENDBRANCH   5  31
BRANCH   7  33
HETATM   33  O12 UNL     1      -6.974   4.256  20.141  1.00  0.00    -0.376 OA
ATOM     34  H12 UNL     1      -6.779   3.556  19.528  1.00  0.00     0.211 HD
ENDBRANCH   7  33
BRANCH   1  35
HETATM   35  O2  UNL     1      -1.958   7.043  20.811  1.00  0.00    -0.267 OA
BRANCH  35  36
HETATM   36  C4  UNL     1      -0.691   6.777  20.433  1.00  0.00     0.262 C 
HETATM   37  O1  UNL     1      -0.344   5.596  20.365  1.00  0.00    -0.265 OA
BRANCH  36  38
HETATM   38  C3  UNL     1       0.280   7.843  20.102  1.00  0.00     0.111 C 
BRANCH  38  39
HETATM   39  C2  UNL     1       1.695   7.301  20.015  1.00  0.00     0.005 C 
HETATM   40  C1  UNL     1       2.501   7.698  21.230  1.00  0.00     0.005 C 
ENDBRANCH  38  39
ENDBRANCH  36  38
ENDBRANCH  35  36
ENDBRANCH   1  35
BRANCH  13  41
HETATM   41  C25 UNL     1      -5.687   4.383  17.597  1.00  0.00     0.294 C 
HETATM   42  O14 UNL     1      -5.367   5.170  16.657  1.00  0.00    -0.260 OA
BRANCH  41  43
HETATM   43  O15 UNL     1      -6.632   3.433  17.216  1.00  0.00    -0.318 OA
BRANCH  43  44
HETATM   44  C26 UNL     1      -6.281   2.168  16.678  1.00  0.00     0.174 C 
HETATM   45  C27 UNL     1      -5.902   1.182  17.740  1.00  0.00     0.034 C 
ENDBRANCH  43  44
ENDBRANCH  41  43
ENDBRANCH  13  41
BRANCH   3  46
HETATM   46  C7  UNL     1      -2.972   4.274  17.778  1.00  0.00     0.244 C 
HETATM   47  O4  UNL     1      -2.399   5.003  16.923  1.00  0.00    -0.644 OA
HETATM   48  O5  UNL     1      -2.960   2.916  17.561  1.00  0.00    -0.644 OA
ENDBRANCH   3  46
BRANCH  11  49
HETATM   49  C22 UNL     1      -8.034   7.220  17.995  1.00  0.00     0.299 C 
BRANCH  49  50
HETATM   50  C23 UNL     1      -8.632   6.205  17.090  1.00  0.00     0.194 C 
BRANCH  50  51
HETATM   51  O13 UNL     1      -9.160   5.184  17.915  1.00  0.00    -0.399 OA
ATOM     52  H13 UNL     1      -9.290   5.566  18.774  1.00  0.00     0.209 HD
ENDBRANCH  50  51
ENDBRANCH  49  50
ENDBRANCH  11  49
TORSDOF 18
ENDMDL
