MODEL 1
REMARK VINA RESULT: -5.787915240      0.000      0.000
REMARK  23 active torsions:
REMARK  status: ('A' for Active; 'I' for Inactive)
REMARK    1  A    between atoms: O1_2  and  C2_3 
REMARK    2  A    between atoms: C2_3  and  C3_5 
REMARK    3  A    between atoms: C5_8  and  O4_9 
REMARK    4  A    between atoms: C6_11  and  O5_12 
REMARK    5  A    between atoms: C7_14  and  O6_15 
REMARK    6  A    between atoms: C8_17  and  O7_18 
REMARK    7  A    between atoms: C10_21  and  C11_22 
REMARK    8  A    between atoms: C11_22  and  O8_23 
REMARK    9  A    between atoms: O8_23  and  C12_24 
REMARK   10  A    between atoms: C15_28  and  O10_29 
REMARK   11  A    between atoms: C15_28  and  C17_33 
REMARK   12  A    between atoms: O10_29  and  C16_30 
REMARK   13  A    between atoms: C17_33  and  O12_34 
REMARK   14  A    between atoms: C17_33  and  C18_36 
REMARK   15  A    between atoms: C20_38  and  O13_39 
REMARK   16  A    between atoms: C21_41  and  O14_43 
REMARK   17  A    between atoms: C23_45  and  O15_46 
REMARK   18  A    between atoms: O15_46  and  C24_47 
REMARK   19  A    between atoms: C24_47  and  C25_49 
REMARK   20  A    between atoms: C25_49  and  C26_50 
REMARK   21  A    between atoms: N2_51  and  C27_53 
REMARK   22  A    between atoms: C27_53  and  C28_54 
REMARK   23  A    between atoms: C28_54  and  O17_55 
ROOT
HETATM    1  C3  UNL     1      -6.079   5.353  19.221  1.00  0.00     0.166 C 
HETATM    2  C4  UNL     1      -6.740   5.357  20.535  1.00  0.00     0.184 C 
HETATM    3  O3  UNL     1      -7.912   4.954  20.625  1.00  0.00    -0.293 OA
HETATM    4  C5  UNL     1      -6.084   5.815  21.782  1.00  0.00     0.199 C 
HETATM    5  C6  UNL     1      -6.714   6.940  22.455  1.00  0.00     0.124 C 
HETATM    6  C7  UNL     1      -7.689   7.904  22.021  1.00  0.00     0.127 C 
HETATM    7  C8  UNL     1      -7.715   8.883  20.959  1.00  0.00     0.079 C 
HETATM    8  C9  UNL     1      -7.037   8.868  19.640  1.00  0.00     0.074 C 
HETATM    9  C10 UNL     1      -6.743   7.596  18.999  1.00  0.00     0.025 C 
HETATM   10  C14 UNL     1      -5.548   6.788  18.979  1.00  0.00     0.054 C 
HETATM   11  C15 UNL     1      -4.187   7.001  19.492  1.00  0.00     0.140 C 
HETATM   12  C21 UNL     1      -3.759   5.921  20.546  1.00  0.00     0.119 C 
HETATM   13  C22 UNL     1      -3.012   4.717  20.097  1.00  0.00     0.052 C 
HETATM   14  C23 UNL     1      -4.631   5.664  21.696  1.00  0.00     0.217 C 
ENDROOT
BRANCH  11  15
HETATM   15  O10 UNL     1      -3.655   8.169  19.820  1.00  0.00    -0.288 OA
BRANCH  15  16
HETATM   16  C16 UNL     1      -3.443   9.426  19.866  1.00  0.00     0.373 C 
HETATM   17  N1  UNL     1      -2.695  10.360  19.122  1.00  0.00    -0.032 NA
HETATM   18  O11 UNL     1      -4.081   9.897  20.827  1.00  0.00    -0.242 OA
ENDBRANCH  15  16
ENDBRANCH  11  15
BRANCH  11  19
HETATM   19  C17 UNL     1      -3.164   6.679  18.391  1.00  0.00     0.187 C 
BRANCH  19  20
HETATM   20  O12 UNL     1      -1.953   7.295  18.657  1.00  0.00    -0.388 OA
ATOM     21  H12 UNL     1      -1.944   8.178  18.307  1.00  0.00     0.210 HD
ENDBRANCH  19  20
BRANCH  19  22
HETATM   22  C18 UNL     1      -3.456   6.956  17.003  1.00  0.00    -0.031 C 
HETATM   23  C19 UNL     1      -3.632   8.203  16.259  1.00  0.00     0.048 C 
HETATM   24  C20 UNL     1      -3.586   5.907  16.212  1.00  0.00     0.136 C 
BRANCH  24  25
HETATM   25  O13 UNL     1      -3.474   4.600  16.567  1.00  0.00    -0.372 OA
ATOM     26  H13 UNL     1      -3.129   3.892  16.035  1.00  0.00     0.216 HD
ENDBRANCH  24  25
ENDBRANCH  19  22
ENDBRANCH  11  19
BRANCH  12  27
HETATM   27  O14 UNL     1      -2.648   6.616  21.177  1.00  0.00    -0.384 OA
ATOM     28  H14 UNL     1      -3.126   7.189  21.763  1.00  0.00     0.210 HD
ENDBRANCH  12  27
BRANCH   1  29
HETATM   29  C2  UNL     1      -6.952   4.830  18.151  1.00  0.00     0.270 C 
HETATM   30  O2  UNL     1      -8.155   4.558  18.406  1.00  0.00    -0.264 OA
BRANCH  29  31
HETATM   31  O1  UNL     1      -6.570   4.598  16.849  1.00  0.00    -0.326 OA
HETATM   32  C1  UNL     1      -6.800   3.370  16.243  1.00  0.00     0.213 C 
ENDBRANCH  29  31
ENDBRANCH   1  29
BRANCH   9  33
HETATM   33  C11 UNL     1      -7.269   7.824  17.532  1.00  0.00     0.184 C 
BRANCH  33  34
HETATM   34  O8  UNL     1      -8.633   7.661  17.454  1.00  0.00    -0.321 OA
BRANCH  34  35
HETATM   35  C12 UNL     1      -9.233   7.268  16.298  1.00  0.00     0.254 C 
HETATM   36  C13 UNL     1      -8.525   6.978  15.028  1.00  0.00     0.126 C 
HETATM   37  O9  UNL     1     -10.498   7.138  16.306  1.00  0.00    -0.266 OA
ENDBRANCH  34  35
ENDBRANCH  33  34
ENDBRANCH   9  33
BRANCH  14  38
HETATM   38  O15 UNL     1      -3.956   5.864  22.943  1.00  0.00    -0.309 OA
BRANCH  38  39
HETATM   39  C24 UNL     1      -3.599   5.007  23.884  1.00  0.00     0.264 C 
HETATM   40  O16 UNL     1      -3.389   3.858  23.486  1.00  0.00    -0.265 OA
BRANCH  39  41
HETATM   41  C25 UNL     1      -3.456   5.366  25.301  1.00  0.00     0.155 C 
BRANCH  41  42
HETATM   42  C26 UNL     1      -4.651   5.050  26.119  1.00  0.00     0.070 C 
HETATM   43  N2  UNL     1      -5.671   4.604  25.516  1.00  0.00    -0.380 N 
ATOM     44  H2  UNL     1      -5.578   4.502  24.505  1.00  0.00     0.164 HD
BRANCH  43  45
HETATM   45  C27 UNL     1      -6.917   4.232  26.056  1.00  0.00     0.086 C 
BRANCH  45  46
HETATM   46  C28 UNL     1      -6.963   2.762  26.435  1.00  0.00     0.208 C 
BRANCH  46  47
HETATM   47  O17 UNL     1      -6.688   1.950  25.339  1.00  0.00    -0.396 OA
ATOM     48  H17 UNL     1      -6.262   1.144  25.607  1.00  0.00     0.209 HD
ENDBRANCH  46  47
ENDBRANCH  45  46
ENDBRANCH  43  45
ENDBRANCH  41  42
ENDBRANCH  39  41
ENDBRANCH  38  39
ENDBRANCH  14  38
BRANCH   4  49
HETATM   49  O4  UNL     1      -6.487   4.703  22.647  1.00  0.00    -0.373 OA
ATOM     50  H4  UNL     1      -7.394   4.956  22.774  1.00  0.00     0.211 HD
ENDBRANCH   4  49
BRANCH   7  51
HETATM   51  O7  UNL     1      -8.428   9.986  21.108  1.00  0.00    -0.362 OA
ATOM     52  H7  UNL     1      -7.994  10.831  21.078  1.00  0.00     0.217 HD
ENDBRANCH   7  51
BRANCH   5  53
HETATM   53  O5  UNL     1      -6.317   7.091  23.689  1.00  0.00    -0.359 OA
ATOM     54  H5  UNL     1      -6.818   6.577  24.310  1.00  0.00     0.217 HD
ENDBRANCH   5  53
BRANCH   6  55
HETATM   55  O6  UNL     1      -8.821   7.962  22.688  1.00  0.00    -0.356 OA
ATOM     56  H6  UNL     1      -9.511   7.362  22.430  1.00  0.00     0.218 HD
ENDBRANCH   6  55
TORSDOF 23
ENDMDL
MODEL 2
REMARK VINA RESULT: -5.690261004      2.132      5.697
REMARK  23 active torsions:
REMARK  status: ('A' for Active; 'I' for Inactive)
REMARK    1  A    between atoms: O1_2  and  C2_3 
REMARK    2  A    between atoms: C2_3  and  C3_5 
REMARK    3  A    between atoms: C5_8  and  O4_9 
REMARK    4  A    between atoms: C6_11  and  O5_12 
REMARK    5  A    between atoms: C7_14  and  O6_15 
REMARK    6  A    between atoms: C8_17  and  O7_18 
REMARK    7  A    between atoms: C10_21  and  C11_22 
REMARK    8  A    between atoms: C11_22  and  O8_23 
REMARK    9  A    between atoms: O8_23  and  C12_24 
REMARK   10  A    between atoms: C15_28  and  O10_29 
REMARK   11  A    between atoms: C15_28  and  C17_33 
REMARK   12  A    between atoms: O10_29  and  C16_30 
REMARK   13  A    between atoms: C17_33  and  O12_34 
REMARK   14  A    between atoms: C17_33  and  C18_36 
REMARK   15  A    between atoms: C20_38  and  O13_39 
REMARK   16  A    between atoms: C21_41  and  O14_43 
REMARK   17  A    between atoms: C23_45  and  O15_46 
REMARK   18  A    between atoms: O15_46  and  C24_47 
REMARK   19  A    between atoms: C24_47  and  C25_49 
REMARK   20  A    between atoms: C25_49  and  C26_50 
REMARK   21  A    between atoms: N2_51  and  C27_53 
REMARK   22  A    between atoms: C27_53  and  C28_54 
REMARK   23  A    between atoms: C28_54  and  O17_55 
ROOT
HETATM    1  C3  UNL     1      -4.625   8.623  18.848  1.00  0.00     0.166 C 
HETATM    2  C4  UNL     1      -3.759   7.899  19.792  1.00  0.00     0.184 C 
HETATM    3  O3  UNL     1      -2.583   8.270  19.940  1.00  0.00    -0.293 OA
HETATM    4  C5  UNL     1      -4.210   6.738  20.593  1.00  0.00     0.199 C 
HETATM    5  C6  UNL     1      -3.493   5.493  20.364  1.00  0.00     0.124 C 
HETATM    6  C7  UNL     1      -2.616   5.061  19.310  1.00  0.00     0.127 C 
HETATM    7  C8  UNL     1      -2.777   4.907  17.882  1.00  0.00     0.079 C 
HETATM    8  C9  UNL     1      -3.660   5.641  16.944  1.00  0.00     0.074 C 
HETATM    9  C10 UNL     1      -4.037   7.015  17.240  1.00  0.00     0.025 C 
HETATM   10  C14 UNL     1      -5.208   7.570  17.872  1.00  0.00     0.054 C 
HETATM   11  C15 UNL     1      -6.470   6.979  18.339  1.00  0.00     0.140 C 
HETATM   12  C21 UNL     1      -6.706   7.184  19.876  1.00  0.00     0.119 C 
HETATM   13  C22 UNL     1      -7.499   8.350  20.346  1.00  0.00     0.052 C 
HETATM   14  C23 UNL     1      -5.654   6.784  20.817  1.00  0.00     0.217 C 
ENDROOT
BRANCH  11  15
HETATM   15  O10 UNL     1      -6.958   5.802  17.973  1.00  0.00    -0.288 OA
BRANCH  15  16
HETATM   16  C16 UNL     1      -7.201   4.764  17.274  1.00  0.00     0.373 C 
HETATM   17  N1  UNL     1      -6.759   4.239  16.044  1.00  0.00    -0.032 NA
HETATM   18  O11 UNL     1      -8.048   4.075  17.876  1.00  0.00    -0.242 OA
ENDBRANCH  15  16
ENDBRANCH  11  15
BRANCH  11  19
HETATM   19  C17 UNL     1      -7.654   7.800  17.804  1.00  0.00     0.187 C 
BRANCH  19  20
HETATM   20  O12 UNL     1      -8.814   7.044  17.812  1.00  0.00    -0.388 OA
ATOM     21  H12 UNL     1      -9.366   7.272  17.074  1.00  0.00     0.210 HD
ENDBRANCH  19  20
BRANCH  19  22
HETATM   22  C18 UNL     1      -7.595   8.426  16.503  1.00  0.00    -0.031 C 
HETATM   23  C19 UNL     1      -7.544   7.884  15.146  1.00  0.00     0.048 C 
HETATM   24  C20 UNL     1      -7.597   9.747  16.489  1.00  0.00     0.136 C 
BRANCH  24  25
HETATM   25  O13 UNL     1      -7.649  10.573  17.567  1.00  0.00    -0.372 OA
ATOM     26  H13 UNL     1      -7.206  11.408  17.667  1.00  0.00     0.216 HD
ENDBRANCH  24  25
ENDBRANCH  19  22
ENDBRANCH  11  19
BRANCH  12  27
HETATM   27  O14 UNL     1      -7.709   6.157  20.113  1.00  0.00    -0.384 OA
ATOM     28  H14 UNL     1      -8.233   6.257  19.328  1.00  0.00     0.210 HD
ENDBRANCH  12  27
BRANCH   1  29
HETATM   29  C2  UNL     1      -3.931   9.751  18.195  1.00  0.00     0.270 C 
HETATM   30  O2  UNL     1      -4.592  10.580  17.515  1.00  0.00    -0.264 OA
BRANCH  29  31
HETATM   31  O1  UNL     1      -2.578  10.001  18.255  1.00  0.00    -0.326 OA
HETATM   32  C1  UNL     1      -2.070  11.263  17.980  1.00  0.00     0.213 C 
ENDBRANCH  29  31
ENDBRANCH   1  29
BRANCH   9  33
HETATM   33  C11 UNL     1      -3.760   7.745  15.872  1.00  0.00     0.184 C 
BRANCH  33  34
HETATM   34  O8  UNL     1      -2.486   7.494  15.415  1.00  0.00    -0.321 OA
BRANCH  34  35
HETATM   35  C12 UNL     1      -1.532   8.465  15.415  1.00  0.00     0.254 C 
HETATM   36  C13 UNL     1      -1.589   9.713  14.619  1.00  0.00     0.126 C 
HETATM   37  O9  UNL     1      -0.512   8.287  16.154  1.00  0.00    -0.266 OA
ENDBRANCH  34  35
ENDBRANCH  33  34
ENDBRANCH   9  33
BRANCH  14  38
HETATM   38  O15 UNL     1      -6.121   5.828  21.775  1.00  0.00    -0.309 OA
BRANCH  38  39
HETATM   39  C24 UNL     1      -6.388   5.949  23.064  1.00  0.00     0.264 C 
HETATM   40  O16 UNL     1      -6.421   7.112  23.478  1.00  0.00    -0.265 OA
BRANCH  39  41
HETATM   41  C25 UNL     1      -6.631   4.810  23.957  1.00  0.00     0.155 C 
BRANCH  41  42
HETATM   42  C26 UNL     1      -5.394   4.236  24.541  1.00  0.00     0.070 C 
HETATM   43  N2  UNL     1      -4.296   4.796  24.248  1.00  0.00    -0.380 N 
ATOM     44  H2  UNL     1      -4.361   5.603  23.628  1.00  0.00     0.164 HD
BRANCH  43  45
HETATM   45  C27 UNL     1      -2.996   4.450  24.667  1.00  0.00     0.086 C 
BRANCH  45  46
HETATM   46  C28 UNL     1      -2.019   5.603  24.518  1.00  0.00     0.208 C 
BRANCH  46  47
HETATM   47  O17 UNL     1      -1.591   5.735  23.201  1.00  0.00    -0.396 OA
ATOM     48  H17 UNL     1      -0.715   6.099  23.158  1.00  0.00     0.209 HD
ENDBRANCH  46  47
ENDBRANCH  45  46
ENDBRANCH  43  45
ENDBRANCH  41  42
ENDBRANCH  39  41
ENDBRANCH  38  39
ENDBRANCH  14  38
BRANCH   4  49
HETATM   49  O4  UNL     1      -3.655   7.152  21.885  1.00  0.00    -0.373 OA
ATOM     50  H4  UNL     1      -4.474   7.358  22.320  1.00  0.00     0.211 HD
ENDBRANCH   4  49
BRANCH   7  51
HETATM   51  O7  UNL     1      -2.065   3.997  17.242  1.00  0.00    -0.362 OA
ATOM     52  H7  UNL     1      -2.308   3.749  16.358  1.00  0.00     0.217 HD
ENDBRANCH   7  51
BRANCH   5  53
HETATM   53  O5  UNL     1      -3.687   4.607  21.303  1.00  0.00    -0.359 OA
ATOM     54  H5  UNL     1      -2.950   4.020  21.422  1.00  0.00     0.217 HD
ENDBRANCH   5  53
BRANCH   6  55
HETATM   55  O6  UNL     1      -1.392   4.718  19.644  1.00  0.00    -0.356 OA
ATOM     56  H6  UNL     1      -1.263   3.843  19.993  1.00  0.00     0.218 HD
ENDBRANCH   6  55
TORSDOF 23
ENDMDL
MODEL 3
REMARK VINA RESULT: -5.607643962      2.283      5.586
REMARK  23 active torsions:
REMARK  status: ('A' for Active; 'I' for Inactive)
REMARK    1  A    between atoms: O1_2  and  C2_3 
REMARK    2  A    between atoms: C2_3  and  C3_5 
REMARK    3  A    between atoms: C5_8  and  O4_9 
REMARK    4  A    between atoms: C6_11  and  O5_12 
REMARK    5  A    between atoms: C7_14  and  O6_15 
REMARK    6  A    between atoms: C8_17  and  O7_18 
REMARK    7  A    between atoms: C10_21  and  C11_22 
REMARK    8  A    between atoms: C11_22  and  O8_23 
REMARK    9  A    between atoms: O8_23  and  C12_24 
REMARK   10  A    between atoms: C15_28  and  O10_29 
REMARK   11  A    between atoms: C15_28  and  C17_33 
REMARK   12  A    between atoms: O10_29  and  C16_30 
REMARK   13  A    between atoms: C17_33  and  O12_34 
REMARK   14  A    between atoms: C17_33  and  C18_36 
REMARK   15  A    between atoms: C20_38  and  O13_39 
REMARK   16  A    between atoms: C21_41  and  O14_43 
REMARK   17  A    between atoms: C23_45  and  O15_46 
REMARK   18  A    between atoms: O15_46  and  C24_47 
REMARK   19  A    between atoms: C24_47  and  C25_49 
REMARK   20  A    between atoms: C25_49  and  C26_50 
REMARK   21  A    between atoms: N2_51  and  C27_53 
REMARK   22  A    between atoms: C27_53  and  C28_54 
REMARK   23  A    between atoms: C28_54  and  O17_55 
ROOT
HETATM    1  C3  UNL     1      -4.617   8.458  19.464  1.00  0.00     0.166 C 
HETATM    2  C4  UNL     1      -3.648   7.713  20.281  1.00  0.00     0.184 C 
HETATM    3  O3  UNL     1      -2.474   8.114  20.344  1.00  0.00    -0.293 OA
HETATM    4  C5  UNL     1      -3.990   6.494  21.050  1.00  0.00     0.199 C 
HETATM    5  C6  UNL     1      -3.264   5.288  20.685  1.00  0.00     0.124 C 
HETATM    6  C7  UNL     1      -2.476   4.945  19.532  1.00  0.00     0.127 C 
HETATM    7  C8  UNL     1      -2.764   4.865  18.119  1.00  0.00     0.079 C 
HETATM    8  C9  UNL     1      -3.750   5.621  17.309  1.00  0.00     0.074 C 
HETATM    9  C10 UNL     1      -4.136   6.963  17.717  1.00  0.00     0.025 C 
HETATM   10  C14 UNL     1      -5.259   7.443  18.485  1.00  0.00     0.054 C 
HETATM   11  C15 UNL     1      -6.455   6.785  19.029  1.00  0.00     0.140 C 
HETATM   12  C21 UNL     1      -6.553   6.896  20.590  1.00  0.00     0.119 C 
HETATM   13  C22 UNL     1      -7.332   8.007  21.197  1.00  0.00     0.052 C 
HETATM   14  C23 UNL     1      -5.409   6.480  21.407  1.00  0.00     0.217 C 
ENDROOT
BRANCH  11  15
HETATM   15  O10 UNL     1      -6.942   5.615  18.641  1.00  0.00    -0.288 OA
BRANCH  15  16
HETATM   16  C16 UNL     1      -7.050   4.359  18.449  1.00  0.00     0.373 C 
HETATM   17  N1  UNL     1      -7.088   3.206  19.258  1.00  0.00    -0.032 NA
HETATM   18  O11 UNL     1      -7.142   4.156  17.223  1.00  0.00    -0.242 OA
ENDBRANCH  15  16
ENDBRANCH  11  15
BRANCH  11  19
HETATM   19  C17 UNL     1      -7.706   7.595  18.652  1.00  0.00     0.187 C 
BRANCH  19  20
HETATM   20  O12 UNL     1      -8.765   6.751  18.366  1.00  0.00    -0.388 OA
ATOM     21  H12 UNL     1      -8.923   6.720  17.430  1.00  0.00     0.210 HD
ENDBRANCH  19  20
BRANCH  19  22
HETATM   22  C18 UNL     1      -7.668   8.564  17.581  1.00  0.00    -0.031 C 
HETATM   23  C19 UNL     1      -7.678  10.027  17.569  1.00  0.00     0.048 C 
HETATM   24  C20 UNL     1      -7.601   8.078  16.355  1.00  0.00     0.136 C 
BRANCH  24  25
HETATM   25  O13 UNL     1      -7.563   6.767  16.000  1.00  0.00    -0.372 OA
ATOM     26  H13 UNL     1      -7.164   6.399  15.220  1.00  0.00     0.216 HD
ENDBRANCH  24  25
ENDBRANCH  19  22
ENDBRANCH  11  19
BRANCH  12  27
HETATM   27  O14 UNL     1      -7.501   5.825  20.857  1.00  0.00    -0.384 OA
ATOM     28  H14 UNL     1      -8.046   6.248  21.510  1.00  0.00     0.210 HD
ENDBRANCH  12  27
BRANCH   1  29
HETATM   29  C2  UNL     1      -4.018   9.644  18.818  1.00  0.00     0.270 C 
HETATM   30  O2  UNL     1      -4.766  10.549  18.362  1.00  0.00    -0.264 OA
BRANCH  29  31
HETATM   31  O1  UNL     1      -2.670   9.870  18.655  1.00  0.00    -0.326 OA
HETATM   32  C1  UNL     1      -2.202  11.078  18.154  1.00  0.00     0.213 C 
ENDBRANCH  29  31
ENDBRANCH   1  29
BRANCH   9  33
HETATM   33  C11 UNL     1      -4.007   7.777  16.375  1.00  0.00     0.184 C 
BRANCH  33  34
HETATM   34  O8  UNL     1      -2.856   7.450  15.696  1.00  0.00    -0.321 OA
BRANCH  34  35
HETATM   35  C12 UNL     1      -1.770   8.271  15.711  1.00  0.00     0.254 C 
HETATM   36  C13 UNL     1      -1.558   9.418  14.798  1.00  0.00     0.126 C 
HETATM   37  O9  UNL     1      -0.867   8.034  16.575  1.00  0.00    -0.266 OA
ENDBRANCH  34  35
ENDBRANCH  33  34
ENDBRANCH   9  33
BRANCH  14  38
HETATM   38  O15 UNL     1      -5.758   5.457  22.346  1.00  0.00    -0.309 OA
BRANCH  38  39
HETATM   39  C24 UNL     1      -5.957   5.508  23.652  1.00  0.00     0.264 C 
HETATM   40  O16 UNL     1      -5.244   6.317  24.253  1.00  0.00    -0.265 OA
BRANCH  39  41
HETATM   41  C25 UNL     1      -6.941   4.679  24.359  1.00  0.00     0.155 C 
BRANCH  41  42
HETATM   42  C26 UNL     1      -8.201   5.393  24.679  1.00  0.00     0.070 C 
HETATM   43  N2  UNL     1      -8.506   6.390  23.962  1.00  0.00    -0.380 N 
ATOM     44  H2  UNL     1      -7.848   6.617  23.216  1.00  0.00     0.164 HD
BRANCH  43  45
HETATM   45  C27 UNL     1      -9.634   7.228  24.057  1.00  0.00     0.086 C 
BRANCH  45  46
HETATM   46  C28 UNL     1     -10.931   6.439  24.124  1.00  0.00     0.208 C 
BRANCH  46  47
HETATM   47  O17 UNL     1     -11.949   7.081  23.427  1.00  0.00    -0.396 OA
ATOM     48  H17 UNL     1     -12.758   6.586  23.466  1.00  0.00     0.209 HD
ENDBRANCH  46  47
ENDBRANCH  45  46
ENDBRANCH  43  45
ENDBRANCH  41  42
ENDBRANCH  39  41
ENDBRANCH  38  39
ENDBRANCH  14  38
BRANCH   4  49
HETATM   49  O4  UNL     1      -3.331   6.854  22.309  1.00  0.00    -0.373 OA
ATOM     50  H4  UNL     1      -3.214   5.976  22.653  1.00  0.00     0.211 HD
ENDBRANCH   4  49
BRANCH   7  51
HETATM   51  O7  UNL     1      -2.089   4.016  17.364  1.00  0.00    -0.362 OA
ATOM     52  H7  UNL     1      -2.505   3.638  16.598  1.00  0.00     0.217 HD
ENDBRANCH   7  51
BRANCH   5  53
HETATM   53  O5  UNL     1      -3.345   4.345  21.584  1.00  0.00    -0.359 OA
ATOM     54  H5  UNL     1      -2.752   3.621  21.422  1.00  0.00     0.217 HD
ENDBRANCH   5  53
BRANCH   6  55
HETATM   55  O6  UNL     1      -1.217   4.624  19.734  1.00  0.00    -0.356 OA
ATOM     56  H6  UNL     1      -0.766   4.163  19.036  1.00  0.00     0.218 HD
ENDBRANCH   6  55
TORSDOF 23
ENDMDL
MODEL 4
REMARK VINA RESULT: -5.596637561      2.151      5.375
REMARK  23 active torsions:
REMARK  status: ('A' for Active; 'I' for Inactive)
REMARK    1  A    between atoms: O1_2  and  C2_3 
REMARK    2  A    between atoms: C2_3  and  C3_5 
REMARK    3  A    between atoms: C5_8  and  O4_9 
REMARK    4  A    between atoms: C6_11  and  O5_12 
REMARK    5  A    between atoms: C7_14  and  O6_15 
REMARK    6  A    between atoms: C8_17  and  O7_18 
REMARK    7  A    between atoms: C10_21  and  C11_22 
REMARK    8  A    between atoms: C11_22  and  O8_23 
REMARK    9  A    between atoms: O8_23  and  C12_24 
REMARK   10  A    between atoms: C15_28  and  O10_29 
REMARK   11  A    between atoms: C15_28  and  C17_33 
REMARK   12  A    between atoms: O10_29  and  C16_30 
REMARK   13  A    between atoms: C17_33  and  O12_34 
REMARK   14  A    between atoms: C17_33  and  C18_36 
REMARK   15  A    between atoms: C20_38  and  O13_39 
REMARK   16  A    between atoms: C21_41  and  O14_43 
REMARK   17  A    between atoms: C23_45  and  O15_46 
REMARK   18  A    between atoms: O15_46  and  C24_47 
REMARK   19  A    between atoms: C24_47  and  C25_49 
REMARK   20  A    between atoms: C25_49  and  C26_50 
REMARK   21  A    between atoms: N2_51  and  C27_53 
REMARK   22  A    between atoms: C27_53  and  C28_54 
REMARK   23  A    between atoms: C28_54  and  O17_55 
ROOT
HETATM    1  C3  UNL     1      -4.697   8.411  18.947  1.00  0.00     0.166 C 
HETATM    2  C4  UNL     1      -3.736   7.775  19.861  1.00  0.00     0.184 C 
HETATM    3  O3  UNL     1      -2.564   8.186  19.889  1.00  0.00    -0.293 OA
HETATM    4  C5  UNL     1      -4.084   6.657  20.769  1.00  0.00     0.199 C 
HETATM    5  C6  UNL     1      -3.349   5.419  20.563  1.00  0.00     0.124 C 
HETATM    6  C7  UNL     1      -2.546   4.943  19.470  1.00  0.00     0.127 C 
HETATM    7  C8  UNL     1      -2.814   4.690  18.073  1.00  0.00     0.079 C 
HETATM    8  C9  UNL     1      -3.793   5.336  17.165  1.00  0.00     0.074 C 
HETATM    9  C10 UNL     1      -4.189   6.716  17.402  1.00  0.00     0.025 C 
HETATM   10  C14 UNL     1      -5.323   7.281  18.092  1.00  0.00     0.054 C 
HETATM   11  C15 UNL     1      -6.523   6.688  18.697  1.00  0.00     0.140 C 
HETATM   12  C21 UNL     1      -6.642   6.988  20.232  1.00  0.00     0.119 C 
HETATM   13  C22 UNL     1      -7.433   8.160  20.689  1.00  0.00     0.052 C 
HETATM   14  C23 UNL     1      -5.507   6.679  21.107  1.00  0.00     0.217 C 
ENDROOT
BRANCH  11  15
HETATM   15  O10 UNL     1      -7.001   5.477  18.448  1.00  0.00    -0.288 OA
BRANCH  15  16
HETATM   16  C16 UNL     1      -7.103   4.206  18.410  1.00  0.00     0.373 C 
HETATM   17  N1  UNL     1      -7.084   3.156  19.347  1.00  0.00    -0.032 NA
HETATM   18  O11 UNL     1      -7.256   3.861  17.222  1.00  0.00    -0.242 OA
ENDBRANCH  15  16
ENDBRANCH  11  15
BRANCH  11  19
HETATM   19  C17 UNL     1      -7.772   7.440  18.209  1.00  0.00     0.187 C 
BRANCH  19  20
HETATM   20  O12 UNL     1      -8.853   6.580  18.117  1.00  0.00    -0.388 OA
ATOM     21  H12 UNL     1      -9.638   6.993  18.456  1.00  0.00     0.210 HD
ENDBRANCH  19  20
BRANCH  19  22
HETATM   22  C18 UNL     1      -7.753   8.189  16.973  1.00  0.00    -0.031 C 
HETATM   23  C19 UNL     1      -7.667   9.620  16.685  1.00  0.00     0.048 C 
HETATM   24  C20 UNL     1      -7.811   7.481  15.860  1.00  0.00     0.136 C 
BRANCH  24  25
HETATM   25  O13 UNL     1      -7.886   6.128  15.758  1.00  0.00    -0.372 OA
ATOM     26  H13 UNL     1      -8.620   5.621  15.430  1.00  0.00     0.216 HD
ENDBRANCH  24  25
ENDBRANCH  19  22
ENDBRANCH  11  19
BRANCH  12  27
HETATM   27  O14 UNL     1      -7.590   5.952  20.615  1.00  0.00    -0.384 OA
ATOM     28  H14 UNL     1      -8.204   6.472  21.119  1.00  0.00     0.210 HD
ENDBRANCH  12  27
BRANCH   1  29
HETATM   29  C2  UNL     1      -4.094   9.512  18.169  1.00  0.00     0.270 C 
HETATM   30  O2  UNL     1      -4.839  10.343  17.586  1.00  0.00    -0.264 OA
BRANCH  29  31
HETATM   31  O1  UNL     1      -2.744   9.731  18.009  1.00  0.00    -0.326 OA
HETATM   32  C1  UNL     1      -2.255  10.998  17.718  1.00  0.00     0.213 C 
ENDBRANCH  29  31
ENDBRANCH   1  29
BRANCH   9  33
HETATM   33  C11 UNL     1      -4.045   7.362  15.972  1.00  0.00     0.184 C 
BRANCH  33  34
HETATM   34  O8  UNL     1      -2.833   7.053  15.399  1.00  0.00    -0.321 OA
BRANCH  34  35
HETATM   35  C12 UNL     1      -1.857   7.991  15.263  1.00  0.00     0.254 C 
HETATM   36  C13 UNL     1      -1.937   9.182  14.385  1.00  0.00     0.126 C 
HETATM   37  O9  UNL     1      -0.792   7.834  15.942  1.00  0.00    -0.266 OA
ENDBRANCH  34  35
ENDBRANCH  33  34
ENDBRANCH   9  33
BRANCH  14  38
HETATM   38  O15 UNL     1      -5.865   5.777  22.159  1.00  0.00    -0.309 OA
BRANCH  38  39
HETATM   39  C24 UNL     1      -5.977   5.963  23.463  1.00  0.00     0.264 C 
HETATM   40  O16 UNL     1      -4.933   5.802  24.101  1.00  0.00    -0.265 OA
BRANCH  39  41
HETATM   41  C25 UNL     1      -7.233   6.332  24.128  1.00  0.00     0.155 C 
BRANCH  41  42
HETATM   42  C26 UNL     1      -7.733   5.302  25.070  1.00  0.00     0.070 C 
HETATM   43  N2  UNL     1      -7.318   4.116  24.914  1.00  0.00    -0.380 N 
ATOM     44  H2  UNL     1      -6.667   3.973  24.142  1.00  0.00     0.164 HD
BRANCH  43  45
HETATM   45  C27 UNL     1      -7.637   2.968  25.665  1.00  0.00     0.086 C 
BRANCH  45  46
HETATM   46  C28 UNL     1      -9.120   2.884  25.982  1.00  0.00     0.208 C 
BRANCH  46  47
HETATM   47  O17 UNL     1      -9.662   1.680  25.544  1.00  0.00    -0.396 OA
ATOM     48  H17 UNL     1     -10.566   1.588  25.821  1.00  0.00     0.209 HD
ENDBRANCH  46  47
ENDBRANCH  45  46
ENDBRANCH  43  45
ENDBRANCH  41  42
ENDBRANCH  39  41
ENDBRANCH  38  39
ENDBRANCH  14  38
BRANCH   4  49
HETATM   49  O4  UNL     1      -3.442   7.171  21.982  1.00  0.00    -0.373 OA
ATOM     50  H4  UNL     1      -2.544   7.155  21.674  1.00  0.00     0.211 HD
ENDBRANCH   4  49
BRANCH   7  51
HETATM   51  O7  UNL     1      -2.127   3.759  17.436  1.00  0.00    -0.362 OA
ATOM     52  H7  UNL     1      -2.586   3.027  17.039  1.00  0.00     0.217 HD
ENDBRANCH   7  51
BRANCH   5  53
HETATM   53  O5  UNL     1      -3.439   4.592  21.568  1.00  0.00    -0.359 OA
ATOM     54  H5  UNL     1      -3.006   3.762  21.410  1.00  0.00     0.217 HD
ENDBRANCH   5  53
BRANCH   6  55
HETATM   55  O6  UNL     1      -1.288   4.655  19.724  1.00  0.00    -0.356 OA
ATOM     56  H6  UNL     1      -1.106   3.819  20.139  1.00  0.00     0.218 HD
ENDBRANCH   6  55
TORSDOF 23
ENDMDL
MODEL 5
REMARK VINA RESULT: -5.483320355      2.239      5.581
REMARK  23 active torsions:
REMARK  status: ('A' for Active; 'I' for Inactive)
REMARK    1  A    between atoms: O1_2  and  C2_3 
REMARK    2  A    between atoms: C2_3  and  C3_5 
REMARK    3  A    between atoms: C5_8  and  O4_9 
REMARK    4  A    between atoms: C6_11  and  O5_12 
REMARK    5  A    between atoms: C7_14  and  O6_15 
REMARK    6  A    between atoms: C8_17  and  O7_18 
REMARK    7  A    between atoms: C10_21  and  C11_22 
REMARK    8  A    between atoms: C11_22  and  O8_23 
REMARK    9  A    between atoms: O8_23  and  C12_24 
REMARK   10  A    between atoms: C15_28  and  O10_29 
REMARK   11  A    between atoms: C15_28  and  C17_33 
REMARK   12  A    between atoms: O10_29  and  C16_30 
REMARK   13  A    between atoms: C17_33  and  O12_34 
REMARK   14  A    between atoms: C17_33  and  C18_36 
REMARK   15  A    between atoms: C20_38  and  O13_39 
REMARK   16  A    between atoms: C21_41  and  O14_43 
REMARK   17  A    between atoms: C23_45  and  O15_46 
REMARK   18  A    between atoms: O15_46  and  C24_47 
REMARK   19  A    between atoms: C24_47  and  C25_49 
REMARK   20  A    between atoms: C25_49  and  C26_50 
REMARK   21  A    between atoms: N2_51  and  C27_53 
REMARK   22  A    between atoms: C27_53  and  C28_54 
REMARK   23  A    between atoms: C28_54  and  O17_55 
ROOT
HETATM    1  C3  UNL     1      -4.624   7.895  17.592  1.00  0.00     0.166 C 
HETATM    2  C4  UNL     1      -3.907   8.044  18.868  1.00  0.00     0.184 C 
HETATM    3  O3  UNL     1      -2.805   8.617  18.880  1.00  0.00    -0.293 OA
HETATM    4  C5  UNL     1      -4.428   7.548  20.163  1.00  0.00     0.199 C 
HETATM    5  C6  UNL     1      -3.605   6.558  20.840  1.00  0.00     0.124 C 
HETATM    6  C7  UNL     1      -2.521   5.729  20.388  1.00  0.00     0.127 C 
HETATM    7  C8  UNL     1      -2.401   4.719  19.361  1.00  0.00     0.079 C 
HETATM    8  C9  UNL     1      -3.136   4.579  18.081  1.00  0.00     0.074 C 
HETATM    9  C10 UNL     1      -3.647   5.767  17.413  1.00  0.00     0.025 C 
HETATM   10  C14 UNL     1      -4.948   6.389  17.429  1.00  0.00     0.054 C 
HETATM   11  C15 UNL     1      -6.235   6.002  18.022  1.00  0.00     0.140 C 
HETATM   12  C21 UNL     1      -6.768   7.052  19.059  1.00  0.00     0.119 C 
HETATM   13  C22 UNL     1      -7.706   8.113  18.609  1.00  0.00     0.052 C 
HETATM   14  C23 UNL     1      -5.889   7.481  20.151  1.00  0.00     0.217 C 
ENDROOT
BRANCH  11  15
HETATM   15  O10 UNL     1      -6.572   4.783  18.418  1.00  0.00    -0.288 OA
BRANCH  15  16
HETATM   16  C16 UNL     1      -6.599   3.511  18.513  1.00  0.00     0.373 C 
HETATM   17  N1  UNL     1      -5.998   2.428  17.843  1.00  0.00    -0.032 NA
HETATM   18  O11 UNL     1      -7.362   3.204  19.449  1.00  0.00    -0.242 OA
ENDBRANCH  15  16
ENDBRANCH  11  15
BRANCH  11  19
HETATM   19  C17 UNL     1      -7.347   6.124  16.966  1.00  0.00     0.187 C 
BRANCH  19  20
HETATM   20  O12 UNL     1      -8.426   5.324  17.302  1.00  0.00    -0.388 OA
ATOM     21  H12 UNL     1      -8.443   5.163  18.238  1.00  0.00     0.210 HD
ENDBRANCH  19  20
BRANCH  19  22
HETATM   22  C18 UNL     1      -7.077   5.864  15.571  1.00  0.00    -0.031 C 
HETATM   23  C19 UNL     1      -6.702   4.651  14.845  1.00  0.00     0.048 C 
HETATM   24  C20 UNL     1      -7.189   6.894  14.752  1.00  0.00     0.136 C 
BRANCH  24  25
HETATM   25  O13 UNL     1      -7.532   8.166  15.086  1.00  0.00    -0.372 OA
ATOM     26  H13 UNL     1      -6.993   8.944  14.996  1.00  0.00     0.216 HD
ENDBRANCH  24  25
ENDBRANCH  19  22
ENDBRANCH  11  19
BRANCH  12  27
HETATM   27  O14 UNL     1      -7.732   6.229  19.773  1.00  0.00    -0.384 OA
ATOM     28  H14 UNL     1      -7.886   6.779  20.531  1.00  0.00     0.210 HD
ENDBRANCH  12  27
BRANCH   1  29
HETATM   29  C2  UNL     1      -3.891   8.495  16.459  1.00  0.00     0.270 C 
HETATM   30  O2  UNL     1      -4.472   8.648  15.352  1.00  0.00    -0.264 OA
BRANCH  29  31
HETATM   31  O1  UNL     1      -2.582   8.922  16.489  1.00  0.00    -0.326 OA
HETATM   32  C1  UNL     1      -2.114   9.860  15.579  1.00  0.00     0.213 C 
ENDBRANCH  29  31
ENDBRANCH   1  29
BRANCH   9  33
HETATM   33  C11 UNL     1      -3.163   5.556  15.928  1.00  0.00     0.184 C 
BRANCH  33  34
HETATM   34  O8  UNL     1      -1.823   5.835  15.790  1.00  0.00    -0.321 OA
BRANCH  34  35
HETATM   35  C12 UNL     1      -1.312   6.274  14.607  1.00  0.00     0.254 C 
HETATM   36  C13 UNL     1      -2.116   6.756  13.460  1.00  0.00     0.126 C 
HETATM   37  O9  UNL     1      -0.047   6.271  14.476  1.00  0.00    -0.266 OA
ENDBRANCH  34  35
ENDBRANCH  33  34
ENDBRANCH   9  33
BRANCH  14  38
HETATM   38  O15 UNL     1      -6.466   7.238  21.438  1.00  0.00    -0.309 OA
BRANCH  38  39
HETATM   39  C24 UNL     1      -7.100   8.044  22.272  1.00  0.00     0.264 C 
HETATM   40  O16 UNL     1      -6.887   9.247  22.092  1.00  0.00    -0.265 OA
BRANCH  39  41
HETATM   41  C25 UNL     1      -7.992   7.576  23.340  1.00  0.00     0.155 C 
BRANCH  41  42
HETATM   42  C26 UNL     1      -7.811   6.144  23.681  1.00  0.00     0.070 C 
HETATM   43  N2  UNL     1      -6.627   5.726  23.838  1.00  0.00    -0.380 N 
ATOM     44  H2  UNL     1      -5.891   6.421  23.713  1.00  0.00     0.164 HD
BRANCH  43  45
HETATM   45  C27 UNL     1      -6.191   4.426  24.162  1.00  0.00     0.086 C 
BRANCH  45  46
HETATM   46  C28 UNL     1      -6.982   3.824  25.310  1.00  0.00     0.208 C 
BRANCH  46  47
HETATM   47  O17 UNL     1      -7.213   2.467  25.107  1.00  0.00    -0.396 OA
ATOM     48  H17 UNL     1      -6.801   1.943  25.785  1.00  0.00     0.209 HD
ENDBRANCH  46  47
ENDBRANCH  45  46
ENDBRANCH  43  45
ENDBRANCH  41  42
ENDBRANCH  39  41
ENDBRANCH  38  39
ENDBRANCH  14  38
BRANCH   4  49
HETATM   49  O4  UNL     1      -4.152   8.743  20.966  1.00  0.00    -0.373 OA
ATOM     50  H4  UNL     1      -3.882   8.307  21.765  1.00  0.00     0.211 HD
ENDBRANCH   4  49
BRANCH   7  51
HETATM   51  O7  UNL     1      -1.526   3.741  19.510  1.00  0.00    -0.362 OA
ATOM     52  H7  UNL     1      -0.637   3.856  19.196  1.00  0.00     0.217 HD
ENDBRANCH   7  51
BRANCH   5  53
HETATM   53  O5  UNL     1      -3.916   6.402  22.098  1.00  0.00    -0.359 OA
ATOM     54  H5  UNL     1      -4.521   5.686  22.249  1.00  0.00     0.217 HD
ENDBRANCH   5  53
BRANCH   6  55
HETATM   55  O6  UNL     1      -1.362   5.865  20.995  1.00  0.00    -0.356 OA
ATOM     56  H6  UNL     1      -0.677   6.331  20.529  1.00  0.00     0.218 HD
ENDBRANCH   6  55
TORSDOF 23
ENDMDL
