MODEL 1
REMARK VINA RESULT: -8.128175175      0.000      0.000
REMARK  16 active torsions:
REMARK  status: ('A' for Active; 'I' for Inactive)
REMARK    1  A    between atoms: O1_2  and  C2_3 
REMARK    2  A    between atoms: C2_3  and  O2_4 
REMARK    3  A    between atoms: C2_3  and  C3_6 
REMARK    4  A    between atoms: C3_6  and  O3_7 
REMARK    5  A    between atoms: C3_6  and  C4_9 
REMARK    6  A    between atoms: C5_11  and  O5_12 
REMARK       I    between atoms: N1_19  and  C10_21 
REMARK    7  A    between atoms: C10_21  and  C11_23 
REMARK    8  A    between atoms: C15_29  and  C16_30 
REMARK    9  A    between atoms: C15_29  and  C19_39 
REMARK   10  A    between atoms: C16_30  and  O8_31 
REMARK   11  A    between atoms: O8_31  and  S2_32 
REMARK   12  A    between atoms: S2_32  and  C17_35 
REMARK   13  A    between atoms: C17_35  and  C18_36 
REMARK   14  A    between atoms: C20_42  and  C21_43 
REMARK   15  A    between atoms: C21_43  and  O15_44 
REMARK   16  A    between atoms: C21_43  and  O16_46 
ROOT
HETATM    1  C4  UNL     1      -2.370   6.209  19.438  1.00  0.00     0.105 A 
HETATM    2  O4  UNL     1      -2.139   5.929  18.160  1.00  0.00    -0.288 OA
HETATM    3  C5  UNL     1      -3.217   5.995  17.442  1.00  0.00     0.201 A 
HETATM    4  C6  UNL     1      -4.273   6.341  18.254  1.00  0.00     0.114 A 
HETATM    5  C7  UNL     1      -3.704   6.472  19.525  1.00  0.00     0.070 A 
HETATM    6  C8  UNL     1      -4.409   6.830  20.748  1.00  0.00     0.211 C 
HETATM    7  O6  UNL     1      -3.671   7.057  21.712  1.00  0.00    -0.285 OA
HETATM    8  C9  UNL     1      -5.862   6.951  20.967  1.00  0.00     0.098 C 
HETATM    9  N1  UNL     1      -6.179   7.641  21.958  1.00  0.00    -0.324 N 
ATOM     10  H1  UNL     1      -5.375   8.014  22.464  1.00  0.00     0.169 HD
HETATM   11  C10 UNL     1      -7.393   8.007  22.515  1.00  0.00     0.231 C 
HETATM   12  O7  UNL     1      -8.270   8.568  21.800  1.00  0.00    -0.273 OA
HETATM   13  C20 UNL     1      -6.890   6.330  20.108  1.00  0.00     0.240 C 
HETATM   14  O17 UNL     1      -6.743   6.709  18.749  1.00  0.00    -0.300 OA
HETATM   15  C22 UNL     1      -5.669   6.531  17.893  1.00  0.00     0.300 C 
HETATM   16  O18 UNL     1      -5.865   6.526  16.644  1.00  0.00    -0.259 OA
ENDROOT
BRANCH  13  17
HETATM   17  C21 UNL     1      -6.683   4.826  20.141  1.00  0.00     0.289 C 
BRANCH  17  18
HETATM   18  O15 UNL     1      -7.590   4.155  19.323  1.00  0.00    -0.368 OA
ATOM     19  H15 UNL     1      -7.296   3.277  19.108  1.00  0.00     0.212 HD
ENDBRANCH  17  18
BRANCH  17  20
HETATM   20  O16 UNL     1      -6.619   4.315  21.431  1.00  0.00    -0.368 OA
ATOM     21  H16 UNL     1      -5.758   3.978  21.654  1.00  0.00     0.212 HD
ENDBRANCH  17  20
ENDBRANCH  13  17
BRANCH  11  22
HETATM   22  C11 UNL     1      -7.662   7.740  23.949  1.00  0.00     0.150 C 
HETATM   23  C12 UNL     1      -8.891   8.460  24.492  1.00  0.00     0.293 C 
HETATM   24  N2  UNL     1      -9.598   7.230  24.425  1.00  0.00     0.128 N 
HETATM   25  C13 UNL     1      -8.436   6.447  24.158  1.00  0.00     0.300 C 
HETATM   26  C15 UNL     1     -10.319   6.738  25.516  1.00  0.00     0.278 C 
HETATM   27  S1  UNL     1      -7.974   5.766  25.799  1.00  0.00    -0.129 SA
HETATM   28  C14 UNL     1      -9.396   6.519  26.694  1.00  0.00     0.132 C 
BRANCH  26  29
HETATM   29  C16 UNL     1     -11.323   7.812  25.962  1.00  0.00     0.244 C 
BRANCH  29  30
HETATM   30  O8  UNL     1     -12.155   7.183  26.872  1.00  0.00    -0.272 OA
BRANCH  30  31
HETATM   31  S2  UNL     1     -13.680   7.819  26.753  1.00  0.00     0.275 S 
HETATM   32  O9  UNL     1     -13.649   8.879  25.677  1.00  0.00    -0.198 OA
HETATM   33  O10 UNL     1     -14.083   8.451  28.051  1.00  0.00    -0.198 OA
BRANCH  31  34
HETATM   34  C17 UNL     1     -14.816   6.581  26.240  1.00  0.00     0.283 C 
BRANCH  34  35
HETATM   35  C18 UNL     1     -16.224   6.942  26.560  1.00  0.00     0.189 C 
HETATM   36  O11 UNL     1     -16.918   6.149  27.252  1.00  0.00    -0.647 OA
HETATM   37  O12 UNL     1     -16.756   8.126  26.107  1.00  0.00    -0.647 OA
ENDBRANCH  34  35
ENDBRANCH  31  34
ENDBRANCH  30  31
ENDBRANCH  29  30
ENDBRANCH  26  29
BRANCH  26  38
HETATM   38  C19 UNL     1     -11.066   5.525  25.177  1.00  0.00     0.216 C 
HETATM   39  O13 UNL     1     -11.701   5.474  24.099  1.00  0.00    -0.646 OA
HETATM   40  O14 UNL     1     -11.113   4.402  25.999  1.00  0.00    -0.646 OA
ENDBRANCH  26  38
ENDBRANCH  11  22
BRANCH   1  41
HETATM   41  C3  UNL     1      -1.337   6.213  20.496  1.00  0.00     0.231 C 
BRANCH  41  42
HETATM   42  C2  UNL     1      -0.346   7.350  20.291  1.00  0.00     0.291 C 
BRANCH  42  43
HETATM   43  O1  UNL     1       0.874   6.778  19.966  1.00  0.00    -0.363 OA
HETATM   44  C1  UNL     1       1.884   7.682  20.353  1.00  0.00     0.204 C 
ENDBRANCH  42  43
BRANCH  42  45
HETATM   45  O2  UNL     1      -0.785   8.048  19.163  1.00  0.00    -0.368 OA
ATOM     46  H2  UNL     1      -1.614   7.664  18.902  1.00  0.00     0.212 HD
ENDBRANCH  42  45
ENDBRANCH  41  42
BRANCH  41  47
HETATM   47  O3  UNL     1      -0.561   5.060  20.308  1.00  0.00    -0.384 OA
ATOM     48  H3  UNL     1      -1.161   4.351  20.509  1.00  0.00     0.210 HD
ENDBRANCH  41  47
ENDBRANCH   1  41
BRANCH   3  49
HETATM   49  O5  UNL     1      -3.373   5.770  16.070  1.00  0.00    -0.340 OA
ATOM     50  H5  UNL     1      -4.037   5.260  15.622  1.00  0.00     0.220 HD
ENDBRANCH   3  49
TORSDOF 16
ENDMDL
MODEL 2
REMARK VINA RESULT: -8.045279762      8.250     11.158
REMARK  16 active torsions:
REMARK  status: ('A' for Active; 'I' for Inactive)
REMARK    1  A    between atoms: O1_2  and  C2_3 
REMARK    2  A    between atoms: C2_3  and  O2_4 
REMARK    3  A    between atoms: C2_3  and  C3_6 
REMARK    4  A    between atoms: C3_6  and  O3_7 
REMARK    5  A    between atoms: C3_6  and  C4_9 
REMARK    6  A    between atoms: C5_11  and  O5_12 
REMARK       I    between atoms: N1_19  and  C10_21 
REMARK    7  A    between atoms: C10_21  and  C11_23 
REMARK    8  A    between atoms: C15_29  and  C16_30 
REMARK    9  A    between atoms: C15_29  and  C19_39 
REMARK   10  A    between atoms: C16_30  and  O8_31 
REMARK   11  A    between atoms: O8_31  and  S2_32 
REMARK   12  A    between atoms: S2_32  and  C17_35 
REMARK   13  A    between atoms: C17_35  and  C18_36 
REMARK   14  A    between atoms: C20_42  and  C21_43 
REMARK   15  A    between atoms: C21_43  and  O15_44 
REMARK   16  A    between atoms: C21_43  and  O16_46 
ROOT
HETATM    1  C4  UNL     1      -4.474   5.412  25.163  1.00  0.00     0.105 A 
HETATM    2  O4  UNL     1      -5.032   6.340  24.394  1.00  0.00    -0.288 OA
HETATM    3  C5  UNL     1      -6.310   6.440  24.598  1.00  0.00     0.201 A 
HETATM    4  C6  UNL     1      -6.680   5.534  25.565  1.00  0.00     0.114 A 
HETATM    5  C7  UNL     1      -5.486   4.889  25.909  1.00  0.00     0.070 A 
HETATM    6  C8  UNL     1      -5.337   3.833  26.901  1.00  0.00     0.211 C 
HETATM    7  O6  UNL     1      -4.165   3.541  27.159  1.00  0.00    -0.285 OA
HETATM    8  C9  UNL     1      -6.392   3.088  27.614  1.00  0.00     0.098 C 
HETATM    9  N1  UNL     1      -6.012   2.540  28.669  1.00  0.00    -0.324 N 
ATOM     10  H1  UNL     1      -5.024   2.694  28.871  1.00  0.00     0.169 HD
HETATM   11  C10 UNL     1      -6.652   1.765  29.623  1.00  0.00     0.231 C 
HETATM   12  O7  UNL     1      -7.700   2.194  30.182  1.00  0.00    -0.273 OA
HETATM   13  C20 UNL     1      -7.791   2.981  27.157  1.00  0.00     0.240 C 
HETATM   14  O17 UNL     1      -8.382   4.256  26.960  1.00  0.00    -0.300 OA
HETATM   15  C22 UNL     1      -8.002   5.285  26.116  1.00  0.00     0.300 C 
HETATM   16  O18 UNL     1      -8.861   6.139  25.751  1.00  0.00    -0.259 OA
ENDROOT
BRANCH  13  17
HETATM   17  C21 UNL     1      -7.791   2.312  25.794  1.00  0.00     0.289 C 
BRANCH  17  18
HETATM   18  O15 UNL     1      -9.005   1.687  25.517  1.00  0.00    -0.368 OA
ATOM     19  H15 UNL     1      -8.893   0.910  24.980  1.00  0.00     0.212 HD
ENDBRANCH  17  18
BRANCH  17  20
HETATM   20  O16 UNL     1      -6.688   1.492  25.592  1.00  0.00    -0.368 OA
ATOM     21  H16 UNL     1      -6.918   0.642  25.235  1.00  0.00     0.212 HD
ENDBRANCH  17  20
ENDBRANCH  13  17
BRANCH  11  22
HETATM   22  C11 UNL     1      -6.104   0.436  29.988  1.00  0.00     0.150 C 
HETATM   23  C12 UNL     1      -4.585   0.403  30.103  1.00  0.00     0.293 C 
HETATM   24  N2  UNL     1      -4.726   0.414  31.516  1.00  0.00     0.128 N 
HETATM   25  C13 UNL     1      -6.135   0.193  31.489  1.00  0.00     0.300 C 
HETATM   26  C15 UNL     1      -4.068  -0.514  32.327  1.00  0.00     0.278 C 
HETATM   27  S1  UNL     1      -6.306  -1.613  31.771  1.00  0.00    -0.129 SA
HETATM   28  C14 UNL     1      -4.501  -1.918  31.968  1.00  0.00     0.132 C 
BRANCH  26  29
HETATM   29  C16 UNL     1      -2.564  -0.446  32.023  1.00  0.00     0.244 C 
BRANCH  29  30
HETATM   30  O8  UNL     1      -1.934  -0.744  33.220  1.00  0.00    -0.272 OA
BRANCH  30  31
HETATM   31  S2  UNL     1      -0.302  -0.509  33.055  1.00  0.00     0.275 S 
HETATM   32  O9  UNL     1       0.396  -1.659  33.741  1.00  0.00    -0.198 OA
HETATM   33  O10 UNL     1       0.108   0.775  33.711  1.00  0.00    -0.198 OA
BRANCH  31  34
HETATM   34  C17 UNL     1       0.149  -0.556  31.357  1.00  0.00     0.283 C 
BRANCH  34  35
HETATM   35  C18 UNL     1       1.503   0.012  31.119  1.00  0.00     0.189 C 
HETATM   36  O11 UNL     1       1.611   1.087  30.468  1.00  0.00    -0.647 OA
HETATM   37  O12 UNL     1       2.618  -0.628  31.604  1.00  0.00    -0.647 OA
ENDBRANCH  34  35
ENDBRANCH  31  34
ENDBRANCH  30  31
ENDBRANCH  29  30
ENDBRANCH  26  29
BRANCH  26  38
HETATM   38  C19 UNL     1      -4.262  -0.231  33.751  1.00  0.00     0.216 C 
HETATM   39  O13 UNL     1      -4.437  -1.180  34.549  1.00  0.00    -0.646 OA
HETATM   40  O14 UNL     1      -4.263   1.056  34.280  1.00  0.00    -0.646 OA
ENDBRANCH  26  38
ENDBRANCH  11  22
BRANCH   1  41
HETATM   41  C3  UNL     1      -3.035   5.070  25.154  1.00  0.00     0.231 C 
BRANCH  41  42
HETATM   42  C2  UNL     1      -2.235   6.080  24.344  1.00  0.00     0.291 C 
BRANCH  42  43
HETATM   43  O1  UNL     1      -0.977   6.164  24.919  1.00  0.00    -0.363 OA
HETATM   44  C1  UNL     1      -0.746   7.517  25.240  1.00  0.00     0.204 C 
ENDBRANCH  42  43
BRANCH  42  45
HETATM   45  O2  UNL     1      -2.071   5.516  23.077  1.00  0.00    -0.368 OA
ATOM     46  H2  UNL     1      -2.323   4.603  23.142  1.00  0.00     0.212 HD
ENDBRANCH  42  45
ENDBRANCH  41  42
BRANCH  41  47
HETATM   47  O3  UNL     1      -2.907   3.881  24.419  1.00  0.00    -0.384 OA
ATOM     48  H3  UNL     1      -3.473   3.272  24.879  1.00  0.00     0.210 HD
ENDBRANCH  41  47
ENDBRANCH   1  41
BRANCH   3  49
HETATM   49  O5  UNL     1      -7.232   7.296  23.985  1.00  0.00    -0.340 OA
ATOM     50  H5  UNL     1      -7.914   7.822  24.386  1.00  0.00     0.220 HD
ENDBRANCH   3  49
TORSDOF 16
ENDMDL
MODEL 3
REMARK VINA RESULT: -7.974191053      0.987      1.340
REMARK  16 active torsions:
REMARK  status: ('A' for Active; 'I' for Inactive)
REMARK    1  A    between atoms: O1_2  and  C2_3 
REMARK    2  A    between atoms: C2_3  and  O2_4 
REMARK    3  A    between atoms: C2_3  and  C3_6 
REMARK    4  A    between atoms: C3_6  and  O3_7 
REMARK    5  A    between atoms: C3_6  and  C4_9 
REMARK    6  A    between atoms: C5_11  and  O5_12 
REMARK       I    between atoms: N1_19  and  C10_21 
REMARK    7  A    between atoms: C10_21  and  C11_23 
REMARK    8  A    between atoms: C15_29  and  C16_30 
REMARK    9  A    between atoms: C15_29  and  C19_39 
REMARK   10  A    between atoms: C16_30  and  O8_31 
REMARK   11  A    between atoms: O8_31  and  S2_32 
REMARK   12  A    between atoms: S2_32  and  C17_35 
REMARK   13  A    between atoms: C17_35  and  C18_36 
REMARK   14  A    between atoms: C20_42  and  C21_43 
REMARK   15  A    between atoms: C21_43  and  O15_44 
REMARK   16  A    between atoms: C21_43  and  O16_46 
ROOT
HETATM    1  C4  UNL     1      -2.370   6.252  19.448  1.00  0.00     0.105 A 
HETATM    2  O4  UNL     1      -2.138   5.996  18.165  1.00  0.00    -0.288 OA
HETATM    3  C5  UNL     1      -3.217   6.070  17.449  1.00  0.00     0.201 A 
HETATM    4  C6  UNL     1      -4.275   6.396  18.267  1.00  0.00     0.114 A 
HETATM    5  C7  UNL     1      -3.705   6.507  19.540  1.00  0.00     0.070 A 
HETATM    6  C8  UNL     1      -4.412   6.840  20.770  1.00  0.00     0.211 C 
HETATM    7  O6  UNL     1      -3.674   7.053  21.737  1.00  0.00    -0.285 OA
HETATM    8  C9  UNL     1      -5.866   6.950  20.992  1.00  0.00     0.098 C 
HETATM    9  N1  UNL     1      -6.185   7.621  21.995  1.00  0.00    -0.324 N 
ATOM     10  H1  UNL     1      -5.383   7.988  22.507  1.00  0.00     0.169 HD
HETATM   11  C10 UNL     1      -7.401   7.970  22.558  1.00  0.00     0.231 C 
HETATM   12  O7  UNL     1      -8.281   8.540  21.854  1.00  0.00    -0.273 OA
HETATM   13  C20 UNL     1      -6.890   6.339  20.122  1.00  0.00     0.240 C 
HETATM   14  O17 UNL     1      -6.746   6.743  18.770  1.00  0.00    -0.300 OA
HETATM   15  C22 UNL     1      -5.671   6.586  17.911  1.00  0.00     0.300 C 
HETATM   16  O18 UNL     1      -5.868   6.602  16.661  1.00  0.00    -0.259 OA
ENDROOT
BRANCH  13  17
HETATM   17  C21 UNL     1      -6.677   4.836  20.128  1.00  0.00     0.289 C 
BRANCH  17  18
HETATM   18  O15 UNL     1      -7.584   4.174  19.302  1.00  0.00    -0.368 OA
ATOM     19  H15 UNL     1      -7.501   3.229  19.364  1.00  0.00     0.212 HD
ENDBRANCH  17  18
BRANCH  17  20
HETATM   20  O16 UNL     1      -6.604   4.303  21.408  1.00  0.00    -0.368 OA
ATOM     21  H16 UNL     1      -6.440   3.366  21.412  1.00  0.00     0.212 HD
ENDBRANCH  17  20
ENDBRANCH  13  17
BRANCH  11  22
HETATM   22  C11 UNL     1      -7.668   7.676  23.988  1.00  0.00     0.150 C 
HETATM   23  C12 UNL     1      -8.892   8.391  24.548  1.00  0.00     0.293 C 
HETATM   24  N2  UNL     1      -9.605   7.166  24.459  1.00  0.00     0.128 N 
HETATM   25  C13 UNL     1      -8.447   6.384  24.173  1.00  0.00     0.300 C 
HETATM   26  C15 UNL     1     -10.326   6.656  25.541  1.00  0.00     0.278 C 
HETATM   27  S1  UNL     1      -7.985   5.668  25.799  1.00  0.00    -0.129 SA
HETATM   28  C14 UNL     1      -9.401   6.410  26.713  1.00  0.00     0.132 C 
BRANCH  26  29
HETATM   29  C16 UNL     1     -11.324   7.726  26.010  1.00  0.00     0.244 C 
BRANCH  29  30
HETATM   30  O8  UNL     1     -12.304   7.036  26.704  1.00  0.00    -0.272 OA
BRANCH  30  31
HETATM   31  S2  UNL     1     -13.693   7.937  26.733  1.00  0.00     0.275 S 
HETATM   32  O9  UNL     1     -14.860   6.978  26.692  1.00  0.00    -0.198 OA
HETATM   33  O10 UNL     1     -13.756   8.837  25.535  1.00  0.00    -0.198 OA
BRANCH  31  34
HETATM   34  C17 UNL     1     -13.802   8.835  28.240  1.00  0.00     0.283 C 
BRANCH  34  35
HETATM   35  C18 UNL     1     -14.662  10.043  28.113  1.00  0.00     0.189 C 
HETATM   36  O11 UNL     1     -14.118  11.169  27.953  1.00  0.00    -0.647 OA
HETATM   37  O12 UNL     1     -16.031   9.928  28.170  1.00  0.00    -0.647 OA
ENDBRANCH  34  35
ENDBRANCH  31  34
ENDBRANCH  30  31
ENDBRANCH  29  30
ENDBRANCH  26  29
BRANCH  26  38
HETATM   38  C19 UNL     1     -11.079   5.453  25.180  1.00  0.00     0.216 C 
HETATM   39  O13 UNL     1     -11.713   5.425  24.100  1.00  0.00    -0.646 OA
HETATM   40  O14 UNL     1     -11.134   4.317  25.983  1.00  0.00    -0.646 OA
ENDBRANCH  26  38
ENDBRANCH  11  22
BRANCH   1  41
HETATM   41  C3  UNL     1      -1.337   6.243  20.506  1.00  0.00     0.231 C 
BRANCH  41  42
HETATM   42  C2  UNL     1      -0.328   7.363  20.297  1.00  0.00     0.291 C 
BRANCH  42  43
HETATM   43  O1  UNL     1       0.877   6.772  19.950  1.00  0.00    -0.363 OA
HETATM   44  C1  UNL     1       1.907   7.663  20.313  1.00  0.00     0.204 C 
ENDBRANCH  42  43
BRANCH  42  45
HETATM   45  O2  UNL     1      -0.770   8.080  19.183  1.00  0.00    -0.368 OA
ATOM     46  H2  UNL     1      -0.314   8.913  19.187  1.00  0.00     0.212 HD
ENDBRANCH  42  45
ENDBRANCH  41  42
BRANCH  41  47
HETATM   47  O3  UNL     1      -0.579   5.077  20.320  1.00  0.00    -0.384 OA
ATOM     48  H3  UNL     1      -1.096   4.403  20.747  1.00  0.00     0.210 HD
ENDBRANCH  41  47
ENDBRANCH   1  41
BRANCH   3  49
HETATM   49  O5  UNL     1      -3.372   5.868  16.073  1.00  0.00    -0.340 OA
ATOM     50  H5  UNL     1      -3.239   5.075  15.569  1.00  0.00     0.220 HD
ENDBRANCH   3  49
TORSDOF 16
ENDMDL
MODEL 4
REMARK VINA RESULT: -7.902039647      8.175     11.314
REMARK  16 active torsions:
REMARK  status: ('A' for Active; 'I' for Inactive)
REMARK    1  A    between atoms: O1_2  and  C2_3 
REMARK    2  A    between atoms: C2_3  and  O2_4 
REMARK    3  A    between atoms: C2_3  and  C3_6 
REMARK    4  A    between atoms: C3_6  and  O3_7 
REMARK    5  A    between atoms: C3_6  and  C4_9 
REMARK    6  A    between atoms: C5_11  and  O5_12 
REMARK       I    between atoms: N1_19  and  C10_21 
REMARK    7  A    between atoms: C10_21  and  C11_23 
REMARK    8  A    between atoms: C15_29  and  C16_30 
REMARK    9  A    between atoms: C15_29  and  C19_39 
REMARK   10  A    between atoms: C16_30  and  O8_31 
REMARK   11  A    between atoms: O8_31  and  S2_32 
REMARK   12  A    between atoms: S2_32  and  C17_35 
REMARK   13  A    between atoms: C17_35  and  C18_36 
REMARK   14  A    between atoms: C20_42  and  C21_43 
REMARK   15  A    between atoms: C21_43  and  O15_44 
REMARK   16  A    between atoms: C21_43  and  O16_46 
ROOT
HETATM    1  C4  UNL     1      -5.506   6.193  26.078  1.00  0.00     0.105 A 
HETATM    2  O4  UNL     1      -6.165   7.064  25.322  1.00  0.00    -0.288 OA
HETATM    3  C5  UNL     1      -7.442   6.833  25.310  1.00  0.00     0.201 A 
HETATM    4  C6  UNL     1      -7.705   5.739  26.102  1.00  0.00     0.114 A 
HETATM    5  C7  UNL     1      -6.450   5.349  26.580  1.00  0.00     0.070 A 
HETATM    6  C8  UNL     1      -6.182   4.228  27.472  1.00  0.00     0.211 C 
HETATM    7  O6  UNL     1      -5.024   4.185  27.898  1.00  0.00    -0.285 OA
HETATM    8  C9  UNL     1      -7.104   3.165  27.912  1.00  0.00     0.098 C 
HETATM    9  N1  UNL     1      -6.753   2.578  28.956  1.00  0.00    -0.324 N 
ATOM     10  H1  UNL     1      -5.876   2.928  29.341  1.00  0.00     0.169 HD
HETATM   11  C10 UNL     1      -7.306   1.549  29.701  1.00  0.00     0.231 C 
HETATM   12  O7  UNL     1      -8.497   1.638  30.111  1.00  0.00    -0.273 OA
HETATM   13  C20 UNL     1      -8.351   2.800  27.211  1.00  0.00     0.240 C 
HETATM   14  O17 UNL     1      -9.211   3.916  27.044  1.00  0.00    -0.300 OA
HETATM   15  C22 UNL     1      -8.986   5.114  26.388  1.00  0.00     0.300 C 
HETATM   16  O18 UNL     1      -9.972   5.786  25.968  1.00  0.00    -0.259 OA
ENDROOT
BRANCH  13  17
HETATM   17  C21 UNL     1      -7.987   2.348  25.808  1.00  0.00     0.289 C 
BRANCH  17  18
HETATM   18  O15 UNL     1      -9.052   1.721  25.166  1.00  0.00    -0.368 OA
ATOM     19  H15 UNL     1      -9.375   2.228  24.429  1.00  0.00     0.212 HD
ENDBRANCH  17  18
BRANCH  17  20
HETATM   20  O16 UNL     1      -6.807   1.616  25.763  1.00  0.00    -0.368 OA
ATOM     21  H16 UNL     1      -6.581   1.328  24.886  1.00  0.00     0.212 HD
ENDBRANCH  17  20
ENDBRANCH  13  17
BRANCH  11  22
HETATM   22  C11 UNL     1      -6.498   0.346  30.019  1.00  0.00     0.150 C 
HETATM   23  C12 UNL     1      -4.994   0.590  30.001  1.00  0.00     0.293 C 
HETATM   24  N2  UNL     1      -5.013   0.600  31.421  1.00  0.00     0.128 N 
HETATM   25  C13 UNL     1      -6.356   0.129  31.517  1.00  0.00     0.300 C 
HETATM   26  C15 UNL     1      -4.131  -0.180  32.173  1.00  0.00     0.278 C 
HETATM   27  S1  UNL     1      -6.173  -1.673  31.817  1.00  0.00    -0.129 SA
HETATM   28  C14 UNL     1      -4.332  -1.646  31.855  1.00  0.00     0.132 C 
BRANCH  26  29
HETATM   29  C16 UNL     1      -2.695   0.152  31.739  1.00  0.00     0.244 C 
BRANCH  29  30
HETATM   30  O8  UNL     1      -1.928   0.029  32.885  1.00  0.00    -0.272 OA
BRANCH  30  31
HETATM   31  S2  UNL     1      -0.622   1.043  32.782  1.00  0.00     0.275 S 
HETATM   32  O9  UNL     1       0.148   0.930  34.077  1.00  0.00    -0.198 OA
HETATM   33  O10 UNL     1      -1.076   2.461  32.606  1.00  0.00    -0.198 OA
BRANCH  31  34
HETATM   34  C17 UNL     1       0.447   0.527  31.487  1.00  0.00     0.283 C 
BRANCH  34  35
HETATM   35  C18 UNL     1       1.317  -0.609  31.894  1.00  0.00     0.189 C 
HETATM   36  O11 UNL     1       2.541  -0.582  31.595  1.00  0.00    -0.647 OA
HETATM   37  O12 UNL     1       0.789  -1.671  32.589  1.00  0.00    -0.647 OA
ENDBRANCH  34  35
ENDBRANCH  31  34
ENDBRANCH  30  31
ENDBRANCH  29  30
ENDBRANCH  26  29
BRANCH  26  38
HETATM   38  C19 UNL     1      -4.250   0.087  33.608  1.00  0.00     0.216 C 
HETATM   39  O13 UNL     1      -4.215  -0.867  34.418  1.00  0.00    -0.646 OA
HETATM   40  O14 UNL     1      -4.404   1.367  34.135  1.00  0.00    -0.646 OA
ENDBRANCH  26  38
ENDBRANCH  11  22
BRANCH   1  41
HETATM   41  C3  UNL     1      -4.042   6.201  26.285  1.00  0.00     0.231 C 
BRANCH  41  42
HETATM   42  C2  UNL     1      -3.606   7.426  27.076  1.00  0.00     0.291 C 
BRANCH  42  43
HETATM   43  O1  UNL     1      -2.671   8.101  26.307  1.00  0.00    -0.363 OA
HETATM   44  C1  UNL     1      -2.362   9.304  26.973  1.00  0.00     0.204 C 
ENDBRANCH  42  43
BRANCH  42  45
HETATM   45  O2  UNL     1      -4.732   8.248  27.168  1.00  0.00    -0.368 OA
ATOM     46  H2  UNL     1      -5.345   7.817  27.751  1.00  0.00     0.212 HD
ENDBRANCH  42  45
ENDBRANCH  41  42
BRANCH  41  47
HETATM   47  O3  UNL     1      -3.457   6.397  25.024  1.00  0.00    -0.384 OA
ATOM     48  H3  UNL     1      -3.356   5.515  24.685  1.00  0.00     0.210 HD
ENDBRANCH  41  47
ENDBRANCH   1  41
BRANCH   3  49
HETATM   49  O5  UNL     1      -8.453   7.528  24.637  1.00  0.00    -0.340 OA
ATOM     50  H5  UNL     1      -9.327   7.748  24.938  1.00  0.00     0.220 HD
ENDBRANCH   3  49
TORSDOF 16
ENDMDL
MODEL 5
REMARK VINA RESULT: -7.768185534      3.464      4.580
REMARK  16 active torsions:
REMARK  status: ('A' for Active; 'I' for Inactive)
REMARK    1  A    between atoms: O1_2  and  C2_3 
REMARK    2  A    between atoms: C2_3  and  O2_4 
REMARK    3  A    between atoms: C2_3  and  C3_6 
REMARK    4  A    between atoms: C3_6  and  O3_7 
REMARK    5  A    between atoms: C3_6  and  C4_9 
REMARK    6  A    between atoms: C5_11  and  O5_12 
REMARK       I    between atoms: N1_19  and  C10_21 
REMARK    7  A    between atoms: C10_21  and  C11_23 
REMARK    8  A    between atoms: C15_29  and  C16_30 
REMARK    9  A    between atoms: C15_29  and  C19_39 
REMARK   10  A    between atoms: C16_30  and  O8_31 
REMARK   11  A    between atoms: O8_31  and  S2_32 
REMARK   12  A    between atoms: S2_32  and  C17_35 
REMARK   13  A    between atoms: C17_35  and  C18_36 
REMARK   14  A    between atoms: C20_42  and  C21_43 
REMARK   15  A    between atoms: C21_43  and  O15_44 
REMARK   16  A    between atoms: C21_43  and  O16_46 
ROOT
HETATM    1  C4  UNL     1      -2.544   6.713  19.178  1.00  0.00     0.105 A 
HETATM    2  O4  UNL     1      -2.138   6.718  17.913  1.00  0.00    -0.288 OA
HETATM    3  C5  UNL     1      -3.067   7.126  17.103  1.00  0.00     0.201 A 
HETATM    4  C6  UNL     1      -4.194   7.428  17.832  1.00  0.00     0.114 A 
HETATM    5  C7  UNL     1      -3.833   7.155  19.155  1.00  0.00     0.070 A 
HETATM    6  C8  UNL     1      -4.684   7.314  20.327  1.00  0.00     0.211 C 
HETATM    7  O6  UNL     1      -4.095   7.181  21.404  1.00  0.00    -0.285 OA
HETATM    8  C9  UNL     1      -6.129   7.606  20.379  1.00  0.00     0.098 C 
HETATM    9  N1  UNL     1      -6.521   8.077  21.466  1.00  0.00    -0.324 N 
ATOM     10  H1  UNL     1      -5.774   8.184  22.153  1.00  0.00     0.169 HD
HETATM   11  C10 UNL     1      -7.758   8.484  21.936  1.00  0.00     0.231 C 
HETATM   12  O7  UNL     1      -8.431   9.333  21.286  1.00  0.00    -0.273 OA
HETATM   13  C20 UNL     1      -7.065   7.382  19.260  1.00  0.00     0.240 C 
HETATM   14  O17 UNL     1      -6.650   8.050  18.080  1.00  0.00    -0.300 OA
HETATM   15  C22 UNL     1      -5.477   7.917  17.355  1.00  0.00     0.300 C 
HETATM   16  O18 UNL     1      -5.462   8.246  16.134  1.00  0.00    -0.259 OA
ENDROOT
BRANCH  13  17
HETATM   17  C21 UNL     1      -7.048   5.902  18.922  1.00  0.00     0.289 C 
BRANCH  17  18
HETATM   18  O15 UNL     1      -7.920   5.592  17.880  1.00  0.00    -0.368 OA
ATOM     19  H15 UNL     1      -8.831   5.652  18.145  1.00  0.00     0.212 HD
ENDBRANCH  17  18
BRANCH  17  20
HETATM   20  O16 UNL     1      -7.209   5.088  20.037  1.00  0.00    -0.368 OA
ATOM     21  H16 UNL     1      -6.580   5.273  20.725  1.00  0.00     0.212 HD
ENDBRANCH  17  20
ENDBRANCH  13  17
BRANCH  11  22
HETATM   22  C11 UNL     1      -8.292   7.924  23.202  1.00  0.00     0.150 C 
HETATM   23  C12 UNL     1      -8.217   6.404  23.285  1.00  0.00     0.293 C 
HETATM   24  N2  UNL     1      -7.100   6.542  24.152  1.00  0.00     0.128 N 
HETATM   25  C13 UNL     1      -7.263   7.949  24.321  1.00  0.00     0.300 C 
HETATM   26  C15 UNL     1      -7.035   5.873  25.377  1.00  0.00     0.278 C 
HETATM   27  S1  UNL     1      -8.158   8.102  25.916  1.00  0.00    -0.129 SA
HETATM   28  C14 UNL     1      -8.187   6.294  26.262  1.00  0.00     0.132 C 
BRANCH  26  29
HETATM   29  C16 UNL     1      -7.226   4.370  25.122  1.00  0.00     0.244 C 
BRANCH  29  30
HETATM   30  O8  UNL     1      -8.408   4.036  25.762  1.00  0.00    -0.272 OA
BRANCH  30  31
HETATM   31  S2  UNL     1      -8.411   2.415  26.100  1.00  0.00     0.275 S 
HETATM   32  O9  UNL     1      -7.180   1.814  25.463  1.00  0.00    -0.198 OA
HETATM   33  O10 UNL     1      -9.629   1.764  25.518  1.00  0.00    -0.198 OA
BRANCH  31  34
HETATM   34  C17 UNL     1      -8.287   2.156  27.833  1.00  0.00     0.283 C 
BRANCH  34  35
HETATM   35  C18 UNL     1      -6.878   1.984  28.278  1.00  0.00     0.189 C 
HETATM   36  O11 UNL     1      -6.533   0.899  28.820  1.00  0.00    -0.647 OA
HETATM   37  O12 UNL     1      -5.966   2.997  28.096  1.00  0.00    -0.647 OA
ENDBRANCH  34  35
ENDBRANCH  31  34
ENDBRANCH  30  31
ENDBRANCH  29  30
ENDBRANCH  26  29
BRANCH  26  38
HETATM   38  C19 UNL     1      -5.742   6.065  26.037  1.00  0.00     0.216 C 
HETATM   39  O13 UNL     1      -4.699   6.121  25.346  1.00  0.00    -0.646 OA
HETATM   40  O14 UNL     1      -5.601   6.191  27.416  1.00  0.00    -0.646 OA
ENDBRANCH  26  38
ENDBRANCH  11  22
BRANCH   1  41
HETATM   41  C3  UNL     1      -1.709   6.299  20.325  1.00  0.00     0.231 C 
BRANCH  41  42
HETATM   42  C2  UNL     1      -0.521   7.233  20.505  1.00  0.00     0.291 C 
BRANCH  42  43
HETATM   43  O1  UNL     1       0.595   6.580  20.003  1.00  0.00    -0.363 OA
HETATM   44  C1  UNL     1       1.716   7.392  20.267  1.00  0.00     0.204 C 
ENDBRANCH  42  43
BRANCH  42  45
HETATM   45  O2  UNL     1      -0.762   8.330  19.675  1.00  0.00    -0.368 OA
ATOM     46  H2  UNL     1      -1.200   8.988  20.202  1.00  0.00     0.212 HD
ENDBRANCH  42  45
ENDBRANCH  41  42
BRANCH  41  47
HETATM   47  O3  UNL     1      -1.118   5.076  19.973  1.00  0.00    -0.384 OA
ATOM     48  H3  UNL     1      -1.598   4.810  19.198  1.00  0.00     0.210 HD
ENDBRANCH  41  47
ENDBRANCH   1  41
BRANCH   3  49
HETATM   49  O5  UNL     1      -3.017   7.267  15.711  1.00  0.00    -0.340 OA
ATOM     50  H5  UNL     1      -2.508   7.878  15.193  1.00  0.00     0.220 HD
ENDBRANCH   3  49
TORSDOF 16
ENDMDL
