MODEL 1
REMARK VINA RESULT: -6.728752718      0.000      0.000
REMARK  3 active torsions:
REMARK  status: ('A' for Active; 'I' for Inactive)
REMARK    1  A    between atoms: C3_5  and  O1_6 
REMARK    2  A    between atoms: C4_8  and  C5_9 
REMARK    3  A    between atoms: C16_28  and  C17_29 
ROOT
HETATM    1  C1  UNL     1      14.259 -18.468  22.943  1.00  0.00     0.042 C 
HETATM    2  C2  UNL     1      15.700 -18.515  22.394  1.00  0.00     0.171 C 
HETATM    3  N1  UNL     1      15.817 -19.432  21.282  1.00  0.00    -0.360 N 
ATOM      4  H1  UNL     1      15.727 -20.410  21.556  1.00  0.00     0.162 HD
HETATM    5  C3  UNL     1      16.025 -19.264  19.936  1.00  0.00     0.135 C 
HETATM    6  C4  UNL     1      15.183 -18.732  18.838  1.00  0.00     0.162 C 
HETATM    7  N2  UNL     1      15.653 -17.467  18.321  1.00  0.00    -0.347 N 
ATOM      8  H2  UNL     1      16.487 -17.531  17.738  1.00  0.00     0.163 HD
HETATM    9  C8  UNL     1      15.162 -16.177  18.484  1.00  0.00     0.240 C 
HETATM   10  O2  UNL     1      14.786 -15.542  17.426  1.00  0.00    -0.271 OA
HETATM   11  C9  UNL     1      14.994 -15.378  19.722  1.00  0.00     0.174 C 
HETATM   12  C10 UNL     1      13.534 -15.180  20.108  1.00  0.00     0.042 C 
HETATM   13  N3  UNL     1      15.471 -14.000  19.492  1.00  0.00    -0.342 N 
HETATM   14  C11 UNL     1      14.595 -13.139  18.726  1.00  0.00     0.153 C 
HETATM   15  C12 UNL     1      16.677 -13.469  19.940  1.00  0.00     0.242 C 
HETATM   16  O3  UNL     1      17.288 -12.625  19.193  1.00  0.00    -0.271 OA
HETATM   17  C13 UNL     1      17.343 -13.793  21.238  1.00  0.00     0.172 C 
HETATM   18  C14 UNL     1      16.325 -13.913  22.341  1.00  0.00     0.042 C 
HETATM   19  N4  UNL     1      18.127 -14.985  21.016  1.00  0.00    -0.347 N 
ATOM     20  H4  UNL     1      17.825 -15.607  20.267  1.00  0.00     0.163 HD
HETATM   21  C15 UNL     1      19.284 -15.369  21.753  1.00  0.00     0.231 C 
HETATM   22  O4  UNL     1      20.286 -15.782  21.068  1.00  0.00    -0.273 OA
HETATM   23  C16 UNL     1      19.322 -15.290  23.226  1.00  0.00     0.172 C 
HETATM   24  C20 UNL     1      18.636 -16.379  23.937  1.00  0.00     0.164 C 
HETATM   25  O5  UNL     1      17.874 -16.036  24.864  1.00  0.00    -0.295 OA
HETATM   26  C21 UNL     1      18.703 -17.820  23.732  1.00  0.00     0.151 C 
HETATM   27  C22 UNL     1      18.982 -18.349  22.384  1.00  0.00     0.040 C 
HETATM   28  N5  UNL     1      17.501 -18.441  24.253  1.00  0.00    -0.348 N 
ATOM     29  H5  UNL     1      17.407 -18.419  25.268  1.00  0.00     0.163 HD
HETATM   30  C23 UNL     1      16.465 -19.059  23.581  1.00  0.00     0.240 C 
HETATM   31  O6  UNL     1      16.070 -20.204  23.955  1.00  0.00    -0.271 OA
ENDROOT
BRANCH  23  32
HETATM   32  C17 UNL     1      20.673 -14.989  23.797  1.00  0.00     0.049 C 
HETATM   33  C18 UNL     1      21.468 -16.127  24.301  1.00  0.00     0.033 C 
HETATM   34  C19 UNL     1      21.536 -14.224  22.791  1.00  0.00     0.033 C 
HETATM   35 CL1  UNL     1      20.415 -13.849  25.160  1.00  0.00    -0.119 Cl
ENDBRANCH  23  32
BRANCH   5  36
HETATM   36  O1  UNL     1      17.195 -19.641  19.484  1.00  0.00    -0.348 OA
ATOM     37  H1  UNL     1      17.490 -19.217  18.688  1.00  0.00     0.219 HD
ENDBRANCH   5  36
BRANCH   6  38
HETATM   38  C5  UNL     1      13.701 -18.812  19.077  1.00  0.00     0.008 C 
HETATM   39  C6  UNL     1      13.003 -18.630  17.730  1.00  0.00     0.012 C 
HETATM   40  C7  UNL     1      13.398 -20.228  19.528  1.00  0.00     0.012 C 
ENDBRANCH   6  38
TORSDOF 3
ENDMDL
MODEL 2
REMARK VINA RESULT: -6.631902017      1.782      5.139
REMARK  3 active torsions:
REMARK  status: ('A' for Active; 'I' for Inactive)
REMARK    1  A    between atoms: C3_5  and  O1_6 
REMARK    2  A    between atoms: C4_8  and  C5_9 
REMARK    3  A    between atoms: C16_28  and  C17_29 
ROOT
HETATM    1  C1  UNL     1      15.683 -15.516  18.426  1.00  0.00     0.042 C 
HETATM    2  C2  UNL     1      15.755 -14.991  19.875  1.00  0.00     0.171 C 
HETATM    3  N1  UNL     1      14.450 -14.619  20.373  1.00  0.00    -0.360 N 
ATOM      4  H1  UNL     1      14.073 -13.783  19.928  1.00  0.00     0.162 HD
HETATM    5  C3  UNL     1      13.611 -15.154  21.319  1.00  0.00     0.135 C 
HETATM    6  C4  UNL     1      12.792 -16.388  21.367  1.00  0.00     0.162 C 
HETATM    7  N2  UNL     1      13.283 -17.361  22.317  1.00  0.00    -0.347 N 
ATOM      8  H2  UNL     1      13.105 -17.127  23.294  1.00  0.00     0.163 HD
HETATM    9  C8  UNL     1      13.956 -18.562  22.124  1.00  0.00     0.240 C 
HETATM   10  O2  UNL     1      13.389 -19.640  22.549  1.00  0.00    -0.271 OA
HETATM   11  C9  UNL     1      15.271 -18.817  21.489  1.00  0.00     0.174 C 
HETATM   12  C10 UNL     1      15.155 -19.531  20.149  1.00  0.00     0.042 C 
HETATM   13  N3  UNL     1      16.042 -19.770  22.312  1.00  0.00    -0.342 N 
HETATM   14  C11 UNL     1      15.644 -21.159  22.225  1.00  0.00     0.153 C 
HETATM   15  C12 UNL     1      17.103 -19.449  23.155  1.00  0.00     0.242 C 
HETATM   16  O3  UNL     1      17.234 -20.105  24.249  1.00  0.00    -0.271 OA
HETATM   17  C13 UNL     1      18.126 -18.390  22.902  1.00  0.00     0.172 C 
HETATM   18  C14 UNL     1      18.524 -18.372  21.449  1.00  0.00     0.042 C 
HETATM   19  N4  UNL     1      17.568 -17.149  23.384  1.00  0.00    -0.347 N 
ATOM     20  H4  UNL     1      16.551 -17.077  23.413  1.00  0.00     0.163 HD
HETATM   21  C15 UNL     1      18.312 -16.015  23.821  1.00  0.00     0.231 C 
HETATM   22  O4  UNL     1      17.921 -15.461  24.910  1.00  0.00    -0.273 OA
HETATM   23  C16 UNL     1      19.470 -15.512  23.058  1.00  0.00     0.172 C 
HETATM   24  C20 UNL     1      19.147 -14.711  21.869  1.00  0.00     0.164 C 
HETATM   25  O5  UNL     1      19.763 -15.004  20.824  1.00  0.00    -0.295 OA
HETATM   26  C21 UNL     1      18.208 -13.609  21.709  1.00  0.00     0.151 C 
HETATM   27  C22 UNL     1      17.001 -13.556  22.555  1.00  0.00     0.040 C 
HETATM   28  N5  UNL     1      17.823 -13.497  20.316  1.00  0.00    -0.348 N 
ATOM     29  H5  UNL     1      18.561 -13.183  19.686  1.00  0.00     0.163 HD
HETATM   30  C23 UNL     1      16.607 -13.751  19.713  1.00  0.00     0.240 C 
HETATM   31  O6  UNL     1      16.104 -12.891  18.929  1.00  0.00    -0.271 OA
ENDROOT
BRANCH  23  32
HETATM   32  C17 UNL     1      20.544 -14.892  23.898  1.00  0.00     0.049 C 
HETATM   33  C18 UNL     1      20.158 -13.771  24.777  1.00  0.00     0.033 C 
HETATM   34  C19 UNL     1      21.244 -15.946  24.761  1.00  0.00     0.033 C 
HETATM   35 CL1  UNL     1      21.806 -14.297  22.766  1.00  0.00    -0.119 Cl
ENDBRANCH  23  32
BRANCH   5  36
HETATM   36  O1  UNL     1      13.475 -14.461  22.422  1.00  0.00    -0.348 OA
ATOM     37  H1  UNL     1      12.591 -14.389  22.761  1.00  0.00     0.219 HD
ENDBRANCH   5  36
BRANCH   6  38
HETATM   38  C5  UNL     1      12.402 -16.945  20.027  1.00  0.00     0.008 C 
HETATM   39  C6  UNL     1      11.228 -17.899  20.245  1.00  0.00     0.012 C 
HETATM   40  C7  UNL     1      11.866 -15.790  19.203  1.00  0.00     0.012 C 
ENDBRANCH   6  38
TORSDOF 3
ENDMDL
MODEL 3
REMARK VINA RESULT: -6.445361354      3.409      6.766
REMARK  3 active torsions:
REMARK  status: ('A' for Active; 'I' for Inactive)
REMARK    1  A    between atoms: C3_5  and  O1_6 
REMARK    2  A    between atoms: C4_8  and  C5_9 
REMARK    3  A    between atoms: C16_28  and  C17_29 
ROOT
HETATM    1  C1  UNL     1      14.775 -21.055  17.664  1.00  0.00     0.042 C 
HETATM    2  C2  UNL     1      13.754 -20.237  18.483  1.00  0.00     0.171 C 
HETATM    3  N1  UNL     1      12.686 -21.070  18.989  1.00  0.00    -0.360 N 
ATOM      4  H1  UNL     1      12.059 -21.408  18.259  1.00  0.00     0.162 HD
HETATM    5  C3  UNL     1      12.338 -21.502  20.244  1.00  0.00     0.135 C 
HETATM    6  C4  UNL     1      12.946 -22.468  21.189  1.00  0.00     0.162 C 
HETATM    7  N2  UNL     1      13.507 -21.839  22.364  1.00  0.00    -0.347 N 
ATOM      8  H2  UNL     1      12.818 -21.512  23.040  1.00  0.00     0.163 HD
HETATM    9  C8  UNL     1      14.829 -21.606  22.727  1.00  0.00     0.240 C 
HETATM   10  O2  UNL     1      15.254 -22.152  23.815  1.00  0.00    -0.271 OA
HETATM   11  C9  UNL     1      15.868 -20.799  22.045  1.00  0.00     0.174 C 
HETATM   12  C10 UNL     1      16.972 -21.649  21.431  1.00  0.00     0.042 C 
HETATM   13  N3  UNL     1      16.589 -19.978  23.038  1.00  0.00    -0.342 N 
HETATM   14  C11 UNL     1      17.558 -20.672  23.861  1.00  0.00     0.153 C 
HETATM   15  C12 UNL     1      16.415 -18.613  23.249  1.00  0.00     0.242 C 
HETATM   16  O3  UNL     1      16.510 -18.163  24.446  1.00  0.00    -0.271 OA
HETATM   17  C13 UNL     1      16.123 -17.598  22.192  1.00  0.00     0.172 C 
HETATM   18  C14 UNL     1      16.916 -17.888  20.945  1.00  0.00     0.042 C 
HETATM   19  N4  UNL     1      14.692 -17.595  22.003  1.00  0.00    -0.347 N 
ATOM     20  H4  UNL     1      14.190 -18.451  22.241  1.00  0.00     0.163 HD
HETATM   21  C15 UNL     1      13.918 -16.503  21.514  1.00  0.00     0.231 C 
HETATM   22  O4  UNL     1      12.836 -16.240  22.149  1.00  0.00    -0.273 OA
HETATM   23  C16 UNL     1      14.347 -15.720  20.340  1.00  0.00     0.172 C 
HETATM   24  C20 UNL     1      14.098 -16.346  19.034  1.00  0.00     0.164 C 
HETATM   25  O5  UNL     1      15.051 -16.335  18.228  1.00  0.00    -0.295 OA
HETATM   26  C21 UNL     1      12.897 -16.988  18.517  1.00  0.00     0.151 C 
HETATM   27  C22 UNL     1      11.970 -17.653  19.452  1.00  0.00     0.040 C 
HETATM   28  N5  UNL     1      13.256 -17.911  17.458  1.00  0.00    -0.348 N 
ATOM     29  H5  UNL     1      13.598 -17.477  16.602  1.00  0.00     0.163 HD
HETATM   30  C23 UNL     1      13.205 -19.291  17.436  1.00  0.00     0.240 C 
HETATM   31  O6  UNL     1      12.655 -19.883  16.460  1.00  0.00    -0.271 OA
ENDROOT
BRANCH  23  32
HETATM   32  C17 UNL     1      13.944 -14.278  20.376  1.00  0.00     0.049 C 
HETATM   33  C18 UNL     1      12.505 -13.977  20.509  1.00  0.00     0.033 C 
HETATM   34  C19 UNL     1      14.686 -13.527  21.485  1.00  0.00     0.033 C 
HETATM   35 CL1  UNL     1      14.522 -13.542  18.842  1.00  0.00    -0.119 Cl
ENDBRANCH  23  32
BRANCH   5  36
HETATM   36  O1  UNL     1      11.247 -20.980  20.748  1.00  0.00    -0.348 OA
ATOM     37  H1  UNL     1      10.524 -21.580  20.885  1.00  0.00     0.219 HD
ENDBRANCH   5  36
BRANCH   6  38
HETATM   38  C5  UNL     1      13.809 -23.522  20.554  1.00  0.00     0.008 C 
HETATM   39  C6  UNL     1      14.028 -24.626  21.587  1.00  0.00     0.012 C 
HETATM   40  C7  UNL     1      13.002 -24.142  19.430  1.00  0.00     0.012 C 
ENDBRANCH   6  38
TORSDOF 3
ENDMDL
MODEL 4
REMARK VINA RESULT: -6.312089128      2.708      6.083
REMARK  3 active torsions:
REMARK  status: ('A' for Active; 'I' for Inactive)
REMARK    1  A    between atoms: C3_5  and  O1_6 
REMARK    2  A    between atoms: C4_8  and  C5_9 
REMARK    3  A    between atoms: C16_28  and  C17_29 
ROOT
HETATM    1  C1  UNL     1      16.055 -18.890  18.376  1.00  0.00     0.042 C 
HETATM    2  C2  UNL     1      14.969 -18.201  19.228  1.00  0.00     0.171 C 
HETATM    3  N1  UNL     1      14.236 -19.154  20.031  1.00  0.00    -0.360 N 
ATOM      4  H1  UNL     1      13.632 -19.764  19.480  1.00  0.00     0.162 HD
HETATM    5  C3  UNL     1      14.181 -19.411  21.378  1.00  0.00     0.135 C 
HETATM    6  C4  UNL     1      15.142 -20.006  22.337  1.00  0.00     0.162 C 
HETATM    7  N2  UNL     1      15.664 -19.051  23.288  1.00  0.00    -0.347 N 
ATOM      8  H2  UNL     1      15.006 -18.775  24.017  1.00  0.00     0.163 HD
HETATM    9  C8  UNL     1      16.911 -18.443  23.377  1.00  0.00     0.240 C 
HETATM   10  O2  UNL     1      17.604 -18.655  24.444  1.00  0.00    -0.271 OA
HETATM   11  C9  UNL     1      17.601 -17.555  22.411  1.00  0.00     0.174 C 
HETATM   12  C10 UNL     1      18.801 -18.216  21.748  1.00  0.00     0.042 C 
HETATM   13  N3  UNL     1      18.200 -16.412  23.129  1.00  0.00    -0.342 N 
HETATM   14  C11 UNL     1      19.416 -16.685  23.864  1.00  0.00     0.153 C 
HETATM   15  C12 UNL     1      17.698 -15.114  23.160  1.00  0.00     0.242 C 
HETATM   16  O3  UNL     1      17.824 -14.436  24.240  1.00  0.00    -0.271 OA
HETATM   17  C13 UNL     1      17.011 -14.418  22.030  1.00  0.00     0.172 C 
HETATM   18  C14 UNL     1      17.684 -14.741  20.721  1.00  0.00     0.042 C 
HETATM   19  N4  UNL     1      15.619 -14.794  22.095  1.00  0.00    -0.347 N 
ATOM     20  H4  UNL     1      15.398 -15.684  22.541  1.00  0.00     0.163 HD
HETATM   21  C15 UNL     1      14.526 -14.032  21.590  1.00  0.00     0.231 C 
HETATM   22  O4  UNL     1      13.504 -13.920  22.357  1.00  0.00    -0.273 OA
HETATM   23  C16 UNL     1      14.575 -13.406  20.255  1.00  0.00     0.172 C 
HETATM   24  C20 UNL     1      14.334 -14.309  19.121  1.00  0.00     0.164 C 
HETATM   25  O5  UNL     1      15.136 -14.223  18.169  1.00  0.00    -0.295 OA
HETATM   26  C21 UNL     1      13.290 -15.307  18.923  1.00  0.00     0.151 C 
HETATM   27  C22 UNL     1      12.703 -15.984  20.095  1.00  0.00     0.040 C 
HETATM   28  N5  UNL     1      13.741 -16.300  17.969  1.00  0.00    -0.348 N 
ATOM     29  H5  UNL     1      13.841 -15.966  17.010  1.00  0.00     0.163 HD
HETATM   30  C23 UNL     1      14.057 -17.630  18.163  1.00  0.00     0.240 C 
HETATM   31  O6  UNL     1      13.562 -18.510  17.397  1.00  0.00    -0.271 OA
ENDROOT
BRANCH  23  32
HETATM   32  C17 UNL     1      13.810 -12.122  20.144  1.00  0.00     0.049 C 
HETATM   33  C18 UNL     1      12.444 -12.094  20.702  1.00  0.00     0.033 C 
HETATM   34  C19 UNL     1      14.594 -10.961  20.761  1.00  0.00     0.033 C 
HETATM   35 CL1  UNL     1      13.700 -11.738  18.392  1.00  0.00    -0.119 Cl
ENDBRANCH  23  32
BRANCH   5  36
HETATM   36  O1  UNL     1      13.066 -19.080  21.980  1.00  0.00    -0.348 OA
ATOM     37  H1  UNL     1      12.709 -19.725  22.579  1.00  0.00     0.219 HD
ENDBRANCH   5  36
BRANCH   6  38
HETATM   38  C5  UNL     1      16.165 -20.923  21.727  1.00  0.00     0.008 C 
HETATM   39  C6  UNL     1      16.804 -21.725  22.860  1.00  0.00     0.012 C 
HETATM   40  C7  UNL     1      15.412 -21.921  20.868  1.00  0.00     0.012 C 
ENDBRANCH   6  38
TORSDOF 3
ENDMDL
MODEL 5
REMARK VINA RESULT: -6.196748995      4.882      8.419
REMARK  3 active torsions:
REMARK  status: ('A' for Active; 'I' for Inactive)
REMARK    1  A    between atoms: C3_5  and  O1_6 
REMARK    2  A    between atoms: C4_8  and  C5_9 
REMARK    3  A    between atoms: C16_28  and  C17_29 
ROOT
HETATM    1  C1  UNL     1      24.294 -20.552  25.632  1.00  0.00     0.042 C 
HETATM    2  C2  UNL     1      24.108 -19.233  24.854  1.00  0.00     0.171 C 
HETATM    3  N1  UNL     1      25.295 -18.880  24.109  1.00  0.00    -0.360 N 
ATOM      4  H1  UNL     1      26.073 -18.597  24.704  1.00  0.00     0.162 HD
HETATM    5  C3  UNL     1      25.596 -18.846  22.771  1.00  0.00     0.135 C 
HETATM    6  C4  UNL     1      25.804 -19.901  21.750  1.00  0.00     0.162 C 
HETATM    7  N2  UNL     1      24.752 -19.950  20.760  1.00  0.00    -0.347 N 
ATOM      8  H2  UNL     1      24.777 -19.193  20.077  1.00  0.00     0.163 HD
HETATM    9  C8  UNL     1      23.712 -20.855  20.582  1.00  0.00     0.240 C 
HETATM   10  O2  UNL     1      23.672 -21.509  19.470  1.00  0.00    -0.271 OA
HETATM   11  C9  UNL     1      22.595 -21.204  21.492  1.00  0.00     0.174 C 
HETATM   12  C10 UNL     1      22.718 -22.606  22.073  1.00  0.00     0.042 C 
HETATM   13  N3  UNL     1      21.333 -21.266  20.728  1.00  0.00    -0.342 N 
HETATM   14  C11 UNL     1      21.137 -22.444  19.911  1.00  0.00     0.153 C 
HETATM   15  C12 UNL     1      20.333 -20.298  20.724  1.00  0.00     0.242 C 
HETATM   16  O3  UNL     1      19.693 -20.083  19.634  1.00  0.00    -0.271 OA
HETATM   17  C13 UNL     1      19.921 -19.466  21.895  1.00  0.00     0.172 C 
HETATM   18  C14 UNL     1      19.915 -20.291  23.156  1.00  0.00     0.042 C 
HETATM   19  N4  UNL     1      20.809 -18.328  21.929  1.00  0.00    -0.347 N 
ATOM     20  H4  UNL     1      21.729 -18.444  21.505  1.00  0.00     0.163 HD
HETATM   21  C15 UNL     1      20.514 -17.059  22.505  1.00  0.00     0.231 C 
HETATM   22  O4  UNL     1      20.832 -16.029  21.811  1.00  0.00    -0.273 OA
HETATM   23  C16 UNL     1      19.875 -16.943  23.830  1.00  0.00     0.172 C 
HETATM   24  C20 UNL     1      20.764 -17.143  24.983  1.00  0.00     0.164 C 
HETATM   25  O5  UNL     1      20.344 -17.906  25.876  1.00  0.00    -0.295 OA
HETATM   26  C21 UNL     1      22.081 -16.583  25.259  1.00  0.00     0.151 C 
HETATM   27  C22 UNL     1      22.971 -16.235  24.135  1.00  0.00     0.040 C 
HETATM   28  N5  UNL     1      22.790 -17.444  26.185  1.00  0.00    -0.348 N 
ATOM     29  H5  UNL     1      22.414 -17.465  27.132  1.00  0.00     0.163 HD
HETATM   30  C23 UNL     1      23.900 -18.239  25.976  1.00  0.00     0.240 C 
HETATM   31  O6  UNL     1      24.878 -18.173  26.780  1.00  0.00    -0.271 OA
ENDROOT
BRANCH  23  32
HETATM   32  C17 UNL     1      18.985 -15.748  23.987  1.00  0.00     0.049 C 
HETATM   33  C18 UNL     1      19.629 -14.421  24.027  1.00  0.00     0.033 C 
HETATM   34  C19 UNL     1      17.911 -15.716  22.897  1.00  0.00     0.033 C 
HETATM   35 CL1  UNL     1      18.087 -15.973  25.526  1.00  0.00    -0.119 Cl
ENDBRANCH  23  32
BRANCH   5  36
HETATM   36  O1  UNL     1      25.743 -17.655  22.246  1.00  0.00    -0.348 OA
ATOM     37  H1  UNL     1      24.996 -17.073  22.321  1.00  0.00     0.219 HD
ENDBRANCH   5  36
BRANCH   6  38
HETATM   38  C5  UNL     1      26.232 -21.236  22.293  1.00  0.00     0.008 C 
HETATM   39  C6  UNL     1      26.762 -22.064  21.123  1.00  0.00     0.012 C 
HETATM   40  C7  UNL     1      27.415 -20.985  23.209  1.00  0.00     0.012 C 
ENDBRANCH   6  38
TORSDOF 3
ENDMDL
