MODEL 1
REMARK VINA RESULT: -10.546098839      0.000      0.000
REMARK  14 active torsions:
REMARK  status: ('A' for Active; 'I' for Inactive)
REMARK    1  A    between atoms: C6_15  and  C7_16 
REMARK    2  A    between atoms: C7_16  and  O4_17 
REMARK    3  A    between atoms: O4_17  and  S1_18 
REMARK    4  A    between atoms: S1_18  and  C8_21 
REMARK    5  A    between atoms: C11_24  and  O7_25 
REMARK    6  A    between atoms: C12_27  and  N5_28 
REMARK    7  A    between atoms: C14_30  and  C15_31 
REMARK    8  A    between atoms: C15_31  and  S2_32 
REMARK    9  A    between atoms: S2_32  and  C16_33 
REMARK   10  A    between atoms: C16_33  and  C17_34 
REMARK   11  A    between atoms: C17_34  and  O8_35 
REMARK   12  A    between atoms: C18_41  and  O9_42 
REMARK   13  A    between atoms: O9_42  and  S3_43 
REMARK   14  A    between atoms: C19_47  and  C20_48 
ROOT
HETATM    1  C8  UNL     1      49.452  89.717  37.895  1.00  0.00     0.124 A 
HETATM    2  C9  UNL     1      50.232  90.133  36.857  1.00  0.00     0.032 A 
HETATM    3  C10 UNL     1      51.436  89.508  36.587  1.00  0.00     0.040 A 
HETATM    4  C11 UNL     1      51.894  88.464  37.331  1.00  0.00     0.097 A 
HETATM    5  C12 UNL     1      51.144  87.994  38.397  1.00  0.00     0.126 A 
HETATM    6  C18 UNL     1      49.952  88.638  38.639  1.00  0.00     0.147 A 
ENDROOT
BRANCH   1   7
HETATM    7  S1  UNL     1      47.797  90.491  38.427  1.00  0.00     0.305 S 
HETATM    8  O5  UNL     1      47.136  89.056  36.637  1.00  0.00    -0.193 OA
HETATM    9  O6  UNL     1      46.428  89.995  38.742  1.00  0.00    -0.193 OA
BRANCH   7  10
HETATM   10  O4  UNL     1      47.767  91.899  38.216  1.00  0.00    -0.240 OA
BRANCH  10  11
HETATM   11  C7  UNL     1      47.523  92.895  37.407  1.00  0.00     0.176 C 
BRANCH  11  12
HETATM   12  C6  UNL     1      48.222  93.663  36.451  1.00  0.00     0.090 C 
HETATM   13  C5  UNL     1      48.812  94.887  37.145  1.00  0.00     0.258 C 
HETATM   14  N4  UNL     1      49.784  95.811  36.746  1.00  0.00    -0.327 N 
HETATM   15  O3  UNL     1      48.322  95.099  38.302  1.00  0.00    -0.267 OA
HETATM   16  C4  UNL     1      50.537  95.941  35.496  1.00  0.00     0.283 C 
ATOM     17  H4  UNL     1      50.007  96.517  37.447  1.00  0.00     0.165 HD
HETATM   18  C3  UNL     1      49.533  95.601  34.371  1.00  0.00     0.283 C 
HETATM   19  N3  UNL     1      51.555  94.930  35.464  1.00  0.00    -0.331 N 
HETATM   20  N2  UNL     1      49.263  94.227  34.254  1.00  0.00    -0.216 N 
HETATM   21  O2  UNL     1      49.117  96.590  33.746  1.00  0.00    -0.267 OA
HETATM   22  N1  UNL     1      49.748  93.241  33.407  1.00  0.00    -0.121 NA
HETATM   23  C19 UNL     1      48.434  93.406  35.183  1.00  0.00     0.150 C 
HETATM   24  C2  UNL     1      51.200  93.092  33.643  1.00  0.00     0.238 C 
HETATM   25  C1  UNL     1      51.603  93.634  34.913  1.00  0.00     0.235 C 
HETATM   26  O1  UNL     1      52.110  92.770  35.709  1.00  0.00    -0.272 OA
ATOM     27  H3  UNL     1      52.417  95.204  35.936  1.00  0.00     0.165 HD
BRANCH  23  28
HETATM   28  C20 UNL     1      47.800  92.317  34.568  1.00  0.00     0.229 C 
HETATM   29  O13 UNL     1      48.198  91.178  34.399  1.00  0.00    -0.643 OA
HETATM   30  O14 UNL     1      46.483  92.473  34.027  1.00  0.00    -0.643 OA
ENDBRANCH  23  28
ENDBRANCH  11  12
ENDBRANCH  10  11
ENDBRANCH   7  10
ENDBRANCH   1   7
BRANCH   6  31
HETATM   31  O9  UNL     1      49.170  88.170  39.725  1.00  0.00    -0.210 OA
BRANCH  31  32
HETATM   32  S3  UNL     1      49.422  88.880  41.234  1.00  0.00     0.257 S 
HETATM   33  O10 UNL     1      48.126  89.160  41.949  1.00  0.00    -0.572 OA
HETATM   34  O11 UNL     1      50.186  87.929  42.146  1.00  0.00    -0.572 OA
HETATM   35  O12 UNL     1      50.268  90.321  41.173  1.00  0.00    -0.572 OA
ENDBRANCH  31  32
ENDBRANCH   6  31
BRANCH   5  36
HETATM   36  N5  UNL     1      51.641  86.911  39.128  1.00  0.00    -0.246 N 
HETATM   37  C13 UNL     1      51.466  85.617  38.834  1.00  0.00     0.145 A 
HETATM   38  C14 UNL     1      52.106  84.829  39.799  1.00  0.00     0.054 A 
HETATM   39  N6  UNL     1      52.642  85.726  40.640  1.00  0.00    -0.288 N 
HETATM   40  N7  UNL     1      52.357  86.966  40.229  1.00  0.00    -0.236 N 
ATOM     41  H6  UNL     1      53.187  85.496  41.471  1.00  0.00     0.188 HD
ATOM     42  H7  UNL     1      52.649  87.823  40.698  1.00  0.00     0.209 HD
BRANCH  38  43
HETATM   43  C15 UNL     1      52.130  83.363  39.752  1.00  0.00     0.134 C 
BRANCH  43  44
HETATM   44  S2  UNL     1      52.126  82.607  38.141  1.00  0.00    -0.161 SA
BRANCH  44  45
HETATM   45  C16 UNL     1      51.390  81.006  37.987  1.00  0.00     0.100 C 
BRANCH  45  46
HETATM   46  C17 UNL     1      50.219  80.743  38.880  1.00  0.00     0.174 C 
BRANCH  46  47
HETATM   47  O8  UNL     1      50.590  80.117  40.081  1.00  0.00    -0.400 OA
ATOM     48  H8  UNL     1      49.860  79.676  40.501  1.00  0.00     0.209 HD
ENDBRANCH  46  47
ENDBRANCH  45  46
ENDBRANCH  44  45
ENDBRANCH  43  44
ENDBRANCH  38  43
ENDBRANCH   5  36
BRANCH   4  49
HETATM   49  O7  UNL     1      53.128  87.856  37.020  1.00  0.00    -0.358 OA
ATOM     50  H7  UNL     1      53.518  87.232  37.620  1.00  0.00     0.217 HD
ENDBRANCH   4  49
TORSDOF 14
ENDMDL
MODEL 2
REMARK VINA RESULT: -10.425941579      1.174      1.432
REMARK  14 active torsions:
REMARK  status: ('A' for Active; 'I' for Inactive)
REMARK    1  A    between atoms: C6_15  and  C7_16 
REMARK    2  A    between atoms: C7_16  and  O4_17 
REMARK    3  A    between atoms: O4_17  and  S1_18 
REMARK    4  A    between atoms: S1_18  and  C8_21 
REMARK    5  A    between atoms: C11_24  and  O7_25 
REMARK    6  A    between atoms: C12_27  and  N5_28 
REMARK    7  A    between atoms: C14_30  and  C15_31 
REMARK    8  A    between atoms: C15_31  and  S2_32 
REMARK    9  A    between atoms: S2_32  and  C16_33 
REMARK   10  A    between atoms: C16_33  and  C17_34 
REMARK   11  A    between atoms: C17_34  and  O8_35 
REMARK   12  A    between atoms: C18_41  and  O9_42 
REMARK   13  A    between atoms: O9_42  and  S3_43 
REMARK   14  A    between atoms: C19_47  and  C20_48 
ROOT
HETATM    1  C8  UNL     1      49.534  89.608  37.981  1.00  0.00     0.124 A 
HETATM    2  C9  UNL     1      50.327  89.979  36.935  1.00  0.00     0.032 A 
HETATM    3  C10 UNL     1      51.513  89.315  36.682  1.00  0.00     0.040 A 
HETATM    4  C11 UNL     1      51.942  88.276  37.449  1.00  0.00     0.097 A 
HETATM    5  C12 UNL     1      51.178  87.851  38.524  1.00  0.00     0.126 A 
HETATM    6  C18 UNL     1      50.004  88.532  38.750  1.00  0.00     0.147 A 
ENDROOT
BRANCH   1   7
HETATM    7  S1  UNL     1      47.901  90.438  38.494  1.00  0.00     0.305 S 
HETATM    8  O5  UNL     1      47.210  89.018  36.703  1.00  0.00    -0.193 OA
HETATM    9  O6  UNL     1      46.513  89.989  38.797  1.00  0.00    -0.193 OA
BRANCH   7  10
HETATM   10  O4  UNL     1      47.920  91.846  38.277  1.00  0.00    -0.240 OA
BRANCH  10  11
HETATM   11  C7  UNL     1      47.656  92.849  37.485  1.00  0.00     0.176 C 
BRANCH  11  12
HETATM   12  C6  UNL     1      48.318  93.600  36.488  1.00  0.00     0.090 C 
HETATM   13  C5  UNL     1      48.957  94.821  37.141  1.00  0.00     0.258 C 
HETATM   14  N4  UNL     1      49.921  95.728  36.685  1.00  0.00    -0.327 N 
HETATM   15  O3  UNL     1      48.528  95.050  38.319  1.00  0.00    -0.267 OA
HETATM   16  C4  UNL     1      50.613  95.836  35.399  1.00  0.00     0.283 C 
ATOM     17  H4  UNL     1      50.188  96.437  37.368  1.00  0.00     0.165 HD
HETATM   18  C3  UNL     1      49.551  95.501  34.328  1.00  0.00     0.283 C 
HETATM   19  N3  UNL     1      51.614  94.811  35.327  1.00  0.00    -0.331 N 
HETATM   20  N2  UNL     1      49.257  94.130  34.237  1.00  0.00    -0.216 N 
HETATM   21  O2  UNL     1      49.117  96.489  33.714  1.00  0.00    -0.267 OA
HETATM   22  N1  UNL     1      49.686  93.129  33.377  1.00  0.00    -0.121 NA
HETATM   23  C19 UNL     1      48.464  93.329  35.214  1.00  0.00     0.150 C 
HETATM   24  C2  UNL     1      51.146  92.962  33.543  1.00  0.00     0.238 C 
HETATM   25  C1  UNL     1      51.618  93.510  34.786  1.00  0.00     0.235 C 
HETATM   26  O1  UNL     1      52.151  92.646  35.565  1.00  0.00    -0.272 OA
ATOM     27  H3  UNL     1      52.502  95.077  35.753  1.00  0.00     0.165 HD
BRANCH  23  28
HETATM   28  C20 UNL     1      47.785  92.243  34.641  1.00  0.00     0.229 C 
HETATM   29  O13 UNL     1      48.155  91.093  34.474  1.00  0.00    -0.643 OA
HETATM   30  O14 UNL     1      46.451  92.416  34.150  1.00  0.00    -0.643 OA
ENDBRANCH  23  28
ENDBRANCH  11  12
ENDBRANCH  10  11
ENDBRANCH   7  10
ENDBRANCH   1   7
BRANCH   6  31
HETATM   31  O9  UNL     1      49.209  88.110  39.845  1.00  0.00    -0.210 OA
BRANCH  31  32
HETATM   32  S3  UNL     1      49.567  88.748  41.364  1.00  0.00     0.257 S 
HETATM   33  O10 UNL     1      50.297  90.063  41.266  1.00  0.00    -0.572 OA
HETATM   34  O11 UNL     1      48.284  89.057  42.125  1.00  0.00    -0.572 OA
HETATM   35  O12 UNL     1      50.499  87.742  42.321  1.00  0.00    -0.572 OA
ENDBRANCH  31  32
ENDBRANCH   6  31
BRANCH   5  36
HETATM   36  N5  UNL     1      51.645  86.770  39.279  1.00  0.00    -0.246 N 
HETATM   37  C13 UNL     1      51.404  85.477  39.035  1.00  0.00     0.145 A 
HETATM   38  C14 UNL     1      52.033  84.693  40.010  1.00  0.00     0.054 A 
HETATM   39  N6  UNL     1      52.630  85.592  40.806  1.00  0.00    -0.288 N 
HETATM   40  N7  UNL     1      52.391  86.829  40.360  1.00  0.00    -0.236 N 
ATOM     41  H6  UNL     1      53.186  85.365  41.631  1.00  0.00     0.188 HD
ATOM     42  H7  UNL     1      52.734  87.687  40.792  1.00  0.00     0.209 HD
BRANCH  38  43
HETATM   43  C15 UNL     1      51.990  83.226  40.014  1.00  0.00     0.134 C 
BRANCH  43  44
HETATM   44  S2  UNL     1      51.661  82.426  38.459  1.00  0.00    -0.161 SA
BRANCH  44  45
HETATM   45  C16 UNL     1      52.940  82.453  37.236  1.00  0.00     0.100 C 
BRANCH  45  46
HETATM   46  C17 UNL     1      52.813  83.512  36.189  1.00  0.00     0.174 C 
BRANCH  46  47
HETATM   47  O8  UNL     1      53.690  84.587  36.404  1.00  0.00    -0.400 OA
ATOM     48  H8  UNL     1      53.558  85.294  35.782  1.00  0.00     0.209 HD
ENDBRANCH  46  47
ENDBRANCH  45  46
ENDBRANCH  44  45
ENDBRANCH  43  44
ENDBRANCH  38  43
ENDBRANCH   5  36
BRANCH   4  49
HETATM   49  O7  UNL     1      53.159  87.627  37.154  1.00  0.00    -0.358 OA
ATOM     50  H7  UNL     1      53.976  88.110  37.177  1.00  0.00     0.217 HD
ENDBRANCH   4  49
TORSDOF 14
ENDMDL
MODEL 3
REMARK VINA RESULT: -10.387899913      1.086      1.354
REMARK  14 active torsions:
REMARK  status: ('A' for Active; 'I' for Inactive)
REMARK    1  A    between atoms: C6_15  and  C7_16 
REMARK    2  A    between atoms: C7_16  and  O4_17 
REMARK    3  A    between atoms: O4_17  and  S1_18 
REMARK    4  A    between atoms: S1_18  and  C8_21 
REMARK    5  A    between atoms: C11_24  and  O7_25 
REMARK    6  A    between atoms: C12_27  and  N5_28 
REMARK    7  A    between atoms: C14_30  and  C15_31 
REMARK    8  A    between atoms: C15_31  and  S2_32 
REMARK    9  A    between atoms: S2_32  and  C16_33 
REMARK   10  A    between atoms: C16_33  and  C17_34 
REMARK   11  A    between atoms: C17_34  and  O8_35 
REMARK   12  A    between atoms: C18_41  and  O9_42 
REMARK   13  A    between atoms: O9_42  and  S3_43 
REMARK   14  A    between atoms: C19_47  and  C20_48 
ROOT
HETATM    1  C8  UNL     1      49.340  89.565  37.734  1.00  0.00     0.124 A 
HETATM    2  C9  UNL     1      50.160  89.976  36.724  1.00  0.00     0.032 A 
HETATM    3  C10 UNL     1      51.420  89.428  36.573  1.00  0.00     0.040 A 
HETATM    4  C11 UNL     1      51.898  88.467  37.411  1.00  0.00     0.097 A 
HETATM    5  C12 UNL     1      51.112  88.007  38.454  1.00  0.00     0.126 A 
HETATM    6  C18 UNL     1      49.864  88.572  38.576  1.00  0.00     0.147 A 
ENDROOT
BRANCH   1   7
HETATM    7  S1  UNL     1      47.602  90.242  38.107  1.00  0.00     0.305 S 
HETATM    8  O5  UNL     1      47.278  89.133  36.018  1.00  0.00    -0.193 OA
HETATM    9  O6  UNL     1      46.213  89.704  38.104  1.00  0.00    -0.193 OA
BRANCH   7  10
HETATM   10  O4  UNL     1      47.572  91.666  38.133  1.00  0.00    -0.240 OA
BRANCH  10  11
HETATM   11  C7  UNL     1      48.236  92.788  38.180  1.00  0.00     0.176 C 
BRANCH  11  12
HETATM   12  C6  UNL     1      48.390  93.949  37.391  1.00  0.00     0.090 C 
HETATM   13  C5  UNL     1      48.884  95.084  38.283  1.00  0.00     0.258 C 
HETATM   14  N4  UNL     1      49.437  96.334  37.986  1.00  0.00    -0.327 N 
HETATM   15  O3  UNL     1      48.767  94.838  39.528  1.00  0.00    -0.267 OA
HETATM   16  C4  UNL     1      49.687  96.999  36.705  1.00  0.00     0.283 C 
ATOM     17  H4  UNL     1      49.713  96.878  38.803  1.00  0.00     0.165 HD
HETATM   18  C3  UNL     1      48.474  96.652  35.814  1.00  0.00     0.283 C 
HETATM   19  N3  UNL     1      50.838  96.399  36.093  1.00  0.00    -0.331 N 
HETATM   20  N2  UNL     1      48.497  95.337  35.319  1.00  0.00    -0.216 N 
HETATM   21  O2  UNL     1      47.664  97.582  35.672  1.00  0.00    -0.267 OA
HETATM   22  N1  UNL     1      48.885  94.794  34.103  1.00  0.00    -0.121 NA
HETATM   23  C19 UNL     1      48.226  94.094  36.098  1.00  0.00     0.150 C 
HETATM   24  C2  UNL     1      50.329  95.055  33.913  1.00  0.00     0.238 C 
HETATM   25  C1  UNL     1      50.993  95.364  35.151  1.00  0.00     0.235 C 
HETATM   26  O1  UNL     1      51.914  94.533  35.467  1.00  0.00    -0.272 OA
ATOM     27  H3  UNL     1      51.722  96.804  36.401  1.00  0.00     0.165 HD
BRANCH  23  28
HETATM   28  C20 UNL     1      47.688  93.049  35.334  1.00  0.00     0.229 C 
HETATM   29  O13 UNL     1      48.252  92.143  34.745  1.00  0.00    -0.643 OA
HETATM   30  O14 UNL     1      46.269  92.950  35.163  1.00  0.00    -0.643 OA
ENDBRANCH  23  28
ENDBRANCH  11  12
ENDBRANCH  10  11
ENDBRANCH   7  10
ENDBRANCH   1   7
BRANCH   6  31
HETATM   31  O9  UNL     1      49.044  88.112  39.637  1.00  0.00    -0.210 OA
BRANCH  31  32
HETATM   32  S3  UNL     1      49.257  88.817  41.154  1.00  0.00     0.257 S 
HETATM   33  O10 UNL     1      49.843  90.201  41.054  1.00  0.00    -0.572 OA
HETATM   34  O11 UNL     1      47.913  89.000  41.848  1.00  0.00    -0.572 OA
HETATM   35  O12 UNL     1      50.246  87.940  42.178  1.00  0.00    -0.572 OA
ENDBRANCH  31  32
ENDBRANCH   6  31
BRANCH   5  36
HETATM   36  N5  UNL     1      51.633  87.008  39.282  1.00  0.00    -0.246 N 
HETATM   37  C13 UNL     1      51.397  85.696  39.178  1.00  0.00     0.145 A 
HETATM   38  C14 UNL     1      52.087  85.015  40.188  1.00  0.00     0.054 A 
HETATM   39  N6  UNL     1      52.715  85.992  40.859  1.00  0.00    -0.288 N 
HETATM   40  N7  UNL     1      52.436  87.178  40.310  1.00  0.00    -0.236 N 
ATOM     41  H6  UNL     1      53.318  85.851  41.670  1.00  0.00     0.188 HD
ATOM     42  H7  UNL     1      52.790  88.076  40.638  1.00  0.00     0.209 HD
BRANCH  38  43
HETATM   43  C15 UNL     1      52.064  83.555  40.336  1.00  0.00     0.134 C 
BRANCH  43  44
HETATM   44  S2  UNL     1      51.755  82.602  38.866  1.00  0.00    -0.161 SA
BRANCH  44  45
HETATM   45  C16 UNL     1      50.912  81.057  39.051  1.00  0.00     0.100 C 
BRANCH  45  46
HETATM   46  C17 UNL     1      50.647  80.308  37.785  1.00  0.00     0.174 C 
BRANCH  46  47
HETATM   47  O8  UNL     1      51.758  79.562  37.360  1.00  0.00    -0.400 OA
ATOM     48  H8  UNL     1      51.551  78.644  37.231  1.00  0.00     0.209 HD
ENDBRANCH  46  47
ENDBRANCH  45  46
ENDBRANCH  44  45
ENDBRANCH  43  44
ENDBRANCH  38  43
ENDBRANCH   5  36
BRANCH   4  49
HETATM   49  O7  UNL     1      53.191  87.936  37.219  1.00  0.00    -0.358 OA
ATOM     50  H7  UNL     1      53.415  87.083  37.571  1.00  0.00     0.217 HD
ENDBRANCH   4  49
TORSDOF 14
ENDMDL
MODEL 4
REMARK VINA RESULT: -10.266078744      1.238      2.709
REMARK  14 active torsions:
REMARK  status: ('A' for Active; 'I' for Inactive)
REMARK    1  A    between atoms: C6_15  and  C7_16 
REMARK    2  A    between atoms: C7_16  and  O4_17 
REMARK    3  A    between atoms: O4_17  and  S1_18 
REMARK    4  A    between atoms: S1_18  and  C8_21 
REMARK    5  A    between atoms: C11_24  and  O7_25 
REMARK    6  A    between atoms: C12_27  and  N5_28 
REMARK    7  A    between atoms: C14_30  and  C15_31 
REMARK    8  A    between atoms: C15_31  and  S2_32 
REMARK    9  A    between atoms: S2_32  and  C16_33 
REMARK   10  A    between atoms: C16_33  and  C17_34 
REMARK   11  A    between atoms: C17_34  and  O8_35 
REMARK   12  A    between atoms: C18_41  and  O9_42 
REMARK   13  A    between atoms: O9_42  and  S3_43 
REMARK   14  A    between atoms: C19_47  and  C20_48 
ROOT
HETATM    1  C8  UNL     1      48.856  89.920  37.374  1.00  0.00     0.124 A 
HETATM    2  C9  UNL     1      49.566  90.406  36.316  1.00  0.00     0.032 A 
HETATM    3  C10 UNL     1      50.863  89.985  36.088  1.00  0.00     0.040 A 
HETATM    4  C11 UNL     1      51.485  89.081  36.893  1.00  0.00     0.097 A 
HETATM    5  C12 UNL     1      50.814  88.549  37.981  1.00  0.00     0.126 A 
HETATM    6  C18 UNL     1      49.526  88.988  38.182  1.00  0.00     0.147 A 
ENDROOT
BRANCH   1   7
HETATM    7  S1  UNL     1      47.085  90.423  37.856  1.00  0.00     0.305 S 
HETATM    8  O5  UNL     1      46.707  88.829  36.119  1.00  0.00    -0.193 OA
HETATM    9  O6  UNL     1      45.814  89.715  38.175  1.00  0.00    -0.193 OA
BRANCH   7  10
HETATM   10  O4  UNL     1      46.822  91.797  37.586  1.00  0.00    -0.240 OA
BRANCH  10  11
HETATM   11  C7  UNL     1      46.920  92.803  36.762  1.00  0.00     0.176 C 
BRANCH  11  12
HETATM   12  C6  UNL     1      47.940  93.525  36.104  1.00  0.00     0.090 C 
HETATM   13  C5  UNL     1      47.629  93.557  34.611  1.00  0.00     0.258 C 
HETATM   14  N4  UNL     1      48.144  94.332  33.565  1.00  0.00    -0.327 N 
HETATM   15  O3  UNL     1      46.734  92.721  34.260  1.00  0.00    -0.267 OA
HETATM   16  C4  UNL     1      49.197  95.351  33.546  1.00  0.00     0.283 C 
ATOM     17  H4  UNL     1      47.711  94.158  32.659  1.00  0.00     0.165 HD
HETATM   18  C3  UNL     1      50.292  94.832  34.504  1.00  0.00     0.283 C 
HETATM   19  N3  UNL     1      48.679  96.559  34.122  1.00  0.00    -0.331 N 
HETATM   20  N2  UNL     1      49.962  94.968  35.863  1.00  0.00    -0.216 N 
HETATM   21  O2  UNL     1      51.293  94.372  33.931  1.00  0.00    -0.267 OA
HETATM   22  N1  UNL     1      50.298  95.910  36.824  1.00  0.00    -0.121 NA
HETATM   23  C19 UNL     1      48.972  94.148  36.619  1.00  0.00     0.150 C 
HETATM   24  C2  UNL     1      49.761  97.222  36.403  1.00  0.00     0.238 C 
HETATM   25  C1  UNL     1      48.716  97.093  35.425  1.00  0.00     0.235 C 
HETATM   26  O1  UNL     1      47.586  97.555  35.808  1.00  0.00    -0.272 OA
ATOM     27  H3  UNL     1      48.185  97.150  33.453  1.00  0.00     0.165 HD
BRANCH  23  28
HETATM   28  C20 UNL     1      49.266  94.017  37.984  1.00  0.00     0.229 C 
HETATM   29  O13 UNL     1      48.849  94.653  38.936  1.00  0.00    -0.643 OA
HETATM   30  O14 UNL     1      50.186  93.009  38.421  1.00  0.00    -0.643 OA
ENDBRANCH  23  28
ENDBRANCH  11  12
ENDBRANCH  10  11
ENDBRANCH   7  10
ENDBRANCH   1   7
BRANCH   6  31
HETATM   31  O9  UNL     1      48.823  88.453  39.291  1.00  0.00    -0.210 OA
BRANCH  31  32
HETATM   32  S3  UNL     1      49.110  89.139  40.804  1.00  0.00     0.257 S 
HETATM   33  O10 UNL     1      49.586  90.564  40.696  1.00  0.00    -0.572 OA
HETATM   34  O11 UNL     1      47.820  89.206  41.610  1.00  0.00    -0.572 OA
HETATM   35  O12 UNL     1      50.242  88.314  41.719  1.00  0.00    -0.572 OA
ENDBRANCH  31  32
ENDBRANCH   6  31
BRANCH   5  36
HETATM   36  N5  UNL     1      51.482  87.611  38.775  1.00  0.00    -0.246 N 
HETATM   37  C13 UNL     1      51.268  86.291  38.781  1.00  0.00     0.145 A 
HETATM   38  C14 UNL     1      52.122  85.684  39.710  1.00  0.00     0.054 A 
HETATM   39  N6  UNL     1      52.819  86.710  40.221  1.00  0.00    -0.288 N 
HETATM   40  N7  UNL     1      52.427  87.856  39.656  1.00  0.00    -0.236 N 
ATOM     41  H6  UNL     1      53.541  86.628  40.937  1.00  0.00     0.188 HD
ATOM     42  H7  UNL     1      52.803  88.779  39.874  1.00  0.00     0.209 HD
BRANCH  38  43
HETATM   43  C15 UNL     1      52.161  84.235  39.941  1.00  0.00     0.134 C 
BRANCH  43  44
HETATM   44  S2  UNL     1      52.252  83.192  38.503  1.00  0.00    -0.161 SA
BRANCH  44  45
HETATM   45  C16 UNL     1      51.220  81.756  38.464  1.00  0.00     0.100 C 
BRANCH  45  46
HETATM   46  C17 UNL     1      51.418  80.847  37.293  1.00  0.00     0.174 C 
BRANCH  46  47
HETATM   47  O8  UNL     1      51.318  79.491  37.642  1.00  0.00    -0.400 OA
ATOM     48  H8  UNL     1      50.919  79.364  38.495  1.00  0.00     0.209 HD
ENDBRANCH  46  47
ENDBRANCH  45  46
ENDBRANCH  44  45
ENDBRANCH  43  44
ENDBRANCH  38  43
ENDBRANCH   5  36
BRANCH   4  49
HETATM   49  O7  UNL     1      52.810  88.680  36.621  1.00  0.00    -0.358 OA
ATOM     50  H7  UNL     1      52.992  87.795  36.329  1.00  0.00     0.217 HD
ENDBRANCH   4  49
TORSDOF 14
ENDMDL
MODEL 5
REMARK VINA RESULT: -10.184408058      1.508      1.760
REMARK  14 active torsions:
REMARK  status: ('A' for Active; 'I' for Inactive)
REMARK    1  A    between atoms: C6_15  and  C7_16 
REMARK    2  A    between atoms: C7_16  and  O4_17 
REMARK    3  A    between atoms: O4_17  and  S1_18 
REMARK    4  A    between atoms: S1_18  and  C8_21 
REMARK    5  A    between atoms: C11_24  and  O7_25 
REMARK    6  A    between atoms: C12_27  and  N5_28 
REMARK    7  A    between atoms: C14_30  and  C15_31 
REMARK    8  A    between atoms: C15_31  and  S2_32 
REMARK    9  A    between atoms: S2_32  and  C16_33 
REMARK   10  A    between atoms: C16_33  and  C17_34 
REMARK   11  A    between atoms: C17_34  and  O8_35 
REMARK   12  A    between atoms: C18_41  and  O9_42 
REMARK   13  A    between atoms: O9_42  and  S3_43 
REMARK   14  A    between atoms: C19_47  and  C20_48 
ROOT
HETATM    1  C8  UNL     1      49.356  89.564  37.765  1.00  0.00     0.124 A 
HETATM    2  C9  UNL     1      50.138  89.969  36.725  1.00  0.00     0.032 A 
HETATM    3  C10 UNL     1      51.391  89.419  36.530  1.00  0.00     0.040 A 
HETATM    4  C11 UNL     1      51.898  88.460  37.353  1.00  0.00     0.097 A 
HETATM    5  C12 UNL     1      51.149  88.004  38.425  1.00  0.00     0.126 A 
HETATM    6  C18 UNL     1      49.907  88.573  38.592  1.00  0.00     0.147 A 
ENDROOT
BRANCH   1   7
HETATM    7  S1  UNL     1      47.633  90.246  38.200  1.00  0.00     0.305 S 
HETATM    8  O5  UNL     1      47.231  89.132  36.127  1.00  0.00    -0.193 OA
HETATM    9  O6  UNL     1      46.244  89.711  38.249  1.00  0.00    -0.193 OA
BRANCH   7  10
HETATM   10  O4  UNL     1      47.607  91.670  38.223  1.00  0.00    -0.240 OA
BRANCH  10  11
HETATM   11  C7  UNL     1      48.275  92.791  38.240  1.00  0.00     0.176 C 
BRANCH  11  12
HETATM   12  C6  UNL     1      48.403  93.947  37.439  1.00  0.00     0.090 C 
HETATM   13  C5  UNL     1      48.883  95.098  38.317  1.00  0.00     0.258 C 
HETATM   14  N4  UNL     1      49.412  96.356  38.005  1.00  0.00    -0.327 N 
HETATM   15  O3  UNL     1      48.780  94.862  39.565  1.00  0.00    -0.267 OA
HETATM   16  C4  UNL     1      49.642  97.013  36.716  1.00  0.00     0.283 C 
ATOM     17  H4  UNL     1      49.685  96.911  38.815  1.00  0.00     0.165 HD
HETATM   18  C3  UNL     1      48.429  96.637  35.837  1.00  0.00     0.283 C 
HETATM   19  N3  UNL     1      50.799  96.428  36.101  1.00  0.00    -0.331 N 
HETATM   20  N2  UNL     1      48.471  95.318  35.354  1.00  0.00    -0.216 N 
HETATM   21  O2  UNL     1      47.602  97.551  35.693  1.00  0.00    -0.267 OA
HETATM   22  N1  UNL     1      48.860  94.771  34.140  1.00  0.00    -0.121 NA
HETATM   23  C19 UNL     1      48.228  94.078  36.146  1.00  0.00     0.150 C 
HETATM   24  C2  UNL     1      50.298  95.055  33.937  1.00  0.00     0.238 C 
HETATM   25  C1  UNL     1      50.965  95.386  35.167  1.00  0.00     0.235 C 
HETATM   26  O1  UNL     1      51.902  94.575  35.484  1.00  0.00    -0.272 OA
ATOM     27  H3  UNL     1      51.678  96.850  36.400  1.00  0.00     0.165 HD
BRANCH  23  28
HETATM   28  C20 UNL     1      47.702  93.016  35.395  1.00  0.00     0.229 C 
HETATM   29  O13 UNL     1      48.275  92.091  34.847  1.00  0.00    -0.643 OA
HETATM   30  O14 UNL     1      46.288  92.924  35.187  1.00  0.00    -0.643 OA
ENDBRANCH  23  28
ENDBRANCH  11  12
ENDBRANCH  10  11
ENDBRANCH   7  10
ENDBRANCH   1   7
BRANCH   6  31
HETATM   31  O9  UNL     1      49.126  88.118  39.684  1.00  0.00    -0.210 OA
BRANCH  31  32
HETATM   32  S3  UNL     1      49.426  88.797  41.197  1.00  0.00     0.257 S 
HETATM   33  O10 UNL     1      50.077  90.151  41.089  1.00  0.00    -0.572 OA
HETATM   34  O11 UNL     1      48.118  89.039  41.939  1.00  0.00    -0.572 OA
HETATM   35  O12 UNL     1      50.404  87.861  42.179  1.00  0.00    -0.572 OA
ENDBRANCH  31  32
ENDBRANCH   6  31
BRANCH   5  36
HETATM   36  N5  UNL     1      51.698  87.008  39.238  1.00  0.00    -0.246 N 
HETATM   37  C13 UNL     1      51.450  85.696  39.151  1.00  0.00     0.145 A 
HETATM   38  C14 UNL     1      52.178  85.017  40.136  1.00  0.00     0.054 A 
HETATM   39  N6  UNL     1      52.839  85.994  40.775  1.00  0.00    -0.288 N 
HETATM   40  N7  UNL     1      52.543  87.178  40.230  1.00  0.00    -0.236 N 
ATOM     41  H6  UNL     1      53.473  85.854  41.561  1.00  0.00     0.188 HD
ATOM     42  H7  UNL     1      52.917  88.076  40.538  1.00  0.00     0.209 HD
BRANCH  38  43
HETATM   43  C15 UNL     1      52.152  83.558  40.294  1.00  0.00     0.134 C 
BRANCH  43  44
HETATM   44  S2  UNL     1      51.666  82.603  38.873  1.00  0.00    -0.161 SA
BRANCH  44  45
HETATM   45  C16 UNL     1      52.796  82.520  37.514  1.00  0.00     0.100 C 
BRANCH  45  46
HETATM   46  C17 UNL     1      52.560  83.505  36.415  1.00  0.00     0.174 C 
BRANCH  46  47
HETATM   47  O8  UNL     1      53.700  84.273  36.128  1.00  0.00    -0.400 OA
ATOM     48  H8  UNL     1      54.282  84.352  36.876  1.00  0.00     0.209 HD
ENDBRANCH  46  47
ENDBRANCH  45  46
ENDBRANCH  44  45
ENDBRANCH  43  44
ENDBRANCH  38  43
ENDBRANCH   5  36
BRANCH   4  49
HETATM   49  O7  UNL     1      53.181  87.925  37.116  1.00  0.00    -0.358 OA
ATOM     50  H7  UNL     1      53.918  88.196  37.651  1.00  0.00     0.217 HD
ENDBRANCH   4  49
TORSDOF 14
ENDMDL
