MODEL 1
REMARK VINA RESULT: -10.514393249      0.000      0.000
REMARK  16 active torsions:
REMARK  status: ('A' for Active; 'I' for Inactive)
REMARK    1  A    between atoms: O1_2  and  C2_3 
REMARK    2  A    between atoms: C2_3  and  C3_5 
REMARK    3  A    between atoms: C3_5  and  C15_46 
REMARK       I    between atoms: N1_6  and  C4_8 
REMARK       I    between atoms: C4_8  and  N2_10 
REMARK    4  A    between atoms: N2_10  and  C5_12 
REMARK    5  A    between atoms: C5_12  and  C6_13 
REMARK    6  A    between atoms: C6_13  and  N5_27 
REMARK    7  A    between atoms: N3_14  and  O4_16 
REMARK    8  A    between atoms: O4_16  and  S1_17 
REMARK    9  A    between atoms: S1_17  and  C7_20 
REMARK   10  A    between atoms: N5_27  and  N6_29 
REMARK       I    between atoms: N7_32  and  C13_33 
REMARK   11  A    between atoms: C14_40  and  N11_41 
REMARK   12  A    between atoms: N11_41  and  N12_43 
REMARK   13  A    between atoms: C15_46  and  O11_48 
REMARK   14  A    between atoms: O11_48  and  C16_49 
REMARK   15  A    between atoms: C16_49  and  C17_50 
REMARK   16  A    between atoms: C19_52  and  N13_53 
ROOT
HETATM    1  C6  UNL     1      50.762  89.477  36.839  1.00  0.00     0.135 C 
HETATM    2  N3  UNL     1      49.877  89.052  37.669  1.00  0.00    -0.234 N 
ATOM      3  H3  UNL     1      50.171  88.324  38.320  1.00  0.00     0.197 HD
ENDROOT
BRANCH   1   4
HETATM    4  C5  UNL     1      52.121  88.909  36.867  1.00  0.00     0.204 C 
BRANCH   4   5
HETATM    5  N2  UNL     1      52.073  87.552  37.396  1.00  0.00    -0.336 N 
HETATM    6  C4  UNL     1      53.026  87.111  38.347  1.00  0.00     0.321 C 
HETATM    7  N1  UNL     1      53.061  85.835  38.909  1.00  0.00    -0.299 N 
HETATM    8  O3  UNL     1      53.928  87.932  38.729  1.00  0.00    -0.247 OA
HETATM    9  C3  UNL     1      52.474  85.419  39.951  1.00  0.00     0.188 C 
ATOM     10  H1  UNL     1      53.634  85.148  38.418  1.00  0.00     0.171 HD
ATOM     11  H2  UNL     1      51.345  86.912  37.078  1.00  0.00     0.164 HD
BRANCH   9  12
HETATM   12  C2  UNL     1      51.637  86.308  40.727  1.00  0.00     0.316 C 
HETATM   13  O2  UNL     1      50.539  86.675  40.252  1.00  0.00    -0.257 OA
BRANCH  12  14
HETATM   14  O1  UNL     1      51.999  86.771  41.976  1.00  0.00    -0.321 OA
HETATM   15  C1  UNL     1      53.216  87.440  42.250  1.00  0.00     0.213 C 
ENDBRANCH  12  14
ENDBRANCH   9  12
BRANCH   9  16
HETATM   16  C15 UNL     1      52.604  84.032  40.435  1.00  0.00     0.316 C 
HETATM   17  O10 UNL     1      53.274  83.815  41.477  1.00  0.00    -0.257 OA
BRANCH  16  18
HETATM   18  O11 UNL     1      52.027  82.967  39.798  1.00  0.00    -0.310 OA
BRANCH  18  19
HETATM   19  C16 UNL     1      51.446  82.987  38.532  1.00  0.00     0.238 C 
BRANCH  19  20
HETATM   20  C17 UNL     1      51.722  81.766  37.740  1.00  0.00     0.061 A 
HETATM   21  C18 UNL     1      52.519  81.689  36.619  1.00  0.00     0.087 A 
HETATM   22  C19 UNL     1      52.508  80.359  36.178  1.00  0.00     0.166 A 
HETATM   23  O12 UNL     1      51.744  79.728  37.012  1.00  0.00    -0.220 OA
HETATM   24  N14 UNL     1      51.268  80.520  37.939  1.00  0.00    -0.261 N 
ATOM     25  H14 UNL     1      50.647  80.234  38.696  1.00  0.00     0.194 HD
BRANCH  22  26
HETATM   26  N13 UNL     1      53.141  79.896  35.148  1.00  0.00    -0.378 N 
ATOM     27 2H13 UNL     1      54.136  79.695  35.048  1.00  0.00     0.158 HD
ATOM     28 1H13 UNL     1      52.725  79.652  34.250  1.00  0.00     0.158 HD
ENDBRANCH  22  26
ENDBRANCH  19  20
ENDBRANCH  18  19
ENDBRANCH  16  18
ENDBRANCH   9  16
ENDBRANCH   4   5
ENDBRANCH   1   4
BRANCH   1  29
HETATM   29  N5  UNL     1      50.426  90.487  35.904  1.00  0.00    -0.270 N 
ATOM     30  H5  UNL     1      50.342  90.217  34.924  1.00  0.00     0.189 HD
BRANCH  29  31
HETATM   31  N6  UNL     1      50.203  91.832  36.235  1.00  0.00    -0.118 N 
HETATM   32  C11 UNL     1      51.288  92.600  36.780  1.00  0.00     0.190 C 
HETATM   33  C12 UNL     1      51.173  94.086  36.508  1.00  0.00     0.175 C 
HETATM   34  N7  UNL     1      49.810  94.537  36.512  1.00  0.00    -0.249 N 
HETATM   35  C13 UNL     1      49.543  95.883  36.881  1.00  0.00     0.203 C 
HETATM   36  N10 UNL     1      48.732  93.721  36.171  1.00  0.00    -0.124 N 
HETATM   37  N8  UNL     1      49.432  96.246  38.107  1.00  0.00    -0.372 N 
HETATM   38  N9  UNL     1      49.396  96.852  35.857  1.00  0.00    -0.062 NA
ATOM     39  H82 UNL     1      49.538  95.549  38.843  1.00  0.00     0.158 HD
ATOM     40  H81 UNL     1      49.240  97.212  38.370  1.00  0.00     0.158 HD
HETATM   41  C14 UNL     1      48.942  92.458  36.047  1.00  0.00     0.733 C 
ATOM     42  H10 UNL     1      47.803  94.115  36.023  1.00  0.00     0.206 HD
BRANCH  41  43
HETATM   43  N11 UNL     1      47.843  91.593  35.695  1.00  0.00    -0.069 N 
ATOM     44  H11 UNL     1      47.992  90.597  35.537  1.00  0.00     0.212 HD
BRANCH  43  45
HETATM   45  N12 UNL     1      46.558  92.162  35.573  1.00  0.00    -0.024 N 
HETATM   46  O8  UNL     1      45.962  92.677  36.535  1.00  0.00    -0.516 OA
HETATM   47  O9  UNL     1      45.970  92.126  34.317  1.00  0.00    -0.516 OA
ENDBRANCH  43  45
ENDBRANCH  41  43
ENDBRANCH  29  31
ENDBRANCH   1  29
BRANCH   2  48
HETATM   48  O4  UNL     1      48.593  89.470  37.769  1.00  0.00    -0.144 OA
BRANCH  48  49
HETATM   49  S1  UNL     1      47.942  90.306  39.077  1.00  0.00     0.342 S 
HETATM   50  O5  UNL     1      48.287  91.766  38.904  1.00  0.00    -0.189 OA
HETATM   51  O6  UNL     1      46.444  90.136  39.172  1.00  0.00    -0.189 OA
BRANCH  49  52
HETATM   52  C7  UNL     1      48.647  89.706  40.563  1.00  0.00     0.216 A 
HETATM   53  C8  UNL     1      49.959  89.817  40.949  1.00  0.00     0.142 A 
HETATM   54  N4  UNL     1      50.115  89.229  42.158  1.00  0.00    -0.347 N 
HETATM   55  C9  UNL     1      48.894  88.765  42.496  1.00  0.00     0.121 A 
ATOM     56  H4  UNL     1      50.976  89.152  42.699  1.00  0.00     0.167 HD
HETATM   57  C10 UNL     1      48.615  88.038  43.772  1.00  0.00     0.098 C 
HETATM   58  O7  UNL     1      48.044  89.058  41.538  1.00  0.00    -0.283 OA
ENDBRANCH  49  52
ENDBRANCH  48  49
ENDBRANCH   2  48
TORSDOF 16
ENDMDL
MODEL 2
REMARK VINA RESULT: -10.351955182      2.074      4.050
REMARK  16 active torsions:
REMARK  status: ('A' for Active; 'I' for Inactive)
REMARK    1  A    between atoms: O1_2  and  C2_3 
REMARK    2  A    between atoms: C2_3  and  C3_5 
REMARK    3  A    between atoms: C3_5  and  C15_46 
REMARK       I    between atoms: N1_6  and  C4_8 
REMARK       I    between atoms: C4_8  and  N2_10 
REMARK    4  A    between atoms: N2_10  and  C5_12 
REMARK    5  A    between atoms: C5_12  and  C6_13 
REMARK    6  A    between atoms: C6_13  and  N5_27 
REMARK    7  A    between atoms: N3_14  and  O4_16 
REMARK    8  A    between atoms: O4_16  and  S1_17 
REMARK    9  A    between atoms: S1_17  and  C7_20 
REMARK   10  A    between atoms: N5_27  and  N6_29 
REMARK       I    between atoms: N7_32  and  C13_33 
REMARK   11  A    between atoms: C14_40  and  N11_41 
REMARK   12  A    between atoms: N11_41  and  N12_43 
REMARK   13  A    between atoms: C15_46  and  O11_48 
REMARK   14  A    between atoms: O11_48  and  C16_49 
REMARK   15  A    between atoms: C16_49  and  C17_50 
REMARK   16  A    between atoms: C19_52  and  N13_53 
ROOT
HETATM    1  C6  UNL     1      48.493  90.130  39.542  1.00  0.00     0.135 C 
HETATM    2  N3  UNL     1      47.636  89.311  39.042  1.00  0.00    -0.234 N 
ATOM      3  H3  UNL     1      47.638  88.362  39.415  1.00  0.00     0.197 HD
ENDROOT
BRANCH   1   4
HETATM    4  C5  UNL     1      49.409  89.671  40.600  1.00  0.00     0.204 C 
BRANCH   4   5
HETATM    5  N2  UNL     1      49.587  88.227  40.501  1.00  0.00    -0.336 N 
HETATM    6  C4  UNL     1      50.596  87.677  39.674  1.00  0.00     0.321 C 
HETATM    7  N1  UNL     1      50.842  86.313  39.515  1.00  0.00    -0.299 N 
HETATM    8  O3  UNL     1      51.345  88.476  39.016  1.00  0.00    -0.247 OA
HETATM    9  C3  UNL     1      51.604  85.568  40.197  1.00  0.00     0.188 C 
ATOM     10  H1  UNL     1      50.344  85.857  38.750  1.00  0.00     0.171 HD
ATOM     11  H2  UNL     1      48.978  87.607  41.035  1.00  0.00     0.164 HD
BRANCH   9  12
HETATM   12  C2  UNL     1      52.360  86.108  41.306  1.00  0.00     0.316 C 
HETATM   13  O2  UNL     1      51.748  86.664  42.245  1.00  0.00    -0.257 OA
BRANCH  12  14
HETATM   14  O1  UNL     1      53.738  86.038  41.372  1.00  0.00    -0.321 OA
HETATM   15  C1  UNL     1      54.605  86.535  40.370  1.00  0.00     0.213 C 
ENDBRANCH  12  14
ENDBRANCH   9  12
BRANCH   9  16
HETATM   16  C15 UNL     1      51.771  84.130  39.913  1.00  0.00     0.316 C 
HETATM   17  O10 UNL     1      51.969  83.342  40.873  1.00  0.00    -0.257 OA
BRANCH  16  18
HETATM   18  O11 UNL     1      51.721  83.614  38.647  1.00  0.00    -0.310 OA
BRANCH  18  19
HETATM   19  C16 UNL     1      52.817  83.295  37.848  1.00  0.00     0.238 C 
BRANCH  19  20
HETATM   20  C17 UNL     1      52.635  82.045  37.074  1.00  0.00     0.061 A 
HETATM   21  C18 UNL     1      53.284  81.712  35.905  1.00  0.00     0.087 A 
HETATM   22  C19 UNL     1      52.821  80.453  35.503  1.00  0.00     0.166 A 
HETATM   23  O12 UNL     1      51.958  80.102  36.404  1.00  0.00    -0.220 OA
HETATM   24  N14 UNL     1      51.825  81.009  37.337  1.00  0.00    -0.261 N 
ATOM     25  H14 UNL     1      51.201  80.940  38.141  1.00  0.00     0.194 HD
BRANCH  22  26
HETATM   26  N13 UNL     1      53.200  79.806  34.448  1.00  0.00    -0.378 N 
ATOM     27 2H13 UNL     1      54.122  79.775  34.014  1.00  0.00     0.158 HD
ATOM     28 1H13 UNL     1      52.610  79.207  33.869  1.00  0.00     0.158 HD
ENDBRANCH  22  26
ENDBRANCH  19  20
ENDBRANCH  18  19
ENDBRANCH  16  18
ENDBRANCH   9  16
ENDBRANCH   4   5
ENDBRANCH   1   4
BRANCH   1  29
HETATM   29  N5  UNL     1      48.551  91.465  39.073  1.00  0.00    -0.270 N 
ATOM     30  H5  UNL     1      47.889  92.135  39.464  1.00  0.00     0.189 HD
BRANCH  29  31
HETATM   31  N6  UNL     1      49.457  91.928  38.106  1.00  0.00    -0.118 N 
HETATM   32  C11 UNL     1      50.451  91.022  37.602  1.00  0.00     0.190 C 
HETATM   33  C12 UNL     1      50.920  91.360  36.201  1.00  0.00     0.175 C 
HETATM   34  N7  UNL     1      50.951  92.775  35.963  1.00  0.00    -0.249 N 
HETATM   35  C13 UNL     1      51.884  93.283  35.019  1.00  0.00     0.203 C 
HETATM   36  N10 UNL     1      50.110  93.679  36.610  1.00  0.00    -0.124 N 
HETATM   37  N8  UNL     1      53.103  93.536  35.331  1.00  0.00    -0.372 N 
HETATM   38  N9  UNL     1      51.448  93.516  33.690  1.00  0.00    -0.062 NA
ATOM     39  H82 UNL     1      53.416  93.368  36.287  1.00  0.00     0.158 HD
ATOM     40  H81 UNL     1      53.772  93.900  34.654  1.00  0.00     0.158 HD
HETATM   41  C14 UNL     1      49.421  93.258  37.611  1.00  0.00     0.733 C 
ATOM     42  H10 UNL     1      50.042  94.648  36.298  1.00  0.00     0.206 HD
BRANCH  41  43
HETATM   43  N11 UNL     1      48.543  94.174  38.296  1.00  0.00    -0.069 N 
ATOM     44  H11 UNL     1      48.087  93.907  39.169  1.00  0.00     0.212 HD
BRANCH  43  45
HETATM   45  N12 UNL     1      48.331  95.448  37.728  1.00  0.00    -0.024 N 
HETATM   46  O8  UNL     1      48.965  96.454  38.090  1.00  0.00    -0.516 OA
HETATM   47  O9  UNL     1      47.370  95.540  36.732  1.00  0.00    -0.516 OA
ENDBRANCH  43  45
ENDBRANCH  41  43
ENDBRANCH  29  31
ENDBRANCH   1  29
BRANCH   2  48
HETATM   48  O4  UNL     1      46.732  89.578  38.071  1.00  0.00    -0.144 OA
BRANCH  48  49
HETATM   49  S1  UNL     1      47.032  89.503  36.416  1.00  0.00     0.342 S 
HETATM   50  O5  UNL     1      48.414  88.925  36.228  1.00  0.00    -0.189 OA
HETATM   51  O6  UNL     1      46.013  88.655  35.691  1.00  0.00    -0.189 OA
BRANCH  49  52
HETATM   52  C7  UNL     1      46.970  91.116  35.738  1.00  0.00     0.216 A 
HETATM   53  C8  UNL     1      46.180  92.153  36.165  1.00  0.00     0.142 A 
HETATM   54  N4  UNL     1      46.416  93.236  35.389  1.00  0.00    -0.347 N 
HETATM   55  C9  UNL     1      47.350  92.847  34.497  1.00  0.00     0.121 A 
ATOM     56  H4  UNL     1      45.979  94.154  35.463  1.00  0.00     0.167 HD
HETATM   57  C10 UNL     1      47.904  93.748  33.440  1.00  0.00     0.098 C 
HETATM   58  O7  UNL     1      47.661  91.590  34.723  1.00  0.00    -0.283 OA
ENDBRANCH  49  52
ENDBRANCH  48  49
ENDBRANCH   2  48
TORSDOF 16
ENDMDL
MODEL 3
REMARK VINA RESULT: -10.092113754      2.917      5.013
REMARK  16 active torsions:
REMARK  status: ('A' for Active; 'I' for Inactive)
REMARK    1  A    between atoms: O1_2  and  C2_3 
REMARK    2  A    between atoms: C2_3  and  C3_5 
REMARK    3  A    between atoms: C3_5  and  C15_46 
REMARK       I    between atoms: N1_6  and  C4_8 
REMARK       I    between atoms: C4_8  and  N2_10 
REMARK    4  A    between atoms: N2_10  and  C5_12 
REMARK    5  A    between atoms: C5_12  and  C6_13 
REMARK    6  A    between atoms: C6_13  and  N5_27 
REMARK    7  A    between atoms: N3_14  and  O4_16 
REMARK    8  A    between atoms: O4_16  and  S1_17 
REMARK    9  A    between atoms: S1_17  and  C7_20 
REMARK   10  A    between atoms: N5_27  and  N6_29 
REMARK       I    between atoms: N7_32  and  C13_33 
REMARK   11  A    between atoms: C14_40  and  N11_41 
REMARK   12  A    between atoms: N11_41  and  N12_43 
REMARK   13  A    between atoms: C15_46  and  O11_48 
REMARK   14  A    between atoms: O11_48  and  C16_49 
REMARK   15  A    between atoms: C16_49  and  C17_50 
REMARK   16  A    between atoms: C19_52  and  N13_53 
ROOT
HETATM    1  C6  UNL     1      49.595  90.819  36.933  1.00  0.00     0.135 C 
HETATM    2  N3  UNL     1      49.622  91.516  38.014  1.00  0.00    -0.234 N 
ATOM      3  H3  UNL     1      49.180  91.104  38.835  1.00  0.00     0.197 HD
ENDROOT
BRANCH   1   4
HETATM    4  C5  UNL     1      48.945  89.497  36.934  1.00  0.00     0.204 C 
BRANCH   4   5
HETATM    5  N2  UNL     1      49.217  88.819  38.195  1.00  0.00    -0.336 N 
HETATM    6  C4  UNL     1      50.277  87.886  38.302  1.00  0.00     0.321 C 
HETATM    7  N1  UNL     1      50.613  87.188  39.463  1.00  0.00    -0.299 N 
HETATM    8  O3  UNL     1      50.988  87.653  37.266  1.00  0.00    -0.247 OA
HETATM    9  C3  UNL     1      51.406  87.537  40.386  1.00  0.00     0.188 C 
ATOM     10  H1  UNL     1      50.162  86.281  39.583  1.00  0.00     0.171 HD
ATOM     11  H2  UNL     1      48.637  89.019  39.010  1.00  0.00     0.164 HD
BRANCH   9  12
HETATM   12  C2  UNL     1      52.102  88.803  40.318  1.00  0.00     0.316 C 
HETATM   13  O2  UNL     1      53.352  88.808  40.287  1.00  0.00    -0.257 OA
BRANCH  12  14
HETATM   14  O1  UNL     1      51.440  90.015  40.288  1.00  0.00    -0.321 OA
HETATM   15  C1  UNL     1      50.473  90.413  41.242  1.00  0.00     0.213 C 
ENDBRANCH  12  14
ENDBRANCH   9  12
BRANCH   9  16
HETATM   16  C15 UNL     1      51.671  86.692  41.565  1.00  0.00     0.316 C 
HETATM   17  O10 UNL     1      51.736  87.235  42.697  1.00  0.00    -0.257 OA
BRANCH  16  18
HETATM   18  O11 UNL     1      51.850  85.337  41.482  1.00  0.00    -0.310 OA
BRANCH  18  19
HETATM   19  C16 UNL     1      52.932  84.688  40.891  1.00  0.00     0.238 C 
BRANCH  19  20
HETATM   20  C17 UNL     1      52.616  84.107  39.566  1.00  0.00     0.061 A 
HETATM   21  C18 UNL     1      53.032  84.593  38.346  1.00  0.00     0.087 A 
HETATM   22  C19 UNL     1      52.512  83.755  37.352  1.00  0.00     0.166 A 
HETATM   23  O12 UNL     1      51.840  82.846  37.987  1.00  0.00    -0.220 OA
HETATM   24  N14 UNL     1      51.881  83.022  39.283  1.00  0.00    -0.261 N 
ATOM     25  H14 UNL     1      51.424  82.425  39.972  1.00  0.00     0.194 HD
BRANCH  22  26
HETATM   26  N13 UNL     1      52.686  83.890  36.076  1.00  0.00    -0.378 N 
ATOM     27 2H13 UNL     1      52.074  83.601  35.314  1.00  0.00     0.158 HD
ATOM     28 1H13 UNL     1      53.492  84.323  35.625  1.00  0.00     0.158 HD
ENDBRANCH  22  26
ENDBRANCH  19  20
ENDBRANCH  18  19
ENDBRANCH  16  18
ENDBRANCH   9  16
ENDBRANCH   4   5
ENDBRANCH   1   4
BRANCH   1  29
HETATM   29  N5  UNL     1      50.187  91.326  35.751  1.00  0.00    -0.270 N 
ATOM     30  H5  UNL     1      49.569  91.715  35.039  1.00  0.00     0.189 HD
BRANCH  29  31
HETATM   31  N6  UNL     1      51.567  91.328  35.493  1.00  0.00    -0.118 N 
HETATM   32  C11 UNL     1      52.262  90.072  35.437  1.00  0.00     0.190 C 
HETATM   33  C12 UNL     1      53.501  90.106  34.567  1.00  0.00     0.175 C 
HETATM   34  N7  UNL     1      54.171  91.374  34.622  1.00  0.00    -0.249 N 
HETATM   35  C13 UNL     1      55.576  91.409  34.404  1.00  0.00     0.203 C 
HETATM   36  N10 UNL     1      53.514  92.577  34.875  1.00  0.00    -0.124 N 
HETATM   37  N8  UNL     1      56.418  91.177  35.344  1.00  0.00    -0.372 N 
HETATM   38  N9  UNL     1      56.055  91.710  33.105  1.00  0.00    -0.062 NA
ATOM     39  H82 UNL     1      56.073  90.960  36.278  1.00  0.00     0.158 HD
ATOM     40  H81 UNL     1      57.425  91.202  35.187  1.00  0.00     0.158 HD
HETATM   41  C14 UNL     1      52.295  92.529  35.282  1.00  0.00     0.733 C 
ATOM     42  H10 UNL     1      53.987  93.471  34.742  1.00  0.00     0.206 HD
BRANCH  41  43
HETATM   43  N11 UNL     1      51.593  93.760  35.551  1.00  0.00    -0.069 N 
ATOM     44  H11 UNL     1      51.665  94.215  36.461  1.00  0.00     0.212 HD
BRANCH  43  45
HETATM   45  N12 UNL     1      50.804  94.317  34.523  1.00  0.00    -0.024 N 
HETATM   46  O8  UNL     1      50.187  93.618  33.701  1.00  0.00    -0.516 OA
HETATM   47  O9  UNL     1      50.741  95.702  34.460  1.00  0.00    -0.516 OA
ENDBRANCH  43  45
ENDBRANCH  41  43
ENDBRANCH  29  31
ENDBRANCH   1  29
BRANCH   2  48
HETATM   48  O4  UNL     1      50.176  92.740  38.174  1.00  0.00    -0.144 OA
BRANCH  48  49
HETATM   49  S1  UNL     1      49.334  94.198  38.172  1.00  0.00     0.342 S 
HETATM   50  O5  UNL     1      48.700  94.361  39.533  1.00  0.00    -0.189 OA
HETATM   51  O6  UNL     1      50.232  95.374  37.874  1.00  0.00    -0.189 OA
BRANCH  49  52
HETATM   52  C7  UNL     1      48.086  94.148  36.943  1.00  0.00     0.216 A 
HETATM   53  C8  UNL     1      47.369  95.214  36.462  1.00  0.00     0.142 A 
HETATM   54  N4  UNL     1      46.500  94.773  35.524  1.00  0.00    -0.347 N 
HETATM   55  C9  UNL     1      46.697  93.441  35.443  1.00  0.00     0.121 A 
ATOM     56  H4  UNL     1      45.834  95.332  34.990  1.00  0.00     0.167 HD
HETATM   57  C10 UNL     1      45.932  92.551  34.516  1.00  0.00     0.098 C 
HETATM   58  O7  UNL     1      47.639  93.095  36.291  1.00  0.00    -0.283 OA
ENDBRANCH  49  52
ENDBRANCH  48  49
ENDBRANCH   2  48
TORSDOF 16
ENDMDL
MODEL 4
REMARK VINA RESULT: -10.010615029      2.052      4.049
REMARK  16 active torsions:
REMARK  status: ('A' for Active; 'I' for Inactive)
REMARK    1  A    between atoms: O1_2  and  C2_3 
REMARK    2  A    between atoms: C2_3  and  C3_5 
REMARK    3  A    between atoms: C3_5  and  C15_46 
REMARK       I    between atoms: N1_6  and  C4_8 
REMARK       I    between atoms: C4_8  and  N2_10 
REMARK    4  A    between atoms: N2_10  and  C5_12 
REMARK    5  A    between atoms: C5_12  and  C6_13 
REMARK    6  A    between atoms: C6_13  and  N5_27 
REMARK    7  A    between atoms: N3_14  and  O4_16 
REMARK    8  A    between atoms: O4_16  and  S1_17 
REMARK    9  A    between atoms: S1_17  and  C7_20 
REMARK   10  A    between atoms: N5_27  and  N6_29 
REMARK       I    between atoms: N7_32  and  C13_33 
REMARK   11  A    between atoms: C14_40  and  N11_41 
REMARK   12  A    between atoms: N11_41  and  N12_43 
REMARK   13  A    between atoms: C15_46  and  O11_48 
REMARK   14  A    between atoms: O11_48  and  C16_49 
REMARK   15  A    between atoms: C16_49  and  C17_50 
REMARK   16  A    between atoms: C19_52  and  N13_53 
ROOT
HETATM    1  C6  UNL     1      48.913  89.822  39.593  1.00  0.00     0.135 C 
HETATM    2  N3  UNL     1      47.895  89.202  39.109  1.00  0.00    -0.234 N 
ATOM      3  H3  UNL     1      47.766  88.234  39.405  1.00  0.00     0.197 HD
ENDROOT
BRANCH   1   4
HETATM    4  C5  UNL     1      49.817  89.125  40.524  1.00  0.00     0.204 C 
BRANCH   4   5
HETATM    5  N2  UNL     1      50.449  88.001  39.843  1.00  0.00    -0.336 N 
HETATM    6  C4  UNL     1      51.851  87.970  39.646  1.00  0.00     0.321 C 
HETATM    7  N1  UNL     1      52.545  86.941  39.008  1.00  0.00    -0.299 N 
HETATM    8  O3  UNL     1      52.548  88.951  40.078  1.00  0.00    -0.247 OA
HETATM    9  C3  UNL     1      53.032  85.889  39.517  1.00  0.00     0.188 C 
ATOM     10  H1  UNL     1      52.678  87.051  38.003  1.00  0.00     0.171 HD
ATOM     11  H2  UNL     1      49.875  87.228  39.506  1.00  0.00     0.164 HD
BRANCH   9  12
HETATM   12  C2  UNL     1      52.903  85.631  40.934  1.00  0.00     0.316 C 
HETATM   13  O2  UNL     1      51.784  85.315  41.394  1.00  0.00    -0.257 OA
BRANCH  12  14
HETATM   14  O1  UNL     1      53.970  85.720  41.807  1.00  0.00    -0.321 OA
HETATM   15  C1  UNL     1      54.596  86.936  42.171  1.00  0.00     0.213 C 
ENDBRANCH  12  14
ENDBRANCH   9  12
BRANCH   9  16
HETATM   16  C15 UNL     1      53.749  84.880  38.716  1.00  0.00     0.316 C 
HETATM   17  O10 UNL     1      54.764  85.233  38.064  1.00  0.00    -0.257 OA
BRANCH  16  18
HETATM   18  O11 UNL     1      53.358  83.570  38.652  1.00  0.00    -0.310 OA
BRANCH  18  19
HETATM   19  C16 UNL     1      52.109  83.107  38.244  1.00  0.00     0.238 C 
BRANCH  19  20
HETATM   20  C17 UNL     1      52.179  81.881  37.415  1.00  0.00     0.061 A 
HETATM   21  C18 UNL     1      52.891  81.732  36.245  1.00  0.00     0.087 A 
HETATM   22  C19 UNL     1      52.684  80.426  35.782  1.00  0.00     0.166 A 
HETATM   23  O12 UNL     1      51.895  79.876  36.651  1.00  0.00    -0.220 OA
HETATM   24  N14 UNL     1      51.581  80.698  37.619  1.00  0.00    -0.261 N 
ATOM     25  H14 UNL     1      50.975  80.474  38.408  1.00  0.00     0.194 HD
BRANCH  22  26
HETATM   26  N13 UNL     1      53.190  79.912  34.707  1.00  0.00    -0.378 N 
ATOM     27 2H13 UNL     1      53.974  80.247  34.147  1.00  0.00     0.158 HD
ATOM     28 1H13 UNL     1      52.869  79.063  34.242  1.00  0.00     0.158 HD
ENDBRANCH  22  26
ENDBRANCH  19  20
ENDBRANCH  18  19
ENDBRANCH  16  18
ENDBRANCH   9  16
ENDBRANCH   4   5
ENDBRANCH   1   4
BRANCH   1  29
HETATM   29  N5  UNL     1      49.159  91.167  39.227  1.00  0.00    -0.270 N 
ATOM     30  H5  UNL     1      48.707  91.899  39.776  1.00  0.00     0.189 HD
BRANCH  29  31
HETATM   31  N6  UNL     1      49.982  91.562  38.161  1.00  0.00    -0.118 N 
HETATM   32  C11 UNL     1      50.854  90.589  37.564  1.00  0.00     0.190 C 
HETATM   33  C12 UNL     1      51.188  90.885  36.117  1.00  0.00     0.175 C 
HETATM   34  N7  UNL     1      51.284  92.294  35.856  1.00  0.00    -0.249 N 
HETATM   35  C13 UNL     1      52.139  92.732  34.808  1.00  0.00     0.203 C 
HETATM   36  N10 UNL     1      50.579  93.256  36.577  1.00  0.00    -0.124 N 
HETATM   37  N8  UNL     1      53.399  92.906  34.983  1.00  0.00    -0.372 N 
HETATM   38  N9  UNL     1      51.577  92.983  33.532  1.00  0.00    -0.062 NA
ATOM     39  H82 UNL     1      53.803  92.725  35.901  1.00  0.00     0.158 HD
ATOM     40  H81 UNL     1      54.011  93.220  34.231  1.00  0.00     0.158 HD
HETATM   41  C14 UNL     1      49.978  92.888  37.653  1.00  0.00     0.733 C 
ATOM     42  H10 UNL     1      50.541  94.225  36.260  1.00  0.00     0.206 HD
BRANCH  41  43
HETATM   43  N11 UNL     1      49.242  93.865  38.417  1.00  0.00    -0.069 N 
ATOM     44  H11 UNL     1      48.918  93.655  39.361  1.00  0.00     0.212 HD
BRANCH  43  45
HETATM   45  N12 UNL     1      48.981  95.118  37.823  1.00  0.00    -0.024 N 
HETATM   46  O8  UNL     1      47.836  95.478  37.498  1.00  0.00    -0.516 OA
HETATM   47  O9  UNL     1      50.069  95.952  37.611  1.00  0.00    -0.516 OA
ENDBRANCH  43  45
ENDBRANCH  41  43
ENDBRANCH  29  31
ENDBRANCH   1  29
BRANCH   2  48
HETATM   48  O4  UNL     1      46.978  89.700  38.248  1.00  0.00    -0.144 OA
BRANCH  48  49
HETATM   49  S1  UNL     1      47.114  89.692  36.570  1.00  0.00     0.342 S 
HETATM   50  O5  UNL     1      48.423  89.025  36.221  1.00  0.00    -0.189 OA
HETATM   51  O6  UNL     1      45.969  88.963  35.909  1.00  0.00    -0.189 OA
BRANCH  49  52
HETATM   52  C7  UNL     1      47.116  91.340  35.978  1.00  0.00     0.216 A 
HETATM   53  C8  UNL     1      46.327  92.370  36.422  1.00  0.00     0.142 A 
HETATM   54  N4  UNL     1      46.621  93.487  35.718  1.00  0.00    -0.347 N 
HETATM   55  C9  UNL     1      47.589  93.125  34.850  1.00  0.00     0.121 A 
ATOM     56  H4  UNL     1      46.199  94.410  35.821  1.00  0.00     0.167 HD
HETATM   57  C10 UNL     1      48.210  94.068  33.870  1.00  0.00     0.098 C 
HETATM   58  O7  UNL     1      47.864  91.852  35.022  1.00  0.00    -0.283 OA
ENDBRANCH  49  52
ENDBRANCH  48  49
ENDBRANCH   2  48
TORSDOF 16
ENDMDL
MODEL 5
REMARK VINA RESULT: -9.943167605      2.261      4.182
REMARK  16 active torsions:
REMARK  status: ('A' for Active; 'I' for Inactive)
REMARK    1  A    between atoms: O1_2  and  C2_3 
REMARK    2  A    between atoms: C2_3  and  C3_5 
REMARK    3  A    between atoms: C3_5  and  C15_46 
REMARK       I    between atoms: N1_6  and  C4_8 
REMARK       I    between atoms: C4_8  and  N2_10 
REMARK    4  A    between atoms: N2_10  and  C5_12 
REMARK    5  A    between atoms: C5_12  and  C6_13 
REMARK    6  A    between atoms: C6_13  and  N5_27 
REMARK    7  A    between atoms: N3_14  and  O4_16 
REMARK    8  A    between atoms: O4_16  and  S1_17 
REMARK    9  A    between atoms: S1_17  and  C7_20 
REMARK   10  A    between atoms: N5_27  and  N6_29 
REMARK       I    between atoms: N7_32  and  C13_33 
REMARK   11  A    between atoms: C14_40  and  N11_41 
REMARK   12  A    between atoms: N11_41  and  N12_43 
REMARK   13  A    between atoms: C15_46  and  O11_48 
REMARK   14  A    between atoms: O11_48  and  C16_49 
REMARK   15  A    between atoms: C16_49  and  C17_50 
REMARK   16  A    between atoms: C19_52  and  N13_53 
ROOT
HETATM    1  C6  UNL     1      49.466  89.767  38.843  1.00  0.00     0.135 C 
HETATM    2  N3  UNL     1      48.736  89.305  37.890  1.00  0.00    -0.234 N 
ATOM      3  H3  UNL     1      48.205  88.458  38.089  1.00  0.00     0.197 HD
ENDROOT
BRANCH   1   4
HETATM    4  C5  UNL     1      49.499  89.069  40.140  1.00  0.00     0.204 C 
BRANCH   4   5
HETATM    5  N2  UNL     1      49.796  87.657  39.929  1.00  0.00    -0.336 N 
HETATM    6  C4  UNL     1      50.977  87.259  39.257  1.00  0.00     0.321 C 
HETATM    7  N1  UNL     1      51.347  85.936  39.008  1.00  0.00    -0.299 N 
HETATM    8  O3  UNL     1      51.775  88.166  38.840  1.00  0.00    -0.247 OA
HETATM    9  C3  UNL     1      52.023  85.159  39.743  1.00  0.00     0.188 C 
ATOM     10  H1  UNL     1      51.032  85.546  38.120  1.00  0.00     0.171 HD
ATOM     11  H2  UNL     1      49.146  86.949  40.269  1.00  0.00     0.164 HD
BRANCH   9  12
HETATM   12  C2  UNL     1      52.521  85.607  41.025  1.00  0.00     0.316 C 
HETATM   13  O2  UNL     1      51.731  86.158  41.824  1.00  0.00    -0.257 OA
BRANCH  12  14
HETATM   14  O1  UNL     1      53.839  85.453  41.407  1.00  0.00    -0.321 OA
HETATM   15  C1  UNL     1      54.936  86.016  40.711  1.00  0.00     0.213 C 
ENDBRANCH  12  14
ENDBRANCH   9  12
BRANCH   9  16
HETATM   16  C15 UNL     1      52.343  83.774  39.350  1.00  0.00     0.316 C 
HETATM   17  O10 UNL     1      51.637  82.837  39.802  1.00  0.00    -0.257 OA
BRANCH  16  18
HETATM   18  O11 UNL     1      53.380  83.463  38.512  1.00  0.00    -0.310 OA
BRANCH  18  19
HETATM   19  C16 UNL     1      53.340  83.479  37.119  1.00  0.00     0.238 C 
BRANCH  19  20
HETATM   20  C17 UNL     1      53.050  82.154  36.524  1.00  0.00     0.061 A 
HETATM   21  C18 UNL     1      53.609  81.640  35.375  1.00  0.00     0.087 A 
HETATM   22  C19 UNL     1      53.061  80.368  35.165  1.00  0.00     0.166 A 
HETATM   23  O12 UNL     1      52.238  80.183  36.149  1.00  0.00    -0.220 OA
HETATM   24  N14 UNL     1      52.207  81.207  36.963  1.00  0.00    -0.261 N 
ATOM     25  H14 UNL     1      51.631  81.275  37.801  1.00  0.00     0.194 HD
BRANCH  22  26
HETATM   26  N13 UNL     1      53.342  79.573  34.183  1.00  0.00    -0.378 N 
ATOM     27 2H13 UNL     1      54.250  79.365  33.769  1.00  0.00     0.158 HD
ATOM     28 1H13 UNL     1      52.671  79.012  33.656  1.00  0.00     0.158 HD
ENDBRANCH  22  26
ENDBRANCH  19  20
ENDBRANCH  18  19
ENDBRANCH  16  18
ENDBRANCH   9  16
ENDBRANCH   4   5
ENDBRANCH   1   4
BRANCH   1  29
HETATM   29  N5  UNL     1      50.233  90.940  38.641  1.00  0.00    -0.270 N 
ATOM     30  H5  UNL     1      51.244  90.872  38.757  1.00  0.00     0.189 HD
BRANCH  29  31
HETATM   31  N6  UNL     1      49.696  92.189  38.293  1.00  0.00    -0.118 N 
HETATM   32  C11 UNL     1      48.744  92.802  39.177  1.00  0.00     0.190 C 
HETATM   33  C12 UNL     1      48.719  94.314  39.082  1.00  0.00     0.175 C 
HETATM   34  N7  UNL     1      48.968  94.781  37.747  1.00  0.00    -0.249 N 
HETATM   35  C13 UNL     1      48.407  96.024  37.348  1.00  0.00     0.203 C 
HETATM   36  N10 UNL     1      49.737  94.077  36.821  1.00  0.00    -0.124 N 
HETATM   37  N8  UNL     1      47.202  96.121  36.915  1.00  0.00    -0.372 N 
HETATM   38  N9  UNL     1      49.208  97.190  37.431  1.00  0.00    -0.062 NA
ATOM     39  H82 UNL     1      46.626  95.282  36.856  1.00  0.00     0.158 HD
ATOM     40  H81 UNL     1      46.800  97.013  36.629  1.00  0.00     0.158 HD
HETATM   41  C14 UNL     1      50.065  92.865  37.100  1.00  0.00     0.733 C 
ATOM     42  H10 UNL     1      50.032  94.511  35.946  1.00  0.00     0.206 HD
BRANCH  41  43
HETATM   43  N11 UNL     1      50.860  92.116  36.159  1.00  0.00    -0.069 N 
ATOM     44  H11 UNL     1      50.828  91.097  36.141  1.00  0.00     0.212 HD
BRANCH  43  45
HETATM   45  N12 UNL     1      51.684  92.830  35.263  1.00  0.00    -0.024 N 
HETATM   46  O8  UNL     1      51.608  92.691  34.030  1.00  0.00    -0.516 OA
HETATM   47  O9  UNL     1      52.600  93.712  35.819  1.00  0.00    -0.516 OA
ENDBRANCH  43  45
ENDBRANCH  41  43
ENDBRANCH  29  31
ENDBRANCH   1  29
BRANCH   2  48
HETATM   48  O4  UNL     1      48.600  89.828  36.649  1.00  0.00    -0.144 OA
BRANCH  48  49
HETATM   49  S1  UNL     1      47.144  90.012  35.825  1.00  0.00     0.342 S 
HETATM   50  O5  UNL     1      47.105  88.975  34.729  1.00  0.00    -0.189 OA
HETATM   51  O6  UNL     1      45.951  89.848  36.736  1.00  0.00    -0.189 OA
BRANCH  49  52
HETATM   52  C7  UNL     1      47.069  91.615  35.123  1.00  0.00     0.216 A 
HETATM   53  C8  UNL     1      45.936  92.343  34.866  1.00  0.00     0.142 A 
HETATM   54  N4  UNL     1      46.288  93.531  34.322  1.00  0.00    -0.347 N 
HETATM   55  C9  UNL     1      47.635  93.513  34.254  1.00  0.00     0.121 A 
ATOM     56  H4  UNL     1      45.665  94.281  34.025  1.00  0.00     0.167 HD
HETATM   57  C10 UNL     1      48.446  94.645  33.709  1.00  0.00     0.098 C 
HETATM   58  O7  UNL     1      48.074  92.371  34.733  1.00  0.00    -0.283 OA
ENDBRANCH  49  52
ENDBRANCH  48  49
ENDBRANCH   2  48
TORSDOF 16
ENDMDL
