MODEL 1
REMARK VINA RESULT: -9.723723431      0.000      0.000
REMARK  20 active torsions:
REMARK  status: ('A' for Active; 'I' for Inactive)
REMARK    1  A    between atoms: O1_2  and  C2_3 
REMARK    2  A    between atoms: C2_3  and  C3_5 
REMARK    3  A    between atoms: C3_5  and  O3_6 
REMARK    4  A    between atoms: C5_9  and  C6_10 
REMARK    5  A    between atoms: C6_10  and  O4_11 
REMARK    6  A    between atoms: C6_10  and  O5_13 
REMARK    7  A    between atoms: O5_13  and  C7_14 
REMARK    8  A    between atoms: C9_16  and  O6_17 
REMARK    9  A    between atoms: C13_22  and  N1_23 
REMARK   10  A    between atoms: N1_23  and  C14_25 
REMARK   11  A    between atoms: C14_25  and  O7_26 
REMARK   12  A    between atoms: C14_25  and  C15_28 
REMARK   13  A    between atoms: C15_28  and  O8_29 
REMARK   14  A    between atoms: O8_29  and  C16_30 
REMARK   15  A    between atoms: C23_41  and  C24_42 
REMARK   16  A    between atoms: C24_42  and  N4_43 
REMARK   17  A    between atoms: N5_47  and  C26_49 
REMARK   18  A    between atoms: C26_49  and  O12_50 
REMARK   19  A    between atoms: C26_49  and  C27_52 
REMARK   20  A    between atoms: C29_55  and  O14_56 
ROOT
HETATM    1  C6  UNL     1      47.340  89.318  36.760  1.00  0.00     0.267 C 
ENDROOT
BRANCH   1   2
HETATM    2  C5  UNL     1      46.842  90.771  36.909  1.00  0.00     0.056 C 
HETATM    3  C4  UNL     1      46.411  91.250  35.574  1.00  0.00     0.062 C 
HETATM    4  C3  UNL     1      46.960  92.509  35.034  1.00  0.00     0.176 C 
HETATM    5  C29 UNL     1      47.072  93.542  36.152  1.00  0.00     0.208 C 
HETATM    6  C25 UNL     1      47.925  92.989  37.207  1.00  0.00     0.023 C 
HETATM    7  C23 UNL     1      47.826  91.564  37.658  1.00  0.00     0.067 C 
HETATM    8  N5  UNL     1      48.789  93.675  37.799  1.00  0.00    -0.362 N 
ATOM      9  H5  UNL     1      49.299  93.146  38.506  1.00  0.00     0.162 HD
BRANCH   4  10
HETATM   10  C2  UNL     1      48.195  92.419  34.267  1.00  0.00     0.296 C 
HETATM   11  O2  UNL     1      48.454  93.248  33.365  1.00  0.00    -0.262 OA
BRANCH  10  12
HETATM   12  O1  UNL     1      49.117  91.426  34.504  1.00  0.00    -0.324 OA
HETATM   13  C1  UNL     1      50.472  91.699  34.833  1.00  0.00     0.213 C 
ENDBRANCH  10  12
ENDBRANCH   4  10
BRANCH   4  14
HETATM   14  O3  UNL     1      45.976  92.997  34.113  1.00  0.00    -0.377 OA
ATOM     15  H3  UNL     1      45.621  93.780  34.516  1.00  0.00     0.211 HD
ENDBRANCH   4  14
BRANCH   5  16
HETATM   16  O14 UNL     1      47.487  94.752  35.634  1.00  0.00    -0.386 OA
ATOM     17  H14 UNL     1      47.061  95.465  36.096  1.00  0.00     0.210 HD
ENDBRANCH   5  16
BRANCH   7  18
HETATM   18  C24 UNL     1      47.642  91.607  39.156  1.00  0.00     0.212 C 
BRANCH  18  19
HETATM   19  N4  UNL     1      48.784  92.094  39.882  1.00  0.00    -0.155 N 
HETATM   20  O10 UNL     1      48.597  92.987  40.738  1.00  0.00    -0.537 OA
HETATM   21  O11 UNL     1      50.074  91.676  39.731  1.00  0.00    -0.537 OA
ENDBRANCH  18  19
ENDBRANCH   7  18
BRANCH   8  22
HETATM   22  C26 UNL     1      49.208  94.997  37.707  1.00  0.00     0.288 C 
BRANCH  22  23
HETATM   23  O12 UNL     1      49.377  95.607  38.949  1.00  0.00    -0.370 OA
ATOM     24  H12 UNL     1      50.257  95.936  39.087  1.00  0.00     0.212 HD
ENDBRANCH  22  23
BRANCH  22  25
HETATM   25  C27 UNL     1      50.538  94.995  36.998  1.00  0.00     0.171 C 
HETATM   26  C28 UNL     1      50.805  95.990  35.955  1.00  0.00     0.096 C 
HETATM   27  O13 UNL     1      51.353  94.164  37.312  1.00  0.00    -0.294 OA
ENDBRANCH  22  25
ENDBRANCH   8  22
ENDBRANCH   1   2
BRANCH   1  28
HETATM   28  O4  UNL     1      47.550  89.090  35.416  1.00  0.00    -0.370 OA
ATOM     29  H4  UNL     1      47.331  88.182  35.244  1.00  0.00     0.212 HD
ENDBRANCH   1  28
BRANCH   1  30
HETATM   30  O5  UNL     1      48.455  89.156  37.582  1.00  0.00    -0.331 OA
BRANCH  30  31
HETATM   31  C7  UNL     1      49.728  88.918  37.135  1.00  0.00     0.154 C 
HETATM   32  C8  UNL     1      50.688  88.607  37.982  1.00  0.00     0.049 A 
HETATM   33  C9  UNL     1      51.986  88.361  37.572  1.00  0.00     0.087 A 
HETATM   34  C19 UNL     1      50.407  88.521  39.321  1.00  0.00     0.076 A 
HETATM   35  C10 UNL     1      52.979  88.035  38.497  1.00  0.00    -0.014 A 
HETATM   36  C11 UNL     1      54.302  87.741  37.884  1.00  0.00     0.052 C 
HETATM   37  C12 UNL     1      52.697  87.953  39.836  1.00  0.00     0.017 A 
HETATM   38  C13 UNL     1      53.622  87.733  40.719  1.00  0.00     0.099 C 
HETATM   39  C18 UNL     1      51.379  88.200  40.261  1.00  0.00     0.075 A 
HETATM   40  N3  UNL     1      50.728  88.206  41.435  1.00  0.00    -0.339 N 
HETATM   41  C20 UNL     1      49.405  88.517  41.257  1.00  0.00     0.080 A 
HETATM   42  C22 UNL     1      51.267  87.920  42.738  1.00  0.00     0.158 C 
HETATM   43  N2  UNL     1      49.220  88.705  39.973  1.00  0.00    -0.343 N 
HETATM   44  C21 UNL     1      48.401  88.609  42.357  1.00  0.00     0.089 C 
ATOM     45  H2  UNL     1      48.334  88.950  39.531  1.00  0.00     0.167 HD
BRANCH  33  46
HETATM   46  O6  UNL     1      52.214  88.462  36.237  1.00  0.00    -0.359 OA
ATOM     47  H6  UNL     1      52.805  89.157  35.970  1.00  0.00     0.217 HD
ENDBRANCH  33  46
BRANCH  38  48
HETATM   48  N1  UNL     1      55.028  87.537  40.588  1.00  0.00    -0.371 N 
ATOM     49  H1  UNL     1      55.560  88.145  39.966  1.00  0.00     0.161 HD
BRANCH  48  50
HETATM   50  C14 UNL     1      55.706  86.511  41.307  1.00  0.00     0.241 C 
BRANCH  50  51
HETATM   51  O7  UNL     1      56.626  85.860  40.477  1.00  0.00    -0.375 OA
ATOM     52  H7  UNL     1      57.514  86.039  40.762  1.00  0.00     0.212 HD
ENDBRANCH  50  51
BRANCH  50  53
HETATM   53  C15 UNL     1      54.898  85.540  42.074  1.00  0.00     0.232 C 
BRANCH  53  54
HETATM   54  O8  UNL     1      54.508  84.377  41.429  1.00  0.00    -0.317 OA
BRANCH  54  55
HETATM   55  C16 UNL     1      53.287  84.331  40.778  1.00  0.00     0.254 C 
HETATM   56  C17 UNL     1      53.202  84.087  39.300  1.00  0.00     0.126 C 
HETATM   57  O9  UNL     1      52.192  84.488  41.377  1.00  0.00    -0.266 OA
ENDBRANCH  54  55
ENDBRANCH  53  54
ENDBRANCH  50  53
ENDBRANCH  48  50
ENDBRANCH  38  48
ENDBRANCH  30  31
ENDBRANCH   1  30
TORSDOF 20
ENDMDL
MODEL 2
REMARK VINA RESULT: -9.184472264      2.277      8.783
REMARK  20 active torsions:
REMARK  status: ('A' for Active; 'I' for Inactive)
REMARK    1  A    between atoms: O1_2  and  C2_3 
REMARK    2  A    between atoms: C2_3  and  C3_5 
REMARK    3  A    between atoms: C3_5  and  O3_6 
REMARK    4  A    between atoms: C5_9  and  C6_10 
REMARK    5  A    between atoms: C6_10  and  O4_11 
REMARK    6  A    between atoms: C6_10  and  O5_13 
REMARK    7  A    between atoms: O5_13  and  C7_14 
REMARK    8  A    between atoms: C9_16  and  O6_17 
REMARK    9  A    between atoms: C13_22  and  N1_23 
REMARK   10  A    between atoms: N1_23  and  C14_25 
REMARK   11  A    between atoms: C14_25  and  O7_26 
REMARK   12  A    between atoms: C14_25  and  C15_28 
REMARK   13  A    between atoms: C15_28  and  O8_29 
REMARK   14  A    between atoms: O8_29  and  C16_30 
REMARK   15  A    between atoms: C23_41  and  C24_42 
REMARK   16  A    between atoms: C24_42  and  N4_43 
REMARK   17  A    between atoms: N5_47  and  C26_49 
REMARK   18  A    between atoms: C26_49  and  O12_50 
REMARK   19  A    between atoms: C26_49  and  C27_52 
REMARK   20  A    between atoms: C29_55  and  O14_56 
ROOT
HETATM    1  C6  UNL     1      48.739  88.992  37.161  1.00  0.00     0.267 C 
ENDROOT
BRANCH   1   2
HETATM    2  C5  UNL     1      50.148  89.393  37.649  1.00  0.00     0.056 C 
HETATM    3  C4  UNL     1      51.099  88.332  37.238  1.00  0.00     0.062 C 
HETATM    4  C3  UNL     1      51.976  87.703  38.243  1.00  0.00     0.176 C 
HETATM    5  C29 UNL     1      52.481  88.763  39.219  1.00  0.00     0.208 C 
HETATM    6  C25 UNL     1      51.322  89.407  39.841  1.00  0.00     0.023 C 
HETATM    7  C23 UNL     1      50.096  89.781  39.065  1.00  0.00     0.067 C 
HETATM    8  N5  UNL     1      51.284  89.686  41.061  1.00  0.00    -0.362 N 
ATOM      9  H5  UNL     1      50.409  90.131  41.339  1.00  0.00     0.162 HD
BRANCH   4  10
HETATM   10  C2  UNL     1      51.453  86.540  38.945  1.00  0.00     0.296 C 
HETATM   11  O2  UNL     1      50.226  86.420  39.167  1.00  0.00    -0.262 OA
BRANCH  10  12
HETATM   12  O1  UNL     1      52.282  85.536  39.389  1.00  0.00    -0.324 OA
HETATM   13  C1  UNL     1      52.094  84.878  40.634  1.00  0.00     0.213 C 
ENDBRANCH  10  12
ENDBRANCH   4  10
BRANCH   4  14
HETATM   14  O3  UNL     1      53.117  87.228  37.518  1.00  0.00    -0.377 OA
ATOM     15  H3  UNL     1      53.362  87.940  36.939  1.00  0.00     0.211 HD
ENDBRANCH   4  14
BRANCH   5  16
HETATM   16  O14 UNL     1      53.384  88.200  40.099  1.00  0.00    -0.386 OA
ATOM     17  H14 UNL     1      53.279  88.586  40.961  1.00  0.00     0.210 HD
ENDBRANCH   5  16
BRANCH   7  18
HETATM   18  C24 UNL     1      49.851  91.245  39.343  1.00  0.00     0.212 C 
BRANCH  18  19
HETATM   19  N4  UNL     1      48.781  91.504  40.269  1.00  0.00    -0.155 N 
HETATM   20  O10 UNL     1      48.126  90.527  40.693  1.00  0.00    -0.537 OA
HETATM   21  O11 UNL     1      48.400  92.726  40.741  1.00  0.00    -0.537 OA
ENDBRANCH  18  19
ENDBRANCH   7  18
BRANCH   8  22
HETATM   22  C26 UNL     1      52.168  89.525  42.121  1.00  0.00     0.288 C 
BRANCH  22  23
HETATM   23  O12 UNL     1      52.155  90.595  43.015  1.00  0.00    -0.370 OA
ATOM     24  H12 UNL     1      52.056  90.324  43.920  1.00  0.00     0.212 HD
ENDBRANCH  22  23
BRANCH  22  25
HETATM   25  C27 UNL     1      51.751  88.283  42.865  1.00  0.00     0.171 C 
HETATM   26  C28 UNL     1      50.412  88.210  43.458  1.00  0.00     0.096 C 
HETATM   27  O13 UNL     1      52.539  87.376  42.954  1.00  0.00    -0.294 OA
ENDBRANCH  22  25
ENDBRANCH   8  22
ENDBRANCH   1   2
BRANCH   1  28
HETATM   28  O4  UNL     1      47.891  89.068  38.246  1.00  0.00    -0.370 OA
ATOM     29  H4  UNL     1      47.003  88.986  37.918  1.00  0.00     0.212 HD
ENDBRANCH   1  28
BRANCH   1  30
HETATM   30  O5  UNL     1      48.410  89.804  36.076  1.00  0.00    -0.331 OA
BRANCH  30  31
HETATM   31  C7  UNL     1      47.563  90.879  36.134  1.00  0.00     0.154 C 
HETATM   32  C8  UNL     1      47.925  92.044  35.637  1.00  0.00     0.049 A 
HETATM   33  C9  UNL     1      47.101  93.154  35.676  1.00  0.00     0.087 A 
HETATM   34  C19 UNL     1      49.160  92.178  35.057  1.00  0.00     0.076 A 
HETATM   35  C10 UNL     1      47.517  94.374  35.141  1.00  0.00    -0.014 A 
HETATM   36  C11 UNL     1      46.487  95.446  35.209  1.00  0.00     0.052 C 
HETATM   37  C12 UNL     1      48.754  94.507  34.565  1.00  0.00     0.017 A 
HETATM   38  C13 UNL     1      49.191  95.652  34.136  1.00  0.00     0.099 C 
HETATM   39  C18 UNL     1      49.597  93.383  34.519  1.00  0.00     0.075 A 
HETATM   40  N3  UNL     1      50.826  93.115  34.048  1.00  0.00    -0.339 N 
HETATM   41  C20 UNL     1      51.161  91.805  34.275  1.00  0.00     0.080 A 
HETATM   42  C22 UNL     1      51.721  94.016  33.374  1.00  0.00     0.158 C 
HETATM   43  N2  UNL     1      50.144  91.245  34.886  1.00  0.00    -0.343 N 
HETATM   44  C21 UNL     1      52.456  91.181  33.877  1.00  0.00     0.089 C 
ATOM     45  H2  UNL     1      50.096  90.272  35.185  1.00  0.00     0.167 HD
BRANCH  33  46
HETATM   46  O6  UNL     1      45.890  92.972  36.263  1.00  0.00    -0.359 OA
ATOM     47  H6  UNL     1      45.165  93.448  35.875  1.00  0.00     0.217 HD
ENDBRANCH  33  46
BRANCH  38  48
HETATM   48  N1  UNL     1      48.601  96.949  34.134  1.00  0.00    -0.371 N 
ATOM     49  H1  UNL     1      47.880  97.167  33.448  1.00  0.00     0.161 HD
BRANCH  48  50
HETATM   50  C14 UNL     1      48.997  97.947  35.071  1.00  0.00     0.241 C 
BRANCH  50  51
HETATM   51  O7  UNL     1      49.404  99.108  34.403  1.00  0.00    -0.375 OA
ATOM     52  H7  UNL     1      49.916  99.661  34.982  1.00  0.00     0.212 HD
ENDBRANCH  50  51
BRANCH  50  53
HETATM   53  C15 UNL     1      49.960  97.574  36.128  1.00  0.00     0.232 C 
BRANCH  53  54
HETATM   54  O8  UNL     1      49.450  97.188  37.356  1.00  0.00    -0.317 OA
BRANCH  54  55
HETATM   55  C16 UNL     1      49.588  95.876  37.774  1.00  0.00     0.254 C 
HETATM   56  C17 UNL     1      48.506  95.187  38.552  1.00  0.00     0.126 C 
HETATM   57  O9  UNL     1      50.615  95.191  37.531  1.00  0.00    -0.266 OA
ENDBRANCH  54  55
ENDBRANCH  53  54
ENDBRANCH  50  53
ENDBRANCH  48  50
ENDBRANCH  38  48
ENDBRANCH  30  31
ENDBRANCH   1  30
TORSDOF 20
ENDMDL
MODEL 3
REMARK VINA RESULT: -9.042193232      2.217      9.004
REMARK  20 active torsions:
REMARK  status: ('A' for Active; 'I' for Inactive)
REMARK    1  A    between atoms: O1_2  and  C2_3 
REMARK    2  A    between atoms: C2_3  and  C3_5 
REMARK    3  A    between atoms: C3_5  and  O3_6 
REMARK    4  A    between atoms: C5_9  and  C6_10 
REMARK    5  A    between atoms: C6_10  and  O4_11 
REMARK    6  A    between atoms: C6_10  and  O5_13 
REMARK    7  A    between atoms: O5_13  and  C7_14 
REMARK    8  A    between atoms: C9_16  and  O6_17 
REMARK    9  A    between atoms: C13_22  and  N1_23 
REMARK   10  A    between atoms: N1_23  and  C14_25 
REMARK   11  A    between atoms: C14_25  and  O7_26 
REMARK   12  A    between atoms: C14_25  and  C15_28 
REMARK   13  A    between atoms: C15_28  and  O8_29 
REMARK   14  A    between atoms: O8_29  and  C16_30 
REMARK   15  A    between atoms: C23_41  and  C24_42 
REMARK   16  A    between atoms: C24_42  and  N4_43 
REMARK   17  A    between atoms: N5_47  and  C26_49 
REMARK   18  A    between atoms: C26_49  and  O12_50 
REMARK   19  A    between atoms: C26_49  and  C27_52 
REMARK   20  A    between atoms: C29_55  and  O14_56 
ROOT
HETATM    1  C6  UNL     1      50.798  88.545  37.218  1.00  0.00     0.267 C 
ENDROOT
BRANCH   1   2
HETATM    2  C5  UNL     1      51.551  88.824  38.537  1.00  0.00     0.056 C 
HETATM    3  C4  UNL     1      52.614  87.801  38.686  1.00  0.00     0.062 C 
HETATM    4  C3  UNL     1      52.696  87.004  39.926  1.00  0.00     0.176 C 
HETATM    5  C29 UNL     1      52.401  87.896  41.130  1.00  0.00     0.208 C 
HETATM    6  C25 UNL     1      51.071  88.483  40.952  1.00  0.00     0.023 C 
HETATM    7  C23 UNL     1      50.591  89.007  39.633  1.00  0.00     0.067 C 
HETATM    8  N5  UNL     1      50.252  88.587  41.894  1.00  0.00    -0.362 N 
ATOM      9  H5  UNL     1      49.372  89.017  41.609  1.00  0.00     0.162 HD
BRANCH   4  10
HETATM   10  C2  UNL     1      51.924  85.772  39.975  1.00  0.00     0.296 C 
HETATM   11  O2  UNL     1      51.181  85.439  39.023  1.00  0.00    -0.262 OA
BRANCH  10  12
HETATM   12  O1  UNL     1      51.981  84.931  41.061  1.00  0.00    -0.324 OA
HETATM   13  C1  UNL     1      52.432  83.587  40.970  1.00  0.00     0.213 C 
ENDBRANCH  10  12
ENDBRANCH   4  10
BRANCH   4  14
HETATM   14  O3  UNL     1      54.066  86.599  40.035  1.00  0.00    -0.377 OA
ATOM     15  H3  UNL     1      54.162  86.271  40.922  1.00  0.00     0.211 HD
ENDBRANCH   4  14
BRANCH   5  16
HETATM   16  O14 UNL     1      52.578  87.182  42.298  1.00  0.00    -0.386 OA
ATOM     17  H14 UNL     1      52.954  87.744  42.966  1.00  0.00     0.210 HD
ENDBRANCH   5  16
BRANCH   7  18
HETATM   18  C24 UNL     1      50.131  90.424  39.883  1.00  0.00     0.212 C 
BRANCH  18  19
HETATM   19  N4  UNL     1      48.712  90.620  39.754  1.00  0.00    -0.155 N 
HETATM   20  O10 UNL     1      48.216  91.651  40.259  1.00  0.00    -0.537 OA
HETATM   21  O11 UNL     1      47.835  89.783  39.129  1.00  0.00    -0.537 OA
ENDBRANCH  18  19
ENDBRANCH   7  18
BRANCH   8  22
HETATM   22  C26 UNL     1      50.275  88.245  43.241  1.00  0.00     0.288 C 
BRANCH  22  23
HETATM   23  O12 UNL     1      51.016  89.133  44.020  1.00  0.00    -0.370 OA
ATOM     24  H12 UNL     1      50.476  89.681  44.578  1.00  0.00     0.212 HD
ENDBRANCH  22  23
BRANCH  22  25
HETATM   25  C27 UNL     1      48.851  88.263  43.731  1.00  0.00     0.171 C 
HETATM   26  C28 UNL     1      48.558  87.903  45.121  1.00  0.00     0.096 C 
HETATM   27  O13 UNL     1      47.982  88.576  42.955  1.00  0.00    -0.294 OA
ENDBRANCH  22  25
ENDBRANCH   8  22
ENDBRANCH   1   2
BRANCH   1  28
HETATM   28  O4  UNL     1      49.495  88.235  37.546  1.00  0.00    -0.370 OA
ATOM     29  H4  UNL     1      49.500  87.885  38.429  1.00  0.00     0.212 HD
ENDBRANCH   1  28
BRANCH   1  30
HETATM   30  O5  UNL     1      50.966  89.649  36.383  1.00  0.00    -0.331 OA
BRANCH  30  31
HETATM   31  C7  UNL     1      51.239  90.921  36.813  1.00  0.00     0.154 C 
HETATM   32  C8  UNL     1      50.301  91.845  36.809  1.00  0.00     0.049 A 
HETATM   33  C9  UNL     1      50.536  93.140  37.233  1.00  0.00     0.087 A 
HETATM   34  C19 UNL     1      49.041  91.528  36.372  1.00  0.00     0.076 A 
HETATM   35  C10 UNL     1      49.519  94.096  37.215  1.00  0.00    -0.014 A 
HETATM   36  C11 UNL     1      49.923  95.419  37.762  1.00  0.00     0.052 C 
HETATM   37  C12 UNL     1      48.260  93.778  36.773  1.00  0.00     0.017 A 
HETATM   38  C13 UNL     1      47.324  94.671  36.671  1.00  0.00     0.099 C 
HETATM   39  C18 UNL     1      48.012  92.463  36.342  1.00  0.00     0.075 A 
HETATM   40  N3  UNL     1      46.954  91.783  35.871  1.00  0.00    -0.339 N 
HETATM   41  C20 UNL     1      47.288  90.480  35.608  1.00  0.00     0.080 A 
HETATM   42  C22 UNL     1      45.620  92.278  35.657  1.00  0.00     0.158 C 
HETATM   43  N2  UNL     1      48.554  90.335  35.916  1.00  0.00    -0.343 N 
HETATM   44  C21 UNL     1      46.345  89.455  35.074  1.00  0.00     0.089 C 
ATOM     45  H2  UNL     1      49.090  89.472  35.829  1.00  0.00     0.167 HD
BRANCH  33  46
HETATM   46  O6  UNL     1      51.800  93.406  37.653  1.00  0.00    -0.359 OA
ATOM     47  H6  UNL     1      52.208  92.735  38.188  1.00  0.00     0.217 HD
ENDBRANCH  33  46
BRANCH  38  48
HETATM   48  N1  UNL     1      47.316  96.069  36.946  1.00  0.00    -0.371 N 
ATOM     49  H1  UNL     1      47.484  96.391  37.899  1.00  0.00     0.161 HD
BRANCH  48  50
HETATM   50  C14 UNL     1      47.079  97.028  35.919  1.00  0.00     0.241 C 
BRANCH  50  51
HETATM   51  O7  UNL     1      45.962  96.662  35.159  1.00  0.00    -0.375 OA
ATOM     52  H7  UNL     1      46.059  95.775  34.833  1.00  0.00     0.212 HD
ENDBRANCH  50  51
BRANCH  50  53
HETATM   53  C15 UNL     1      48.209  97.420  35.052  1.00  0.00     0.232 C 
BRANCH  53  54
HETATM   54  O8  UNL     1      48.705  96.471  34.172  1.00  0.00    -0.317 OA
BRANCH  54  55
HETATM   55  C16 UNL     1      50.049  96.141  34.207  1.00  0.00     0.254 C 
HETATM   56  C17 UNL     1      50.514  94.740  33.933  1.00  0.00     0.126 C 
HETATM   57  O9  UNL     1      50.948  96.981  34.466  1.00  0.00    -0.266 OA
ENDBRANCH  54  55
ENDBRANCH  53  54
ENDBRANCH  50  53
ENDBRANCH  48  50
ENDBRANCH  38  48
ENDBRANCH  30  31
ENDBRANCH   1  30
TORSDOF 20
ENDMDL
MODEL 4
REMARK VINA RESULT: -9.035012229      1.121      1.863
REMARK  20 active torsions:
REMARK  status: ('A' for Active; 'I' for Inactive)
REMARK    1  A    between atoms: O1_2  and  C2_3 
REMARK    2  A    between atoms: C2_3  and  C3_5 
REMARK    3  A    between atoms: C3_5  and  O3_6 
REMARK    4  A    between atoms: C5_9  and  C6_10 
REMARK    5  A    between atoms: C6_10  and  O4_11 
REMARK    6  A    between atoms: C6_10  and  O5_13 
REMARK    7  A    between atoms: O5_13  and  C7_14 
REMARK    8  A    between atoms: C9_16  and  O6_17 
REMARK    9  A    between atoms: C13_22  and  N1_23 
REMARK   10  A    between atoms: N1_23  and  C14_25 
REMARK   11  A    between atoms: C14_25  and  O7_26 
REMARK   12  A    between atoms: C14_25  and  C15_28 
REMARK   13  A    between atoms: C15_28  and  O8_29 
REMARK   14  A    between atoms: O8_29  and  C16_30 
REMARK   15  A    between atoms: C23_41  and  C24_42 
REMARK   16  A    between atoms: C24_42  and  N4_43 
REMARK   17  A    between atoms: N5_47  and  C26_49 
REMARK   18  A    between atoms: C26_49  and  O12_50 
REMARK   19  A    between atoms: C26_49  and  C27_52 
REMARK   20  A    between atoms: C29_55  and  O14_56 
ROOT
HETATM    1  C6  UNL     1      47.533  89.365  36.701  1.00  0.00     0.267 C 
ENDROOT
BRANCH   1   2
HETATM    2  C5  UNL     1      46.902  90.768  36.830  1.00  0.00     0.056 C 
HETATM    3  C4  UNL     1      46.442  91.193  35.486  1.00  0.00     0.062 C 
HETATM    4  C3  UNL     1      46.879  92.491  34.939  1.00  0.00     0.176 C 
HETATM    5  C29 UNL     1      46.884  93.541  36.047  1.00  0.00     0.208 C 
HETATM    6  C25 UNL     1      47.773  93.078  37.116  1.00  0.00     0.023 C 
HETATM    7  C23 UNL     1      47.800  91.654  37.580  1.00  0.00     0.067 C 
HETATM    8  N5  UNL     1      48.564  93.846  37.709  1.00  0.00    -0.362 N 
ATOM      9  H5  UNL     1      49.113  93.373  38.427  1.00  0.00     0.162 HD
BRANCH   4  10
HETATM   10  C2  UNL     1      48.124  92.508  34.185  1.00  0.00     0.296 C 
HETATM   11  O2  UNL     1      48.358  93.411  33.349  1.00  0.00    -0.262 OA
BRANCH  10  12
HETATM   12  O1  UNL     1      49.084  91.539  34.362  1.00  0.00    -0.324 OA
HETATM   13  C1  UNL     1      50.452  91.846  34.596  1.00  0.00     0.213 C 
ENDBRANCH  10  12
ENDBRANCH   4  10
BRANCH   4  14
HETATM   14  O3  UNL     1      45.864  92.878  34.004  1.00  0.00    -0.377 OA
ATOM     15  H3  UNL     1      46.124  93.737  33.691  1.00  0.00     0.211 HD
ENDBRANCH   4  14
BRANCH   5  16
HETATM   16  O14 UNL     1      47.191  94.779  35.521  1.00  0.00    -0.386 OA
ATOM     17  H14 UNL     1      47.237  95.424  36.217  1.00  0.00     0.210 HD
ENDBRANCH   5  16
BRANCH   7  18
HETATM   18  C24 UNL     1      47.598  91.694  39.076  1.00  0.00     0.212 C 
BRANCH  18  19
HETATM   19  N4  UNL     1      48.746  92.138  39.821  1.00  0.00    -0.155 N 
HETATM   20  O10 UNL     1      48.559  92.938  40.763  1.00  0.00    -0.537 OA
HETATM   21  O11 UNL     1      50.041  91.770  39.601  1.00  0.00    -0.537 OA
ENDBRANCH  18  19
ENDBRANCH   7  18
BRANCH   8  22
HETATM   22  C26 UNL     1      48.861  95.200  37.607  1.00  0.00     0.288 C 
BRANCH  22  23
HETATM   23  O12 UNL     1      48.838  95.861  38.835  1.00  0.00    -0.370 OA
ATOM     24  H12 UNL     1      49.338  96.669  38.834  1.00  0.00     0.212 HD
ENDBRANCH  22  23
BRANCH  22  25
HETATM   25  C27 UNL     1      50.252  95.310  37.038  1.00  0.00     0.171 C 
HETATM   26  C28 UNL     1      50.586  96.429  36.152  1.00  0.00     0.096 C 
HETATM   27  O13 UNL     1      51.059  94.464  37.331  1.00  0.00    -0.294 OA
ENDBRANCH  22  25
ENDBRANCH   8  22
ENDBRANCH   1   2
BRANCH   1  28
HETATM   28  O4  UNL     1      47.779  89.146  35.361  1.00  0.00    -0.370 OA
ATOM     29  H4  UNL     1      48.582  88.643  35.299  1.00  0.00     0.212 HD
ENDBRANCH   1  28
BRANCH   1  30
HETATM   30  O5  UNL     1      48.647  89.313  37.538  1.00  0.00    -0.331 OA
BRANCH  30  31
HETATM   31  C7  UNL     1      49.919  89.008  37.128  1.00  0.00     0.154 C 
HETATM   32  C8  UNL     1      50.825  88.612  37.998  1.00  0.00     0.049 A 
HETATM   33  C9  UNL     1      52.120  88.297  37.626  1.00  0.00     0.087 A 
HETATM   34  C19 UNL     1      50.490  88.503  39.322  1.00  0.00     0.076 A 
HETATM   35  C10 UNL     1      53.056  87.881  38.574  1.00  0.00    -0.014 A 
HETATM   36  C11 UNL     1      54.380  87.522  37.999  1.00  0.00     0.052 C 
HETATM   37  C12 UNL     1      52.720  87.777  39.900  1.00  0.00     0.017 A 
HETATM   38  C13 UNL     1      53.596  87.471  40.807  1.00  0.00     0.099 C 
HETATM   39  C18 UNL     1      51.405  88.093  40.285  1.00  0.00     0.075 A 
HETATM   40  N3  UNL     1      50.712  88.104  41.435  1.00  0.00    -0.339 N 
HETATM   41  C20 UNL     1      49.418  88.503  41.221  1.00  0.00     0.080 A 
HETATM   42  C22 UNL     1      51.183  87.746  42.746  1.00  0.00     0.158 C 
HETATM   43  N2  UNL     1      49.293  88.742  39.938  1.00  0.00    -0.343 N 
HETATM   44  C21 UNL     1      48.382  88.626  42.288  1.00  0.00     0.089 C 
ATOM     45  H2  UNL     1      48.441  89.055  39.474  1.00  0.00     0.167 HD
BRANCH  33  46
HETATM   46  O6  UNL     1      52.404  88.424  36.304  1.00  0.00    -0.359 OA
ATOM     47  H6  UNL     1      53.326  88.432  36.078  1.00  0.00     0.217 HD
ENDBRANCH  33  46
BRANCH  38  48
HETATM   48  N1  UNL     1      54.990  87.192  40.719  1.00  0.00    -0.371 N 
ATOM     49  H1  UNL     1      55.481  87.372  39.843  1.00  0.00     0.161 HD
BRANCH  48  50
HETATM   50  C14 UNL     1      55.715  86.666  41.828  1.00  0.00     0.241 C 
BRANCH  50  51
HETATM   51  O7  UNL     1      55.216  87.188  43.028  1.00  0.00    -0.375 OA
ATOM     52  H7  UNL     1      55.714  87.954  43.288  1.00  0.00     0.212 HD
ENDBRANCH  50  51
BRANCH  50  53
HETATM   53  C15 UNL     1      57.191  86.724  41.793  1.00  0.00     0.232 C 
BRANCH  53  54
HETATM   54  O8  UNL     1      57.838  86.048  40.772  1.00  0.00    -0.317 OA
BRANCH  54  55
HETATM   55  C16 UNL     1      58.559  86.760  39.828  1.00  0.00     0.254 C 
HETATM   56  C17 UNL     1      58.031  86.968  38.439  1.00  0.00     0.126 C 
HETATM   57  O9  UNL     1      59.683  87.267  40.074  1.00  0.00    -0.266 OA
ENDBRANCH  54  55
ENDBRANCH  53  54
ENDBRANCH  50  53
ENDBRANCH  48  50
ENDBRANCH  38  48
ENDBRANCH  30  31
ENDBRANCH   1  30
TORSDOF 20
ENDMDL
MODEL 5
REMARK VINA RESULT: -9.032351814      2.210      8.784
REMARK  20 active torsions:
REMARK  status: ('A' for Active; 'I' for Inactive)
REMARK    1  A    between atoms: O1_2  and  C2_3 
REMARK    2  A    between atoms: C2_3  and  C3_5 
REMARK    3  A    between atoms: C3_5  and  O3_6 
REMARK    4  A    between atoms: C5_9  and  C6_10 
REMARK    5  A    between atoms: C6_10  and  O4_11 
REMARK    6  A    between atoms: C6_10  and  O5_13 
REMARK    7  A    between atoms: O5_13  and  C7_14 
REMARK    8  A    between atoms: C9_16  and  O6_17 
REMARK    9  A    between atoms: C13_22  and  N1_23 
REMARK   10  A    between atoms: N1_23  and  C14_25 
REMARK   11  A    between atoms: C14_25  and  O7_26 
REMARK   12  A    between atoms: C14_25  and  C15_28 
REMARK   13  A    between atoms: C15_28  and  O8_29 
REMARK   14  A    between atoms: O8_29  and  C16_30 
REMARK   15  A    between atoms: C23_41  and  C24_42 
REMARK   16  A    between atoms: C24_42  and  N4_43 
REMARK   17  A    between atoms: N5_47  and  C26_49 
REMARK   18  A    between atoms: C26_49  and  O12_50 
REMARK   19  A    between atoms: C26_49  and  C27_52 
REMARK   20  A    between atoms: C29_55  and  O14_56 
ROOT
HETATM    1  C6  UNL     1      51.871  87.773  37.492  1.00  0.00     0.267 C 
ENDROOT
BRANCH   1   2
HETATM    2  C5  UNL     1      52.256  88.385  38.857  1.00  0.00     0.056 C 
HETATM    3  C4  UNL     1      53.499  87.725  39.323  1.00  0.00     0.062 C 
HETATM    4  C3  UNL     1      53.546  87.114  40.665  1.00  0.00     0.176 C 
HETATM    5  C29 UNL     1      52.801  88.000  41.660  1.00  0.00     0.208 C 
HETATM    6  C25 UNL     1      51.424  88.165  41.189  1.00  0.00     0.023 C 
HETATM    7  C23 UNL     1      51.088  88.396  39.748  1.00  0.00     0.067 C 
HETATM    8  N5  UNL     1      50.441  88.125  41.964  1.00  0.00    -0.362 N 
ATOM      9  H5  UNL     1      49.551  88.257  41.483  1.00  0.00     0.162 HD
BRANCH   4  10
HETATM   10  C2  UNL     1      53.128  85.724  40.775  1.00  0.00     0.296 C 
HETATM   11  O2  UNL     1      53.364  85.061  41.812  1.00  0.00    -0.262 OA
BRANCH  10  12
HETATM   12  O1  UNL     1      52.463  85.090  39.752  1.00  0.00    -0.324 OA
HETATM   13  C1  UNL     1      52.079  83.724  39.815  1.00  0.00     0.213 C 
ENDBRANCH  10  12
ENDBRANCH   4  10
BRANCH   4  14
HETATM   14  O3  UNL     1      54.927  87.127  41.049  1.00  0.00    -0.377 OA
ATOM     15  H3  UNL     1      55.415  87.142  40.234  1.00  0.00     0.211 HD
ENDBRANCH   4  14
BRANCH   5  16
HETATM   16  O14 UNL     1      52.930  87.487  42.935  1.00  0.00    -0.386 OA
ATOM     17  H14 UNL     1      52.502  88.061  43.560  1.00  0.00     0.210 HD
ENDBRANCH   5  16
BRANCH   7  18
HETATM   18  C24 UNL     1      50.235  89.642  39.707  1.00  0.00     0.212 C 
BRANCH  18  19
HETATM   19  N4  UNL     1      50.976  90.873  39.765  1.00  0.00    -0.155 N 
HETATM   20  O10 UNL     1      50.699  91.762  38.930  1.00  0.00    -0.537 OA
HETATM   21  O11 UNL     1      51.969  91.177  40.649  1.00  0.00    -0.537 OA
ENDBRANCH  18  19
ENDBRANCH   7  18
BRANCH   8  22
HETATM   22  C26 UNL     1      50.292  87.941  43.333  1.00  0.00     0.288 C 
BRANCH  22  23
HETATM   23  O12 UNL     1      51.050  88.832  44.093  1.00  0.00    -0.370 OA
ATOM     24  H12 UNL     1      50.721  89.723  44.060  1.00  0.00     0.212 HD
ENDBRANCH  22  23
BRANCH  22  25
HETATM   25  C27 UNL     1      48.838  88.162  43.658  1.00  0.00     0.171 C 
HETATM   26  C28 UNL     1      48.347  87.880  45.010  1.00  0.00     0.096 C 
HETATM   27  O13 UNL     1      48.112  88.568  42.786  1.00  0.00    -0.294 OA
ENDBRANCH  22  25
ENDBRANCH   8  22
ENDBRANCH   1   2
BRANCH   1  28
HETATM   28  O4  UNL     1      51.218  86.584  37.743  1.00  0.00    -0.370 OA
ATOM     29  H4  UNL     1      51.863  85.971  38.074  1.00  0.00     0.212 HD
ENDBRANCH   1  28
BRANCH   1  30
HETATM   30  O5  UNL     1      51.142  88.726  36.781  1.00  0.00    -0.331 OA
BRANCH  30  31
HETATM   31  C7  UNL     1      51.692  89.747  36.052  1.00  0.00     0.154 C 
HETATM   32  C8  UNL     1      50.955  90.768  35.668  1.00  0.00     0.049 A 
HETATM   33  C9  UNL     1      51.470  91.817  34.928  1.00  0.00     0.087 A 
HETATM   34  C19 UNL     1      49.626  90.808  36.004  1.00  0.00     0.076 A 
HETATM   35  C10 UNL     1      50.660  92.884  34.537  1.00  0.00    -0.014 A 
HETATM   36  C11 UNL     1      51.385  93.956  33.804  1.00  0.00     0.052 C 
HETATM   37  C12 UNL     1      49.331  92.920  34.871  1.00  0.00     0.017 A 
HETATM   38  C13 UNL     1      48.543  93.861  34.448  1.00  0.00     0.099 C 
HETATM   39  C18 UNL     1      48.799  91.858  35.624  1.00  0.00     0.075 A 
HETATM   40  N3  UNL     1      47.599  91.545  36.139  1.00  0.00    -0.339 N 
HETATM   41  C20 UNL     1      47.653  90.352  36.812  1.00  0.00     0.080 A 
HETATM   42  C22 UNL     1      46.382  92.308  36.053  1.00  0.00     0.158 C 
HETATM   43  N2  UNL     1      48.886  89.914  36.726  1.00  0.00    -0.343 N 
HETATM   44  C21 UNL     1      46.493  89.715  37.502  1.00  0.00     0.089 C 
ATOM     45  H2  UNL     1      49.236  89.046  37.131  1.00  0.00     0.167 HD
BRANCH  33  46
HETATM   46  O6  UNL     1      52.790  91.730  34.618  1.00  0.00    -0.359 OA
ATOM     47  H6  UNL     1      53.227  92.553  34.435  1.00  0.00     0.217 HD
ENDBRANCH  33  46
BRANCH  38  48
HETATM   48  N1  UNL     1      48.783  94.992  33.615  1.00  0.00    -0.371 N 
ATOM     49  H1  UNL     1      49.010  94.848  32.631  1.00  0.00     0.161 HD
BRANCH  48  50
HETATM   50  C14 UNL     1      48.712  96.320  34.126  1.00  0.00     0.241 C 
BRANCH  50  51
HETATM   51  O7  UNL     1      49.732  97.108  33.580  1.00  0.00    -0.375 OA
ATOM     52  H7  UNL     1      50.370  97.333  34.247  1.00  0.00     0.212 HD
ENDBRANCH  50  51
BRANCH  50  53
HETATM   53  C15 UNL     1      48.622  96.504  35.590  1.00  0.00     0.232 C 
BRANCH  53  54
HETATM   54  O8  UNL     1      49.789  96.387  36.326  1.00  0.00    -0.317 OA
BRANCH  54  55
HETATM   55  C16 UNL     1      49.847  95.494  37.382  1.00  0.00     0.254 C 
HETATM   56  C17 UNL     1      48.728  95.391  38.377  1.00  0.00     0.126 C 
HETATM   57  O9  UNL     1      50.825  94.726  37.569  1.00  0.00    -0.266 OA
ENDBRANCH  54  55
ENDBRANCH  53  54
ENDBRANCH  50  53
ENDBRANCH  48  50
ENDBRANCH  38  48
ENDBRANCH  30  31
ENDBRANCH   1  30
TORSDOF 20
ENDMDL
