MODEL 1
REMARK VINA RESULT: -8.904008833      0.000      0.000
REMARK  16 active torsions:
REMARK  status: ('A' for Active; 'I' for Inactive)
REMARK    1  A    between atoms: C2_2  and  O2_4 
REMARK    2  A    between atoms: O2_4  and  C3_5 
REMARK    3  A    between atoms: C3_5  and  O3_6 
REMARK    4  A    between atoms: C4_8  and  O4_9 
REMARK    5  A    between atoms: C5_11  and  C6_12 
REMARK    6  A    between atoms: C9_17  and  O7_18 
REMARK    7  A    between atoms: C10_20  and  O8_21 
REMARK    8  A    between atoms: O8_21  and  C11_22 
REMARK    9  A    between atoms: C13_24  and  C14_25 
REMARK   10  A    between atoms: C14_25  and  C15_26 
REMARK   11  A    between atoms: C16_29  and  O11_30 
REMARK   12  A    between atoms: O11_30  and  S1_31 
REMARK   13  A    between atoms: C17_35  and  O15_36 
REMARK   14  A    between atoms: O15_36  and  S2_37 
REMARK   15  A    between atoms: C18_41  and  O19_42 
REMARK   16  A    between atoms: O19_42  and  S3_43 
ROOT
HETATM    1  C11 UNL     1      51.391  88.649  37.374  1.00  0.00     0.108 A 
HETATM    2  C12 UNL     1      52.142  89.277  36.409  1.00  0.00     0.050 A 
HETATM    3  C13 UNL     1      51.689  90.478  35.889  1.00  0.00    -0.008 A 
HETATM    4  C16 UNL     1      50.513  91.041  36.322  1.00  0.00     0.136 A 
HETATM    5  C17 UNL     1      49.763  90.408  37.290  1.00  0.00     0.165 A 
HETATM    6  C18 UNL     1      50.190  89.225  37.815  1.00  0.00     0.163 A 
ENDROOT
BRANCH   1   7
HETATM    7  O8  UNL     1      51.732  87.469  37.959  1.00  0.00    -0.334 OA
BRANCH   7   8
HETATM    8  C10 UNL     1      53.000  86.938  38.231  1.00  0.00     0.235 C 
HETATM    9  C3  UNL     1      53.156  86.726  39.732  1.00  0.00     0.251 C 
HETATM   10  C4  UNL     1      52.500  85.498  40.195  1.00  0.00     0.126 C 
HETATM   11  C5  UNL     1      52.504  84.372  39.458  1.00  0.00     0.092 C 
HETATM   12  C8  UNL     1      53.191  84.436  38.176  1.00  0.00     0.197 C 
HETATM   13  O6  UNL     1      53.783  83.406  37.752  1.00  0.00    -0.289 OA
HETATM   14  C9  UNL     1      53.171  85.707  37.419  1.00  0.00     0.228 C 
BRANCH   9  15
HETATM   15  O2  UNL     1      54.524  86.828  39.985  1.00  0.00    -0.274 OA
BRANCH  15  16
HETATM   16  C2  UNL     1      55.178  86.734  41.174  1.00  0.00     0.257 C 
HETATM   17  C1  UNL     1      56.080  85.590  41.451  1.00  0.00     0.126 C 
HETATM   18  O1  UNL     1      54.978  87.653  42.010  1.00  0.00    -0.266 OA
ENDBRANCH  15  16
ENDBRANCH   9  15
BRANCH   9  19
HETATM   19  O3  UNL     1      52.526  87.808  40.350  1.00  0.00    -0.358 OA
ATOM     20  H3  UNL     1      51.938  88.203  39.716  1.00  0.00     0.213 HD
ENDBRANCH   9  19
BRANCH  10  21
HETATM   21  O4  UNL     1      51.837  85.409  41.411  1.00  0.00    -0.359 OA
ATOM     22  H4  UNL     1      51.472  84.597  41.743  1.00  0.00     0.217 HD
ENDBRANCH  10  21
BRANCH  11  23
HETATM   23  C6  UNL     1      51.857  83.143  39.904  1.00  0.00     0.162 C 
HETATM   24  C7  UNL     1      51.134  82.298  38.948  1.00  0.00     0.097 C 
HETATM   25  O5  UNL     1      51.901  82.778  41.112  1.00  0.00    -0.293 OA
ENDBRANCH  11  23
BRANCH  14  26
HETATM   26  O7  UNL     1      54.415  85.740  36.739  1.00  0.00    -0.385 OA
ATOM     27  H7  UNL     1      54.611  86.665  36.641  1.00  0.00     0.210 HD
ENDBRANCH  14  26
ENDBRANCH   7   8
ENDBRANCH   1   7
BRANCH   6  28
HETATM   28  O19 UNL     1      49.447  88.575  38.789  1.00  0.00    -0.208 OA
BRANCH  28  29
HETATM   29  S3  UNL     1      49.466  89.054  40.420  1.00  0.00     0.257 S 
HETATM   30  O20 UNL     1      49.975  87.923  41.240  1.00  0.00    -0.572 OA
HETATM   31  O21 UNL     1      50.421  90.219  40.608  1.00  0.00    -0.572 OA
HETATM   32  O22 UNL     1      47.956  89.521  40.955  1.00  0.00    -0.572 OA
ENDBRANCH  28  29
ENDBRANCH   6  28
BRANCH   3  33
HETATM   33  C14 UNL     1      52.526  91.132  34.850  1.00  0.00     0.154 C 
BRANCH  33  34
HETATM   34  C15 UNL     1      53.538  90.217  34.307  1.00  0.00     0.177 C 
HETATM   35  O9  UNL     1      53.333  89.629  33.227  1.00  0.00    -0.648 OA
HETATM   36  O10 UNL     1      54.715  89.999  34.981  1.00  0.00    -0.648 OA
ENDBRANCH  33  34
ENDBRANCH   3  33
BRANCH   5  37
HETATM   37  O15 UNL     1      48.568  90.970  37.736  1.00  0.00    -0.208 OA
BRANCH  37  38
HETATM   38  S2  UNL     1      47.081  90.609  36.983  1.00  0.00     0.257 S 
HETATM   39  O16 UNL     1      46.384  91.936  36.715  1.00  0.00    -0.572 OA
HETATM   40  O17 UNL     1      47.258  89.912  35.679  1.00  0.00    -0.572 OA
HETATM   41  O18 UNL     1      46.160  89.694  38.048  1.00  0.00    -0.572 OA
ENDBRANCH  37  38
ENDBRANCH   5  37
BRANCH   4  42
HETATM   42  O11 UNL     1      50.046  92.243  35.810  1.00  0.00    -0.210 OA
BRANCH  42  43
HETATM   43  S1  UNL     1      50.436  93.742  36.472  1.00  0.00     0.257 S 
HETATM   44  O12 UNL     1      51.478  93.606  37.556  1.00  0.00    -0.572 OA
HETATM   45  O13 UNL     1      49.216  94.314  37.116  1.00  0.00    -0.572 OA
HETATM   46  O14 UNL     1      51.050  94.777  35.320  1.00  0.00    -0.572 OA
ENDBRANCH  42  43
ENDBRANCH   4  42
TORSDOF 16
ENDMDL
MODEL 2
REMARK VINA RESULT: -8.903454354      0.961      1.461
REMARK  16 active torsions:
REMARK  status: ('A' for Active; 'I' for Inactive)
REMARK    1  A    between atoms: C2_2  and  O2_4 
REMARK    2  A    between atoms: O2_4  and  C3_5 
REMARK    3  A    between atoms: C3_5  and  O3_6 
REMARK    4  A    between atoms: C4_8  and  O4_9 
REMARK    5  A    between atoms: C5_11  and  C6_12 
REMARK    6  A    between atoms: C9_17  and  O7_18 
REMARK    7  A    between atoms: C10_20  and  O8_21 
REMARK    8  A    between atoms: O8_21  and  C11_22 
REMARK    9  A    between atoms: C13_24  and  C14_25 
REMARK   10  A    between atoms: C14_25  and  C15_26 
REMARK   11  A    between atoms: C16_29  and  O11_30 
REMARK   12  A    between atoms: O11_30  and  S1_31 
REMARK   13  A    between atoms: C17_35  and  O15_36 
REMARK   14  A    between atoms: O15_36  and  S2_37 
REMARK   15  A    between atoms: C18_41  and  O19_42 
REMARK   16  A    between atoms: O19_42  and  S3_43 
ROOT
HETATM    1  C11 UNL     1      51.308  88.964  37.389  1.00  0.00     0.108 A 
HETATM    2  C12 UNL     1      51.972  89.433  36.281  1.00  0.00     0.050 A 
HETATM    3  C13 UNL     1      51.497  90.572  35.652  1.00  0.00    -0.008 A 
HETATM    4  C16 UNL     1      50.384  91.229  36.119  1.00  0.00     0.136 A 
HETATM    5  C17 UNL     1      49.721  90.754  37.231  1.00  0.00     0.165 A 
HETATM    6  C18 UNL     1      50.171  89.635  37.864  1.00  0.00     0.163 A 
ENDROOT
BRANCH   1   7
HETATM    7  O8  UNL     1      51.678  87.858  38.089  1.00  0.00    -0.334 OA
BRANCH   7   8
HETATM    8  C10 UNL     1      52.957  87.417  38.456  1.00  0.00     0.235 C 
HETATM    9  C3  UNL     1      52.997  87.149  39.955  1.00  0.00     0.251 C 
HETATM   10  C4  UNL     1      52.408  85.852  40.308  1.00  0.00     0.126 C 
HETATM   11  C5  UNL     1      52.570  84.766  39.530  1.00  0.00     0.092 C 
HETATM   12  C8  UNL     1      53.361  84.943  38.321  1.00  0.00     0.197 C 
HETATM   13  O6  UNL     1      54.071  83.984  37.913  1.00  0.00    -0.289 OA
HETATM   14  C9  UNL     1      53.302  86.243  37.615  1.00  0.00     0.228 C 
BRANCH   9  15
HETATM   15  O2  UNL     1      54.324  87.347  40.337  1.00  0.00    -0.274 OA
BRANCH  15  16
HETATM   16  C2  UNL     1      55.024  88.511  40.404  1.00  0.00     0.257 C 
HETATM   17  C1  UNL     1      56.289  88.676  39.647  1.00  0.00     0.126 C 
HETATM   18  O1  UNL     1      54.549  89.423  41.130  1.00  0.00    -0.266 OA
ENDBRANCH  15  16
ENDBRANCH   9  15
BRANCH   9  19
HETATM   19  O3  UNL     1      52.227  88.147  40.554  1.00  0.00    -0.358 OA
ATOM     20  H3  UNL     1      52.751  88.940  40.584  1.00  0.00     0.213 HD
ENDBRANCH   9  19
BRANCH  10  21
HETATM   21  O4  UNL     1      51.650  85.654  41.453  1.00  0.00    -0.359 OA
ATOM     22  H4  UNL     1      50.983  86.265  41.744  1.00  0.00     0.217 HD
ENDBRANCH  10  21
BRANCH  11  23
HETATM   23  C6  UNL     1      51.991  83.469  39.867  1.00  0.00     0.162 C 
HETATM   24  C7  UNL     1      51.417  82.621  38.818  1.00  0.00     0.097 C 
HETATM   25  O5  UNL     1      51.968  83.049  41.058  1.00  0.00    -0.293 OA
ENDBRANCH  11  23
BRANCH  14  26
HETATM   26  O7  UNL     1      54.594  86.406  37.055  1.00  0.00    -0.385 OA
ATOM     27  H7  UNL     1      55.001  87.083  37.583  1.00  0.00     0.210 HD
ENDBRANCH  14  26
ENDBRANCH   7   8
ENDBRANCH   1   7
BRANCH   6  28
HETATM   28  O19 UNL     1      49.516  89.144  38.983  1.00  0.00    -0.208 OA
BRANCH  28  29
HETATM   29  S3  UNL     1      49.616  89.901  40.502  1.00  0.00     0.257 S 
HETATM   30  O20 UNL     1      48.361  90.667  40.733  1.00  0.00    -0.572 OA
HETATM   31  O21 UNL     1      49.718  88.855  41.597  1.00  0.00    -0.572 OA
HETATM   32  O22 UNL     1      50.938  90.912  40.615  1.00  0.00    -0.572 OA
ENDBRANCH  28  29
ENDBRANCH   6  28
BRANCH   3  33
HETATM   33  C14 UNL     1      52.240  91.055  34.459  1.00  0.00     0.154 C 
BRANCH  33  34
HETATM   34  C15 UNL     1      53.475  91.757  34.832  1.00  0.00     0.177 C 
HETATM   35  O9  UNL     1      53.437  92.965  35.139  1.00  0.00    -0.648 OA
HETATM   36  O10 UNL     1      54.677  91.094  34.847  1.00  0.00    -0.648 OA
ENDBRANCH  33  34
ENDBRANCH   3  33
BRANCH   5  37
HETATM   37  O15 UNL     1      48.591  91.413  37.712  1.00  0.00    -0.208 OA
BRANCH  37  38
HETATM   38  S2  UNL     1      47.030  91.033  37.139  1.00  0.00     0.257 S 
HETATM   39  O16 UNL     1      46.304  92.353  36.918  1.00  0.00    -0.572 OA
HETATM   40  O17 UNL     1      47.062  90.302  35.842  1.00  0.00    -0.572 OA
HETATM   41  O18 UNL     1      46.236  90.146  38.324  1.00  0.00    -0.572 OA
ENDBRANCH  37  38
ENDBRANCH   5  37
BRANCH   4  42
HETATM   42  O11 UNL     1      49.897  92.370  35.500  1.00  0.00    -0.210 OA
BRANCH  42  43
HETATM   43  S1  UNL     1      50.174  93.927  36.081  1.00  0.00     0.257 S 
HETATM   44  O12 UNL     1      48.897  94.556  36.585  1.00  0.00    -0.572 OA
HETATM   45  O13 UNL     1      50.658  94.780  34.955  1.00  0.00    -0.572 OA
HETATM   46  O14 UNL     1      51.258  93.923  37.345  1.00  0.00    -0.572 OA
ENDBRANCH  42  43
ENDBRANCH   4  42
TORSDOF 16
ENDMDL
MODEL 3
REMARK VINA RESULT: -8.814024035      1.164      1.834
REMARK  16 active torsions:
REMARK  status: ('A' for Active; 'I' for Inactive)
REMARK    1  A    between atoms: C2_2  and  O2_4 
REMARK    2  A    between atoms: O2_4  and  C3_5 
REMARK    3  A    between atoms: C3_5  and  O3_6 
REMARK    4  A    between atoms: C4_8  and  O4_9 
REMARK    5  A    between atoms: C5_11  and  C6_12 
REMARK    6  A    between atoms: C9_17  and  O7_18 
REMARK    7  A    between atoms: C10_20  and  O8_21 
REMARK    8  A    between atoms: O8_21  and  C11_22 
REMARK    9  A    between atoms: C13_24  and  C14_25 
REMARK   10  A    between atoms: C14_25  and  C15_26 
REMARK   11  A    between atoms: C16_29  and  O11_30 
REMARK   12  A    between atoms: O11_30  and  S1_31 
REMARK   13  A    between atoms: C17_35  and  O15_36 
REMARK   14  A    between atoms: O15_36  and  S2_37 
REMARK   15  A    between atoms: C18_41  and  O19_42 
REMARK   16  A    between atoms: O19_42  and  S3_43 
ROOT
HETATM    1  C11 UNL     1      51.190  88.909  37.356  1.00  0.00     0.108 A 
HETATM    2  C12 UNL     1      51.793  89.536  36.292  1.00  0.00     0.050 A 
HETATM    3  C13 UNL     1      51.253  90.723  35.825  1.00  0.00    -0.008 A 
HETATM    4  C16 UNL     1      50.136  91.274  36.408  1.00  0.00     0.136 A 
HETATM    5  C17 UNL     1      49.535  90.641  37.475  1.00  0.00     0.165 A 
HETATM    6  C18 UNL     1      50.050  89.472  37.950  1.00  0.00     0.163 A 
ENDROOT
BRANCH   1   7
HETATM    7  O8  UNL     1      51.627  87.742  37.901  1.00  0.00    -0.334 OA
BRANCH   7   8
HETATM    8  C10 UNL     1      52.934  87.317  38.177  1.00  0.00     0.235 C 
HETATM    9  C3  UNL     1      53.122  87.179  39.683  1.00  0.00     0.251 C 
HETATM   10  C4  UNL     1      52.564  85.926  40.204  1.00  0.00     0.126 C 
HETATM   11  C5  UNL     1      52.642  84.774  39.512  1.00  0.00     0.092 C 
HETATM   12  C8  UNL     1      53.309  84.835  38.220  1.00  0.00     0.197 C 
HETATM   13  O6  UNL     1      53.970  83.835  37.829  1.00  0.00    -0.289 OA
HETATM   14  C9  UNL     1      53.187  86.069  37.412  1.00  0.00     0.228 C 
BRANCH   9  15
HETATM   15  O2  UNL     1      54.481  87.390  39.913  1.00  0.00    -0.274 OA
BRANCH  15  16
HETATM   16  C2  UNL     1      55.077  88.032  40.953  1.00  0.00     0.257 C 
HETATM   17  C1  UNL     1      55.370  87.312  42.216  1.00  0.00     0.126 C 
HETATM   18  O1  UNL     1      55.362  89.247  40.788  1.00  0.00    -0.266 OA
ENDBRANCH  15  16
ENDBRANCH   9  15
BRANCH   9  19
HETATM   19  O3  UNL     1      52.421  88.236  40.265  1.00  0.00    -0.358 OA
ATOM     20  H3  UNL     1      51.509  87.978  40.334  1.00  0.00     0.213 HD
ENDBRANCH   9  19
BRANCH  10  21
HETATM   21  O4  UNL     1      51.922  85.838  41.432  1.00  0.00    -0.359 OA
ATOM     22  H4  UNL     1      52.154  86.381  42.176  1.00  0.00     0.217 HD
ENDBRANCH  10  21
BRANCH  11  23
HETATM   23  C6  UNL     1      52.092  83.520  40.017  1.00  0.00     0.162 C 
HETATM   24  C7  UNL     1      51.384  82.606  39.114  1.00  0.00     0.097 C 
HETATM   25  O5  UNL     1      52.209  83.192  41.231  1.00  0.00    -0.293 OA
ENDBRANCH  11  23
BRANCH  14  26
HETATM   26  O7  UNL     1      54.417  86.166  36.715  1.00  0.00    -0.385 OA
ATOM     27  H7  UNL     1      54.191  86.556  35.879  1.00  0.00     0.210 HD
ENDBRANCH  14  26
ENDBRANCH   7   8
ENDBRANCH   1   7
BRANCH   6  28
HETATM   28  O19 UNL     1      49.457  88.822  39.022  1.00  0.00    -0.208 OA
BRANCH  28  29
HETATM   29  S3  UNL     1      49.609  89.379  40.621  1.00  0.00     0.257 S 
HETATM   30  O20 UNL     1      48.278  89.854  41.085  1.00  0.00    -0.572 OA
HETATM   31  O21 UNL     1      50.027  88.237  41.530  1.00  0.00    -0.572 OA
HETATM   32  O22 UNL     1      50.738  90.599  40.757  1.00  0.00    -0.572 OA
ENDBRANCH  28  29
ENDBRANCH   6  28
BRANCH   3  33
HETATM   33  C14 UNL     1      51.930  91.378  34.675  1.00  0.00     0.154 C 
BRANCH  33  34
HETATM   34  C15 UNL     1      52.995  92.288  35.115  1.00  0.00     0.177 C 
HETATM   35  O9  UNL     1      54.185  92.034  34.844  1.00  0.00    -0.648 OA
HETATM   36  O10 UNL     1      52.692  93.424  35.825  1.00  0.00    -0.648 OA
ENDBRANCH  33  34
ENDBRANCH   3  33
BRANCH   5  37
HETATM   37  O15 UNL     1      48.402  91.189  38.073  1.00  0.00    -0.208 OA
BRANCH  37  38
HETATM   38  S2  UNL     1      46.832  90.720  37.599  1.00  0.00     0.257 S 
HETATM   39  O16 UNL     1      46.107  90.260  38.857  1.00  0.00    -0.572 OA
HETATM   40  O17 UNL     1      46.057  91.845  37.007  1.00  0.00    -0.572 OA
HETATM   41  O18 UNL     1      46.969  89.436  36.526  1.00  0.00    -0.572 OA
ENDBRANCH  37  38
ENDBRANCH   5  37
BRANCH   4  42
HETATM   42  O11 UNL     1      49.584  92.461  35.952  1.00  0.00    -0.210 OA
BRANCH  42  43
HETATM   43  S1  UNL     1      48.662  92.572  34.546  1.00  0.00     0.257 S 
HETATM   44  O12 UNL     1      47.484  93.497  34.738  1.00  0.00    -0.572 OA
HETATM   45  O13 UNL     1      48.104  91.223  34.231  1.00  0.00    -0.572 OA
HETATM   46  O14 UNL     1      49.558  93.166  33.274  1.00  0.00    -0.572 OA
ENDBRANCH  42  43
ENDBRANCH   4  42
TORSDOF 16
ENDMDL
MODEL 4
REMARK VINA RESULT: -8.654586508      1.282      2.832
REMARK  16 active torsions:
REMARK  status: ('A' for Active; 'I' for Inactive)
REMARK    1  A    between atoms: C2_2  and  O2_4 
REMARK    2  A    between atoms: O2_4  and  C3_5 
REMARK    3  A    between atoms: C3_5  and  O3_6 
REMARK    4  A    between atoms: C4_8  and  O4_9 
REMARK    5  A    between atoms: C5_11  and  C6_12 
REMARK    6  A    between atoms: C9_17  and  O7_18 
REMARK    7  A    between atoms: C10_20  and  O8_21 
REMARK    8  A    between atoms: O8_21  and  C11_22 
REMARK    9  A    between atoms: C13_24  and  C14_25 
REMARK   10  A    between atoms: C14_25  and  C15_26 
REMARK   11  A    between atoms: C16_29  and  O11_30 
REMARK   12  A    between atoms: O11_30  and  S1_31 
REMARK   13  A    between atoms: C17_35  and  O15_36 
REMARK   14  A    between atoms: O15_36  and  S2_37 
REMARK   15  A    between atoms: C18_41  and  O19_42 
REMARK   16  A    between atoms: O19_42  and  S3_43 
ROOT
HETATM    1  C11 UNL     1      51.149  88.735  37.282  1.00  0.00     0.108 A 
HETATM    2  C12 UNL     1      51.976  89.313  36.349  1.00  0.00     0.050 A 
HETATM    3  C13 UNL     1      51.623  90.542  35.818  1.00  0.00    -0.008 A 
HETATM    4  C16 UNL     1      50.471  91.182  36.208  1.00  0.00     0.136 A 
HETATM    5  C17 UNL     1      49.645  90.597  37.144  1.00  0.00     0.165 A 
HETATM    6  C18 UNL     1      49.973  89.388  37.680  1.00  0.00     0.163 A 
ENDROOT
BRANCH   1   7
HETATM    7  O8  UNL     1      51.389  87.533  37.873  1.00  0.00    -0.334 OA
BRANCH   7   8
HETATM    8  C10 UNL     1      51.866  87.248  39.160  1.00  0.00     0.235 C 
HETATM    9  C3  UNL     1      52.519  85.872  39.172  1.00  0.00     0.251 C 
HETATM   10  C4  UNL     1      53.883  85.894  38.629  1.00  0.00     0.126 C 
HETATM   11  C5  UNL     1      54.719  86.923  38.858  1.00  0.00     0.092 C 
HETATM   12  C8  UNL     1      54.202  88.014  39.672  1.00  0.00     0.197 C 
HETATM   13  O6  UNL     1      54.994  88.633  40.433  1.00  0.00    -0.289 OA
HETATM   14  C9  UNL     1      52.765  88.355  39.576  1.00  0.00     0.228 C 
BRANCH   9  15
HETATM   15  O2  UNL     1      52.384  85.403  40.478  1.00  0.00    -0.274 OA
BRANCH  15  16
HETATM   16  C2  UNL     1      52.713  84.184  40.983  1.00  0.00     0.257 C 
HETATM   17  C1  UNL     1      54.019  83.971  41.652  1.00  0.00     0.126 C 
HETATM   18  O1  UNL     1      51.864  83.263  40.852  1.00  0.00    -0.266 OA
ENDBRANCH  15  16
ENDBRANCH   9  15
BRANCH   9  19
HETATM   19  O3  UNL     1      51.741  85.060  38.344  1.00  0.00    -0.358 OA
ATOM     20  H3  UNL     1      52.305  84.385  37.985  1.00  0.00     0.213 HD
ENDBRANCH   9  19
BRANCH  10  21
HETATM   21  O4  UNL     1      54.401  84.869  37.850  1.00  0.00    -0.359 OA
ATOM     22  H4  UNL     1      54.880  85.024  37.044  1.00  0.00     0.217 HD
ENDBRANCH  10  21
BRANCH  11  23
HETATM   23  C6  UNL     1      56.077  86.960  38.326  1.00  0.00     0.162 C 
HETATM   24  C7  UNL     1      56.368  87.695  37.091  1.00  0.00     0.097 C 
HETATM   25  O5  UNL     1      57.028  86.365  38.907  1.00  0.00    -0.293 OA
ENDBRANCH  11  23
BRANCH  14  26
HETATM   26  O7  UNL     1      52.416  88.805  40.874  1.00  0.00    -0.385 OA
ATOM     27  H7  UNL     1      51.561  88.424  41.039  1.00  0.00     0.210 HD
ENDBRANCH  14  26
ENDBRANCH   7   8
ENDBRANCH   1   7
BRANCH   6  28
HETATM   28  O19 UNL     1      49.152  88.786  38.622  1.00  0.00    -0.208 OA
BRANCH  28  29
HETATM   29  S3  UNL     1      49.054  89.335  40.228  1.00  0.00     0.257 S 
HETATM   30  O20 UNL     1      49.503  88.241  41.130  1.00  0.00    -0.572 OA
HETATM   31  O21 UNL     1      49.994  90.509  40.433  1.00  0.00    -0.572 OA
HETATM   32  O22 UNL     1      47.510  89.821  40.632  1.00  0.00    -0.572 OA
ENDBRANCH  28  29
ENDBRANCH   6  28
BRANCH   3  33
HETATM   33  C14 UNL     1      52.541  91.143  34.814  1.00  0.00     0.154 C 
BRANCH  33  34
HETATM   34  C15 UNL     1      53.495  90.158  34.289  1.00  0.00     0.177 C 
HETATM   35  O9  UNL     1      53.276  89.598  33.196  1.00  0.00    -0.648 OA
HETATM   36  O10 UNL     1      54.633  89.844  34.991  1.00  0.00    -0.648 OA
ENDBRANCH  33  34
ENDBRANCH   3  33
BRANCH   5  37
HETATM   37  O15 UNL     1      48.473  91.236  37.548  1.00  0.00    -0.208 OA
BRANCH  37  38
HETATM   38  S2  UNL     1      46.979  90.909  36.794  1.00  0.00     0.257 S 
HETATM   39  O16 UNL     1      46.151  92.185  36.875  1.00  0.00    -0.572 OA
HETATM   40  O17 UNL     1      47.132  90.551  35.357  1.00  0.00    -0.572 OA
HETATM   41  O18 UNL     1      46.213  89.685  37.653  1.00  0.00    -0.572 OA
ENDBRANCH  37  38
ENDBRANCH   5  37
BRANCH   4  42
HETATM   42  O11 UNL     1      50.105  92.413  35.685  1.00  0.00    -0.210 OA
BRANCH  42  43
HETATM   43  S1  UNL     1      50.507  93.880  36.408  1.00  0.00     0.257 S 
HETATM   44  O12 UNL     1      51.467  93.679  37.556  1.00  0.00    -0.572 OA
HETATM   45  O13 UNL     1      49.268  94.486  36.984  1.00  0.00    -0.572 OA
HETATM   46  O14 UNL     1      51.236  94.914  35.325  1.00  0.00    -0.572 OA
ENDBRANCH  42  43
ENDBRANCH   4  42
TORSDOF 16
ENDMDL
MODEL 5
REMARK VINA RESULT: -8.626065502      1.253      1.754
REMARK  16 active torsions:
REMARK  status: ('A' for Active; 'I' for Inactive)
REMARK    1  A    between atoms: C2_2  and  O2_4 
REMARK    2  A    between atoms: O2_4  and  C3_5 
REMARK    3  A    between atoms: C3_5  and  O3_6 
REMARK    4  A    between atoms: C4_8  and  O4_9 
REMARK    5  A    between atoms: C5_11  and  C6_12 
REMARK    6  A    between atoms: C9_17  and  O7_18 
REMARK    7  A    between atoms: C10_20  and  O8_21 
REMARK    8  A    between atoms: O8_21  and  C11_22 
REMARK    9  A    between atoms: C13_24  and  C14_25 
REMARK   10  A    between atoms: C14_25  and  C15_26 
REMARK   11  A    between atoms: C16_29  and  O11_30 
REMARK   12  A    between atoms: O11_30  and  S1_31 
REMARK   13  A    between atoms: C17_35  and  O15_36 
REMARK   14  A    between atoms: O15_36  and  S2_37 
REMARK   15  A    between atoms: C18_41  and  O19_42 
REMARK   16  A    between atoms: O19_42  and  S3_43 
ROOT
HETATM    1  C11 UNL     1      51.151  88.905  37.163  1.00  0.00     0.108 A 
HETATM    2  C12 UNL     1      51.914  89.458  36.163  1.00  0.00     0.050 A 
HETATM    3  C13 UNL     1      51.558  90.699  35.663  1.00  0.00    -0.008 A 
HETATM    4  C16 UNL     1      50.466  91.376  36.150  1.00  0.00     0.136 A 
HETATM    5  C17 UNL     1      49.704  90.817  37.154  1.00  0.00     0.165 A 
HETATM    6  C18 UNL     1      50.036  89.597  37.660  1.00  0.00     0.163 A 
ENDROOT
BRANCH   1   7
HETATM    7  O8  UNL     1      51.400  87.695  37.733  1.00  0.00    -0.334 OA
BRANCH   7   8
HETATM    8  C10 UNL     1      52.472  87.290  38.541  1.00  0.00     0.235 C 
HETATM    9  C3  UNL     1      52.034  86.133  39.430  1.00  0.00     0.251 C 
HETATM   10  C4  UNL     1      52.035  84.849  38.719  1.00  0.00     0.126 C 
HETATM   11  C5  UNL     1      52.979  84.544  37.810  1.00  0.00     0.092 C 
HETATM   12  C8  UNL     1      54.000  85.552  37.568  1.00  0.00     0.197 C 
HETATM   13  O6  UNL     1      55.171  85.177  37.289  1.00  0.00    -0.289 OA
HETATM   14  C9  UNL     1      53.626  86.982  37.659  1.00  0.00     0.228 C 
BRANCH   9  15
HETATM   15  O2  UNL     1      52.839  86.208  40.567  1.00  0.00    -0.274 OA
BRANCH  15  16
HETATM   16  C2  UNL     1      52.798  87.115  41.579  1.00  0.00     0.257 C 
HETATM   17  C1  UNL     1      53.877  88.120  41.738  1.00  0.00     0.126 C 
HETATM   18  O1  UNL     1      51.811  87.057  42.359  1.00  0.00    -0.266 OA
ENDBRANCH  15  16
ENDBRANCH   9  15
BRANCH   9  19
HETATM   19  O3  UNL     1      50.721  86.408  39.818  1.00  0.00    -0.358 OA
ATOM     20  H3  UNL     1      50.367  85.625  40.223  1.00  0.00     0.213 HD
ENDBRANCH   9  19
BRANCH  10  21
HETATM   21  O4  UNL     1      51.074  83.869  38.929  1.00  0.00    -0.359 OA
ATOM     22  H4  UNL     1      50.952  83.131  38.344  1.00  0.00     0.217 HD
ENDBRANCH  10  21
BRANCH  11  23
HETATM   23  C6  UNL     1      52.994  83.272  37.095  1.00  0.00     0.162 C 
HETATM   24  C7  UNL     1      53.092  83.247  35.632  1.00  0.00     0.097 C 
HETATM   25  O5  UNL     1      52.923  82.171  37.710  1.00  0.00    -0.293 OA
ENDBRANCH  11  23
BRANCH  14  26
HETATM   26  O7  UNL     1      54.792  87.629  38.139  1.00  0.00    -0.385 OA
ATOM     27  H7  UNL     1      55.403  87.596  37.412  1.00  0.00     0.210 HD
ENDBRANCH  14  26
ENDBRANCH   7   8
ENDBRANCH   1   7
BRANCH   6  28
HETATM   28  O19 UNL     1      49.279  89.020  38.670  1.00  0.00    -0.208 OA
BRANCH  28  29
HETATM   29  S3  UNL     1      49.415  89.498  40.295  1.00  0.00     0.257 S 
HETATM   30  O20 UNL     1      49.059  88.341  41.160  1.00  0.00    -0.572 OA
HETATM   31  O21 UNL     1      50.852  89.874  40.607  1.00  0.00    -0.572 OA
HETATM   32  O22 UNL     1      48.441  90.806  40.650  1.00  0.00    -0.572 OA
ENDBRANCH  28  29
ENDBRANCH   6  28
BRANCH   3  33
HETATM   33  C14 UNL     1      52.406  91.271  34.583  1.00  0.00     0.154 C 
BRANCH  33  34
HETATM   34  C15 UNL     1      53.484  90.353  34.192  1.00  0.00     0.177 C 
HETATM   35  O9  UNL     1      53.356  89.638  33.179  1.00  0.00    -0.648 OA
HETATM   36  O10 UNL     1      54.637  90.275  34.934  1.00  0.00    -0.648 OA
ENDBRANCH  33  34
ENDBRANCH   3  33
BRANCH   5  37
HETATM   37  O15 UNL     1      48.593  91.494  37.656  1.00  0.00    -0.208 OA
BRANCH  37  38
HETATM   38  S2  UNL     1      47.020  91.165  37.085  1.00  0.00     0.257 S 
HETATM   39  O16 UNL     1      46.347  92.509  36.836  1.00  0.00    -0.572 OA
HETATM   40  O17 UNL     1      47.027  90.410  35.802  1.00  0.00    -0.572 OA
HETATM   41  O18 UNL     1      46.188  90.333  38.283  1.00  0.00    -0.572 OA
ENDBRANCH  37  38
ENDBRANCH   5  37
BRANCH   4  42
HETATM   42  O11 UNL     1      50.097  92.619  35.659  1.00  0.00    -0.210 OA
BRANCH  42  43
HETATM   43  S1  UNL     1      50.543  94.070  36.390  1.00  0.00     0.257 S 
HETATM   44  O12 UNL     1      51.272  94.968  35.418  1.00  0.00    -0.572 OA
HETATM   45  O13 UNL     1      51.498  93.775  37.501  1.00  0.00    -0.572 OA
HETATM   46  O14 UNL     1      49.216  94.910  36.943  1.00  0.00    -0.572 OA
ENDBRANCH  42  43
ENDBRANCH   4  42
TORSDOF 16
ENDMDL
