MODEL 1
REMARK VINA RESULT: -7.738580020      0.000      0.000
REMARK  5 active torsions:
REMARK  status: ('A' for Active; 'I' for Inactive)
REMARK    1  A    between atoms: C2_2  and  C4_4 
REMARK    2  A    between atoms: C4_4  and  N1_5 
REMARK    3  A    between atoms: C7_8  and  C9_10 
REMARK    4  A    between atoms: C14_15  and  O1_16 
REMARK    5  A    between atoms: C14_15  and  O2_18 
ROOT
HETATM    1  C9  UNL     1      34.936  26.993  20.658  1.00  0.00     0.018 C 
HETATM    2  C10 UNL     1      35.150  26.401  22.006  1.00  0.00    -0.025 C 
HETATM    3  C11 UNL     1      35.505  25.173  22.386  1.00  0.00    -0.025 C 
HETATM    4  C12 UNL     1      35.803  23.971  21.538  1.00  0.00     0.018 C 
HETATM    5  C13 UNL     1      37.081  23.362  22.078  1.00  0.00     0.077 C 
HETATM    6  C14 UNL     1      37.862  22.935  20.855  1.00  0.00     0.167 C 
HETATM    7  C15 UNL     1      37.370  23.726  19.694  1.00  0.00     0.017 C 
HETATM    8  C16 UNL     1      37.164  22.958  18.409  1.00  0.00     0.021 C 
HETATM    9  C17 UNL     1      37.996  25.066  19.446  1.00  0.00     0.020 C 
HETATM   10  C18 UNL     1      36.962  25.700  20.308  1.00  0.00    -0.007 C 
HETATM   11  C19 UNL     1      36.120  26.788  19.732  1.00  0.00     0.014 C 
HETATM   12  C20 UNL     1      36.136  24.415  20.155  1.00  0.00     0.011 C 
ENDROOT
BRANCH   1  13
HETATM   13  C7  UNL     1      34.751  28.482  20.847  1.00  0.00    -0.009 C 
HETATM   14  C6  UNL     1      36.054  29.250  20.772  1.00  0.00     0.041 C 
HETATM   15  C5  UNL     1      35.506  30.643  20.428  1.00  0.00     0.273 C 
HETATM   16  N1  UNL     1      34.465  30.389  19.473  1.00  0.00     0.089 N 
HETATM   17  C21 UNL     1      33.998  29.024  19.678  1.00  0.00     0.282 C 
HETATM   18  C8  UNL     1      34.100  28.740  22.178  1.00  0.00     0.018 C 
BRANCH  16  19
HETATM   19  C4  UNL     1      33.331  31.253  19.595  1.00  0.00     0.276 C 
BRANCH  19  20
HETATM   20  C2  UNL     1      32.322  31.123  18.499  1.00  0.00     0.006 C 
HETATM   21  C1  UNL     1      31.176  32.087  18.624  1.00  0.00     0.011 C 
HETATM   22  C3  UNL     1      33.052  31.447  17.189  1.00  0.00     0.011 C 
ENDBRANCH  19  20
ENDBRANCH  16  19
ENDBRANCH   1  13
BRANCH   6  23
HETATM   23  O1  UNL     1      39.241  23.029  21.057  1.00  0.00    -0.365 OA
ATOM     24  H1  UNL     1      39.474  22.922  21.971  1.00  0.00     0.213 HD
ENDBRANCH   6  23
BRANCH   6  25
HETATM   25  O2  UNL     1      37.505  21.586  20.618  1.00  0.00    -0.365 OA
ATOM     26  H2  UNL     1      36.704  21.615  20.108  1.00  0.00     0.213 HD
ENDBRANCH   6  25
TORSDOF 5
ENDMDL
MODEL 2
REMARK VINA RESULT: -7.625160816      1.268      1.594
REMARK  5 active torsions:
REMARK  status: ('A' for Active; 'I' for Inactive)
REMARK    1  A    between atoms: C2_2  and  C4_4 
REMARK    2  A    between atoms: C4_4  and  N1_5 
REMARK    3  A    between atoms: C7_8  and  C9_10 
REMARK    4  A    between atoms: C14_15  and  O1_16 
REMARK    5  A    between atoms: C14_15  and  O2_18 
ROOT
HETATM    1  C9  UNL     1      35.094  26.763  20.247  1.00  0.00     0.018 C 
HETATM    2  C10 UNL     1      33.915  25.987  20.717  1.00  0.00    -0.025 C 
HETATM    3  C11 UNL     1      33.683  24.675  20.766  1.00  0.00    -0.025 C 
HETATM    4  C12 UNL     1      34.572  23.542  20.344  1.00  0.00     0.018 C 
HETATM    5  C13 UNL     1      34.534  22.518  21.460  1.00  0.00     0.077 C 
HETATM    6  C14 UNL     1      35.956  22.014  21.581  1.00  0.00     0.167 C 
HETATM    7  C15 UNL     1      36.860  23.042  20.997  1.00  0.00     0.017 C 
HETATM    8  C16 UNL     1      37.973  22.521  20.118  1.00  0.00     0.021 C 
HETATM    9  C17 UNL     1      37.332  24.149  21.892  1.00  0.00     0.020 C 
HETATM   10  C18 UNL     1      36.154  24.965  21.489  1.00  0.00    -0.007 C 
HETATM   11  C19 UNL     1      36.390  26.314  20.898  1.00  0.00     0.014 C 
HETATM   12  C20 UNL     1      35.983  24.015  20.294  1.00  0.00     0.011 C 
ENDROOT
BRANCH   1  13
HETATM   13  C7  UNL     1      34.862  28.207  20.630  1.00  0.00    -0.009 C 
HETATM   14  C6  UNL     1      36.148  29.000  20.740  1.00  0.00     0.041 C 
HETATM   15  C5  UNL     1      35.585  30.417  20.561  1.00  0.00     0.273 C 
HETATM   16  N1  UNL     1      34.606  30.283  19.520  1.00  0.00     0.089 N 
HETATM   17  C21 UNL     1      34.163  28.895  19.505  1.00  0.00     0.282 C 
HETATM   18  C8  UNL     1      34.130  28.264  21.943  1.00  0.00     0.018 C 
BRANCH  16  19
HETATM   19  C4  UNL     1      33.447  31.102  19.693  1.00  0.00     0.276 C 
BRANCH  19  20
HETATM   20  C2  UNL     1      32.463  31.044  18.568  1.00  0.00     0.006 C 
HETATM   21  C1  UNL     1      31.341  32.034  18.703  1.00  0.00     0.011 C 
HETATM   22  C3  UNL     1      33.236  31.398  17.291  1.00  0.00     0.011 C 
ENDBRANCH  19  20
ENDBRANCH  16  19
ENDBRANCH   1  13
BRANCH   6  23
HETATM   23  O1  UNL     1      36.276  21.663  22.894  1.00  0.00    -0.365 OA
ATOM     24  H1  UNL     1      36.568  20.762  22.960  1.00  0.00     0.213 HD
ENDBRANCH   6  23
BRANCH   6  25
HETATM   25  O2  UNL     1      36.034  20.872  20.749  1.00  0.00    -0.365 OA
ATOM     26  H2  UNL     1      35.799  21.168  19.878  1.00  0.00     0.213 HD
ENDBRANCH   6  25
TORSDOF 5
ENDMDL
MODEL 3
REMARK VINA RESULT: -7.541431498      1.187      1.573
REMARK  5 active torsions:
REMARK  status: ('A' for Active; 'I' for Inactive)
REMARK    1  A    between atoms: C2_2  and  C4_4 
REMARK    2  A    between atoms: C4_4  and  N1_5 
REMARK    3  A    between atoms: C7_8  and  C9_10 
REMARK    4  A    between atoms: C14_15  and  O1_16 
REMARK    5  A    between atoms: C14_15  and  O2_18 
ROOT
HETATM    1  C9  UNL     1      34.601  26.722  21.484  1.00  0.00     0.018 C 
HETATM    2  C10 UNL     1      35.988  26.536  21.991  1.00  0.00    -0.025 C 
HETATM    3  C11 UNL     1      36.766  25.457  22.060  1.00  0.00    -0.025 C 
HETATM    4  C12 UNL     1      36.469  24.048  21.634  1.00  0.00     0.018 C 
HETATM    5  C13 UNL     1      37.673  23.564  20.852  1.00  0.00     0.077 C 
HETATM    6  C14 UNL     1      37.101  22.766  19.701  1.00  0.00     0.167 C 
HETATM    7  C15 UNL     1      35.696  23.209  19.487  1.00  0.00     0.017 C 
HETATM    8  C16 UNL     1      34.687  22.112  19.238  1.00  0.00     0.021 C 
HETATM    9  C17 UNL     1      35.464  24.390  18.592  1.00  0.00     0.020 C 
HETATM   10  C18 UNL     1      35.561  25.292  19.771  1.00  0.00    -0.007 C 
HETATM   11  C19 UNL     1      34.419  26.204  20.069  1.00  0.00     0.014 C 
HETATM   12  C20 UNL     1      35.345  24.056  20.657  1.00  0.00     0.011 C 
ENDROOT
BRANCH   1  13
HETATM   13  C7  UNL     1      34.325  28.208  21.470  1.00  0.00    -0.009 C 
HETATM   14  C6  UNL     1      35.547  29.030  21.116  1.00  0.00     0.041 C 
HETATM   15  C5  UNL     1      34.857  30.316  20.640  1.00  0.00     0.273 C 
HETATM   16  N1  UNL     1      33.735  29.854  19.873  1.00  0.00     0.089 N 
HETATM   17  C21 UNL     1      33.402  28.514  20.337  1.00  0.00     0.282 C 
HETATM   18  C8  UNL     1      33.814  28.635  22.819  1.00  0.00     0.018 C 
BRANCH  16  19
HETATM   19  C4  UNL     1      32.559  30.658  20.006  1.00  0.00     0.276 C 
BRANCH  19  20
HETATM   20  C2  UNL     1      32.440  31.766  19.009  1.00  0.00     0.006 C 
HETATM   21  C1  UNL     1      32.978  31.409  17.652  1.00  0.00     0.011 C 
HETATM   22  C3  UNL     1      30.941  32.052  18.848  1.00  0.00     0.011 C 
ENDBRANCH  19  20
ENDBRANCH  16  19
ENDBRANCH   1  13
BRANCH   6  23
HETATM   23  O1  UNL     1      37.899  22.852  18.558  1.00  0.00    -0.365 OA
ATOM     24  H1  UNL     1      38.759  22.473  18.697  1.00  0.00     0.213 HD
ENDBRANCH   6  23
BRANCH   6  25
HETATM   25  O2  UNL     1      37.049  21.425  20.148  1.00  0.00    -0.365 OA
ATOM     26  H2  UNL     1      36.666  21.454  21.017  1.00  0.00     0.213 HD
ENDBRANCH   6  25
TORSDOF 5
ENDMDL
MODEL 4
REMARK VINA RESULT: -7.457021186      3.875      7.281
REMARK  5 active torsions:
REMARK  status: ('A' for Active; 'I' for Inactive)
REMARK    1  A    between atoms: C2_2  and  C4_4 
REMARK    2  A    between atoms: C4_4  and  N1_5 
REMARK    3  A    between atoms: C7_8  and  C9_10 
REMARK    4  A    between atoms: C14_15  and  O1_16 
REMARK    5  A    between atoms: C14_15  and  O2_18 
ROOT
HETATM    1  C9  UNL     1      36.044  23.849  21.546  1.00  0.00     0.018 C 
HETATM    2  C10 UNL     1      34.698  24.475  21.458  1.00  0.00    -0.025 C 
HETATM    3  C11 UNL     1      34.239  25.650  21.889  1.00  0.00    -0.025 C 
HETATM    4  C12 UNL     1      34.969  26.737  22.624  1.00  0.00     0.018 C 
HETATM    5  C13 UNL     1      34.608  28.042  21.945  1.00  0.00     0.077 C 
HETATM    6  C14 UNL     1      35.893  28.840  21.915  1.00  0.00     0.167 C 
HETATM    7  C15 UNL     1      37.030  27.888  22.040  1.00  0.00     0.017 C 
HETATM    8  C16 UNL     1      38.144  28.306  22.970  1.00  0.00     0.021 C 
HETATM    9  C17 UNL     1      37.560  27.264  20.783  1.00  0.00     0.020 C 
HETATM   10  C18 UNL     1      36.605  26.135  20.949  1.00  0.00    -0.007 C 
HETATM   11  C19 UNL     1      37.145  24.746  21.011  1.00  0.00     0.014 C 
HETATM   12  C20 UNL     1      36.434  26.577  22.410  1.00  0.00     0.011 C 
ENDROOT
BRANCH   1  13
HETATM   13  C7  UNL     1      36.014  22.599  20.695  1.00  0.00    -0.009 C 
HETATM   14  C6  UNL     1      35.540  21.380  21.460  1.00  0.00     0.041 C 
HETATM   15  C5  UNL     1      35.088  20.505  20.282  1.00  0.00     0.273 C 
HETATM   16  N1  UNL     1      34.426  21.418  19.394  1.00  0.00     0.089 N 
HETATM   17  C21 UNL     1      34.951  22.751  19.658  1.00  0.00     0.282 C 
HETATM   18  C8  UNL     1      37.387  22.336  20.143  1.00  0.00     0.018 C 
BRANCH  16  19
HETATM   19  C4  UNL     1      34.632  21.143  18.006  1.00  0.00     0.276 C 
BRANCH  19  20
HETATM   20  C2  UNL     1      35.001  19.728  17.693  1.00  0.00     0.006 C 
HETATM   21  C1  UNL     1      33.848  18.910  17.181  1.00  0.00     0.011 C 
HETATM   22  C3  UNL     1      36.054  19.785  16.578  1.00  0.00     0.011 C 
ENDBRANCH  19  20
ENDBRANCH  16  19
ENDBRANCH   1  13
BRANCH   6  23
HETATM   23  O1  UNL     1      35.970  29.665  20.792  1.00  0.00    -0.365 OA
ATOM     24  H1  UNL     1      35.830  30.579  21.012  1.00  0.00     0.213 HD
ENDBRANCH   6  23
BRANCH   6  25
HETATM   25  O2  UNL     1      35.884  29.631  23.089  1.00  0.00    -0.365 OA
ATOM     26  H2  UNL     1      35.245  30.317  22.935  1.00  0.00     0.213 HD
ENDBRANCH   6  25
TORSDOF 5
ENDMDL
MODEL 5
REMARK VINA RESULT: -7.444342374      3.667      7.459
REMARK  5 active torsions:
REMARK  status: ('A' for Active; 'I' for Inactive)
REMARK    1  A    between atoms: C2_2  and  C4_4 
REMARK    2  A    between atoms: C4_4  and  N1_5 
REMARK    3  A    between atoms: C7_8  and  C9_10 
REMARK    4  A    between atoms: C14_15  and  O1_16 
REMARK    5  A    between atoms: C14_15  and  O2_18 
ROOT
HETATM    1  C9  UNL     1      35.801  24.441  20.373  1.00  0.00     0.018 C 
HETATM    2  C10 UNL     1      37.126  25.112  20.289  1.00  0.00    -0.025 C 
HETATM    3  C11 UNL     1      37.462  26.400  20.216  1.00  0.00    -0.025 C 
HETATM    4  C12 UNL     1      36.572  27.608  20.194  1.00  0.00     0.018 C 
HETATM    5  C13 UNL     1      37.160  28.603  21.174  1.00  0.00     0.077 C 
HETATM    6  C14 UNL     1      35.969  29.214  21.878  1.00  0.00     0.167 C 
HETATM    7  C15 UNL     1      34.823  28.274  21.745  1.00  0.00     0.017 C 
HETATM    8  C16 UNL     1      33.488  28.899  21.412  1.00  0.00     0.021 C 
HETATM    9  C17 UNL     1      34.686  27.189  22.772  1.00  0.00     0.020 C 
HETATM   10  C18 UNL     1      35.513  26.291  21.921  1.00  0.00    -0.007 C 
HETATM   11  C19 UNL     1      34.943  24.977  21.504  1.00  0.00     0.014 C 
HETATM   12  C20 UNL     1      35.239  27.249  20.752  1.00  0.00     0.011 C 
ENDROOT
BRANCH   1  13
HETATM   13  C7  UNL     1      36.057  22.976  20.643  1.00  0.00    -0.009 C 
HETATM   14  C6  UNL     1      36.214  22.669  22.118  1.00  0.00     0.041 C 
HETATM   15  C5  UNL     1      35.887  21.169  22.100  1.00  0.00     0.273 C 
HETATM   16  N1  UNL     1      34.781  21.058  21.191  1.00  0.00     0.089 N 
HETATM   17  C21 UNL     1      34.830  22.202  20.290  1.00  0.00     0.282 C 
HETATM   18  C8  UNL     1      37.297  22.541  19.912  1.00  0.00     0.018 C 
BRANCH  16  19
HETATM   19  C4  UNL     1      34.796  19.876  20.386  1.00  0.00     0.276 C 
BRANCH  19  20
HETATM   20  C2  UNL     1      34.221  20.042  19.016  1.00  0.00     0.006 C 
HETATM   21  C1  UNL     1      35.208  19.771  17.916  1.00  0.00     0.011 C 
HETATM   22  C3  UNL     1      33.094  19.008  18.885  1.00  0.00     0.011 C 
ENDBRANCH  19  20
ENDBRANCH  16  19
ENDBRANCH   1  13
BRANCH   6  23
HETATM   23  O1  UNL     1      36.262  29.561  23.198  1.00  0.00    -0.365 OA
ATOM     24  H1  UNL     1      35.597  29.254  23.802  1.00  0.00     0.213 HD
ENDBRANCH   6  23
BRANCH   6  25
HETATM   25  O2  UNL     1      35.638  30.376  21.141  1.00  0.00    -0.365 OA
ATOM     26  H2  UNL     1      36.122  31.086  21.545  1.00  0.00     0.213 HD
ENDBRANCH   6  25
TORSDOF 5
ENDMDL
