MODEL 1
REMARK VINA RESULT: -7.158584993      0.000      0.000
REMARK  3 active torsions:
REMARK  status: ('A' for Active; 'I' for Inactive)
REMARK    1  A    between atoms: C2_2  and  C3_3 
REMARK       I    between atoms: C3_3  and  N1_5 
REMARK    2  A    between atoms: N1_5  and  C4_7 
REMARK    3  A    between atoms: C7_10  and  N2_11 
ROOT
HETATM    1  C3  UNL     1      36.450  24.187  19.803  1.00  0.00     0.226 C 
HETATM    2  O1  UNL     1      37.311  23.866  18.922  1.00  0.00    -0.273 OA
HETATM    3  N1  UNL     1      35.596  23.122  20.206  1.00  0.00    -0.356 N 
ATOM      4  H1  UNL     1      34.883  23.315  20.909  1.00  0.00     0.162 HD
ENDROOT
BRANCH   1   5
HETATM    5  C2  UNL     1      36.393  25.555  20.318  1.00  0.00     0.041 C 
HETATM    6  C1  UNL     1      37.590  26.300  19.672  1.00  0.00     0.025 C 
HETATM    7  C13 UNL     1      35.179  26.294  19.925  1.00  0.00     0.051 C 
HETATM    8  C14 UNL     1      34.098  26.570  20.905  1.00  0.00     0.187 C 
HETATM    9  C15 UNL     1      33.964  28.084  21.209  1.00  0.00     0.033 C 
HETATM   10  N3  UNL     1      34.544  26.084  22.189  1.00  0.00    -0.067 N 
HETATM   11  C16 UNL     1      33.846  28.386  22.658  1.00  0.00     0.002 C 
HETATM   12  C17 UNL     1      35.063  28.569  23.468  1.00  0.00     0.002 C 
HETATM   13  C18 UNL     1      35.927  27.295  23.619  1.00  0.00     0.033 C 
HETATM   14  C19 UNL     1      35.871  26.676  22.309  1.00  0.00     0.187 C 
HETATM   15  C20 UNL     1      36.740  25.603  21.826  1.00  0.00     0.051 C 
ATOM     16  H32 UNL     1      33.914  26.284  22.965  1.00  0.00     0.278 HD
ATOM     17  H31 UNL     1      34.517  25.070  22.296  1.00  0.00     0.278 HD
ENDBRANCH   1   5
BRANCH   3  18
HETATM   18  C4  UNL     1      35.685  21.779  19.674  1.00  0.00     0.086 C 
HETATM   19  C5  UNL     1      35.449  20.810  20.781  1.00  0.00     0.027 C 
HETATM   20  C6  UNL     1      34.544  19.755  20.240  1.00  0.00     0.038 C 
HETATM   21  C7  UNL     1      34.096  20.126  18.870  1.00  0.00     0.225 C 
HETATM   22  C12 UNL     1      34.685  21.490  18.610  1.00  0.00     0.061 C 
BRANCH  21  23
HETATM   23  N2  UNL     1      34.414  19.169  17.862  1.00  0.00     0.093 N 
HETATM   24  C8  UNL     1      34.945  17.924  18.303  1.00  0.00     0.273 C 
HETATM   25  C9  UNL     1      35.783  17.377  17.148  1.00  0.00     0.032 C 
HETATM   26  C10 UNL     1      36.200  18.613  16.395  1.00  0.00     0.032 C 
HETATM   27  C11 UNL     1      35.209  19.658  16.788  1.00  0.00     0.273 C 
ENDBRANCH  21  23
ENDBRANCH   3  18
TORSDOF 3
ENDMDL
MODEL 2
REMARK VINA RESULT: -7.138077906      2.478      3.916
REMARK  3 active torsions:
REMARK  status: ('A' for Active; 'I' for Inactive)
REMARK    1  A    between atoms: C2_2  and  C3_3 
REMARK       I    between atoms: C3_3  and  N1_5 
REMARK    2  A    between atoms: N1_5  and  C4_7 
REMARK    3  A    between atoms: C7_10  and  N2_11 
ROOT
HETATM    1  C3  UNL     1      35.502  26.830  20.051  1.00  0.00     0.226 C 
HETATM    2  O1  UNL     1      35.686  26.417  18.861  1.00  0.00    -0.273 OA
HETATM    3  N1  UNL     1      35.757  25.856  21.058  1.00  0.00    -0.356 N 
ATOM      4  H1  UNL     1      35.626  26.125  22.033  1.00  0.00     0.162 HD
ENDROOT
BRANCH   1   5
HETATM    5  C2  UNL     1      35.064  28.204  20.298  1.00  0.00     0.041 C 
HETATM    6  C1  UNL     1      35.975  28.742  21.431  1.00  0.00     0.025 C 
HETATM    7  C13 UNL     1      35.250  29.108  19.147  1.00  0.00     0.051 C 
HETATM    8  C14 UNL     1      34.092  29.571  18.341  1.00  0.00     0.187 C 
HETATM    9  C15 UNL     1      33.853  31.095  18.490  1.00  0.00     0.033 C 
HETATM   10  N3  UNL     1      32.897  29.056  18.966  1.00  0.00    -0.067 N 
HETATM   11  C16 UNL     1      32.429  31.450  18.715  1.00  0.00     0.002 C 
HETATM   12  C17 UNL     1      31.888  31.467  20.086  1.00  0.00     0.002 C 
HETATM   13  C18 UNL     1      31.840  30.081  20.771  1.00  0.00     0.033 C 
HETATM   14  C19 UNL     1      33.076  29.444  20.360  1.00  0.00     0.187 C 
HETATM   15  C20 UNL     1      33.660  28.239  20.949  1.00  0.00     0.051 C 
ATOM     16  H32 UNL     1      32.023  29.371  18.543  1.00  0.00     0.278 HD
ATOM     17  H31 UNL     1      32.729  28.062  18.816  1.00  0.00     0.278 HD
ENDBRANCH   1   5
BRANCH   3  18
HETATM   18  C4  UNL     1      36.192  24.506  20.774  1.00  0.00     0.086 C 
HETATM   19  C5  UNL     1      37.137  24.073  21.842  1.00  0.00     0.027 C 
HETATM   20  C6  UNL     1      36.764  22.675  22.203  1.00  0.00     0.038 C 
HETATM   21  C7  UNL     1      35.519  22.283  21.487  1.00  0.00     0.225 C 
HETATM   22  C12 UNL     1      35.082  23.515  20.736  1.00  0.00     0.061 C 
BRANCH  21  23
HETATM   23  N2  UNL     1      35.649  21.130  20.660  1.00  0.00     0.093 N 
HETATM   24  C8  UNL     1      35.422  21.310  19.266  1.00  0.00     0.273 C 
HETATM   25  C9  UNL     1      34.969  19.955  18.722  1.00  0.00     0.032 C 
HETATM   26  C10 UNL     1      34.352  19.279  19.920  1.00  0.00     0.032 C 
HETATM   27  C11 UNL     1      34.936  19.981  21.102  1.00  0.00     0.273 C 
ENDBRANCH  21  23
ENDBRANCH   3  18
TORSDOF 3
ENDMDL
MODEL 3
REMARK VINA RESULT: -6.765773551      2.805      4.439
REMARK  3 active torsions:
REMARK  status: ('A' for Active; 'I' for Inactive)
REMARK    1  A    between atoms: C2_2  and  C3_3 
REMARK       I    between atoms: C3_3  and  N1_5 
REMARK    2  A    between atoms: N1_5  and  C4_7 
REMARK    3  A    between atoms: C7_10  and  N2_11 
ROOT
HETATM    1  C3  UNL     1      34.079  26.843  20.706  1.00  0.00     0.226 C 
HETATM    2  O1  UNL     1      34.133  26.272  21.843  1.00  0.00    -0.273 OA
HETATM    3  N1  UNL     1      34.066  25.947  19.599  1.00  0.00    -0.356 N 
ATOM      4  H1  UNL     1      34.025  26.343  18.660  1.00  0.00     0.162 HD
ENDROOT
BRANCH   1   5
HETATM    5  C2  UNL     1      34.034  28.302  20.612  1.00  0.00     0.041 C 
HETATM    6  C1  UNL     1      34.990  28.826  21.716  1.00  0.00     0.025 C 
HETATM    7  C13 UNL     1      34.539  28.835  19.333  1.00  0.00     0.051 C 
HETATM    8  C14 UNL     1      33.612  29.388  18.314  1.00  0.00     0.187 C 
HETATM    9  C15 UNL     1      33.807  30.913  18.119  1.00  0.00     0.033 C 
HETATM   10  N3  UNL     1      32.284  29.365  18.879  1.00  0.00    -0.067 N 
HETATM   11  C16 UNL     1      32.531  31.672  18.091  1.00  0.00     0.002 C 
HETATM   12  C17 UNL     1      31.935  32.146  19.353  1.00  0.00     0.002 C 
HETATM   13  C18 UNL     1      31.453  31.018  20.294  1.00  0.00     0.033 C 
HETATM   14  C19 UNL     1      32.480  30.001  20.177  1.00  0.00     0.187 C 
HETATM   15  C20 UNL     1      32.661  28.853  21.066  1.00  0.00     0.051 C 
ATOM     16  H32 UNL     1      31.563  29.792  18.297  1.00  0.00     0.278 HD
ATOM     17  H31 UNL     1      31.850  28.443  18.916  1.00  0.00     0.278 HD
ENDBRANCH   1   5
BRANCH   3  18
HETATM   18  C4  UNL     1      34.109  24.507  19.733  1.00  0.00     0.086 C 
HETATM   19  C5  UNL     1      33.521  23.896  18.508  1.00  0.00     0.027 C 
HETATM   20  C6  UNL     1      34.409  22.759  18.129  1.00  0.00     0.038 C 
HETATM   21  C7  UNL     1      35.613  22.744  19.005  1.00  0.00     0.225 C 
HETATM   22  C12 UNL     1      35.485  23.961  19.885  1.00  0.00     0.061 C 
BRANCH  21  23
HETATM   23  N2  UNL     1      35.800  21.533  19.733  1.00  0.00     0.093 N 
HETATM   24  C8  UNL     1      34.895  20.470  19.457  1.00  0.00     0.273 C 
HETATM   25  C9  UNL     1      34.844  19.606  20.717  1.00  0.00     0.032 C 
HETATM   26  C10 UNL     1      35.201  20.567  21.821  1.00  0.00     0.032 C 
HETATM   27  C11 UNL     1      35.923  21.684  21.142  1.00  0.00     0.273 C 
ENDBRANCH  21  23
ENDBRANCH   3  18
TORSDOF 3
ENDMDL
MODEL 4
REMARK VINA RESULT: -6.746345609      3.101      4.912
REMARK  3 active torsions:
REMARK  status: ('A' for Active; 'I' for Inactive)
REMARK    1  A    between atoms: C2_2  and  C3_3 
REMARK       I    between atoms: C3_3  and  N1_5 
REMARK    2  A    between atoms: N1_5  and  C4_7 
REMARK    3  A    between atoms: C7_10  and  N2_11 
ROOT
HETATM    1  C3  UNL     1      35.498  28.027  19.455  1.00  0.00     0.226 C 
HETATM    2  O1  UNL     1      36.385  27.728  18.591  1.00  0.00    -0.273 OA
HETATM    3  N1  UNL     1      35.172  26.971  20.352  1.00  0.00    -0.356 N 
ATOM      4  H1  UNL     1      34.467  27.147  21.067  1.00  0.00     0.162 HD
ENDROOT
BRANCH   1   5
HETATM    5  C2  UNL     1      34.902  29.363  19.471  1.00  0.00     0.041 C 
HETATM    6  C1  UNL     1      35.879  30.252  20.283  1.00  0.00     0.025 C 
HETATM    7  C13 UNL     1      34.783  29.982  18.138  1.00  0.00     0.051 C 
HETATM    8  C14 UNL     1      33.464  30.109  17.467  1.00  0.00     0.187 C 
HETATM    9  C15 UNL     1      33.027  31.588  17.322  1.00  0.00     0.033 C 
HETATM   10  N3  UNL     1      32.462  29.628  18.388  1.00  0.00    -0.067 N 
HETATM   11  C16 UNL     1      31.613  31.826  17.711  1.00  0.00     0.002 C 
HETATM   12  C17 UNL     1      31.281  32.109  19.119  1.00  0.00     0.002 C 
HETATM   13  C18 UNL     1      31.539  30.929  20.086  1.00  0.00     0.033 C 
HETATM   14  C19 UNL     1      32.783  30.353  19.612  1.00  0.00     0.187 C 
HETATM   15  C20 UNL     1      33.618  29.395  20.335  1.00  0.00     0.051 C 
ATOM     16  H32 UNL     1      31.500  29.734  18.067  1.00  0.00     0.278 HD
ATOM     17  H31 UNL     1      32.423  28.614  18.489  1.00  0.00     0.278 HD
ENDBRANCH   1   5
BRANCH   3  18
HETATM   18  C4  UNL     1      35.787  25.662  20.305  1.00  0.00     0.086 C 
HETATM   19  C5  UNL     1      36.810  25.575  21.385  1.00  0.00     0.027 C 
HETATM   20  C6  UNL     1      36.649  24.237  22.022  1.00  0.00     0.038 C 
HETATM   21  C7  UNL     1      35.454  23.550  21.459  1.00  0.00     0.225 C 
HETATM   22  C12 UNL     1      34.827  24.543  20.513  1.00  0.00     0.061 C 
BRANCH  21  23
HETATM   23  N2  UNL     1      35.725  22.286  20.858  1.00  0.00     0.093 N 
HETATM   24  C8  UNL     1      35.199  22.069  19.553  1.00  0.00     0.273 C 
HETATM   25  C9  UNL     1      35.026  20.558  19.401  1.00  0.00     0.032 C 
HETATM   26  C10 UNL     1      34.847  20.077  20.818  1.00  0.00     0.032 C 
HETATM   27  C11 UNL     1      35.437  21.153  21.668  1.00  0.00     0.273 C 
ENDBRANCH  21  23
ENDBRANCH   3  18
TORSDOF 3
ENDMDL
MODEL 5
REMARK VINA RESULT: -6.663305178      1.739      2.574
REMARK  3 active torsions:
REMARK  status: ('A' for Active; 'I' for Inactive)
REMARK    1  A    between atoms: C2_2  and  C3_3 
REMARK       I    between atoms: C3_3  and  N1_5 
REMARK    2  A    between atoms: N1_5  and  C4_7 
REMARK    3  A    between atoms: C7_10  and  N2_11 
ROOT
HETATM    1  C3  UNL     1      36.343  25.177  21.253  1.00  0.00     0.226 C 
HETATM    2  O1  UNL     1      37.501  24.725  21.530  1.00  0.00    -0.273 OA
HETATM    3  N1  UNL     1      35.453  24.213  20.699  1.00  0.00    -0.356 N 
ATOM      4  H1  UNL     1      34.510  24.513  20.454  1.00  0.00     0.162 HD
ENDROOT
BRANCH   1   5
HETATM    5  C2  UNL     1      36.016  26.579  21.508  1.00  0.00     0.041 C 
HETATM    6  C1  UNL     1      36.268  26.804  23.022  1.00  0.00     0.025 C 
HETATM    7  C13 UNL     1      36.881  27.536  20.793  1.00  0.00     0.051 C 
HETATM    8  C14 UNL     1      36.376  28.303  19.626  1.00  0.00     0.187 C 
HETATM    9  C15 UNL     1      36.287  29.821  19.924  1.00  0.00     0.033 C 
HETATM   10  N3  UNL     1      34.976  27.984  19.472  1.00  0.00    -0.067 N 
HETATM   11  C16 UNL     1      35.008  30.435  19.483  1.00  0.00     0.002 C 
HETATM   12  C17 UNL     1      33.843  30.425  20.386  1.00  0.00     0.002 C 
HETATM   13  C18 UNL     1      33.275  29.018  20.681  1.00  0.00     0.033 C 
HETATM   14  C19 UNL     1      34.455  28.186  20.819  1.00  0.00     0.187 C 
HETATM   15  C20 UNL     1      34.495  26.835  21.378  1.00  0.00     0.051 C 
ATOM     16  H32 UNL     1      34.495  28.510  18.743  1.00  0.00     0.278 HD
ATOM     17  H31 UNL     1      34.788  27.064  19.074  1.00  0.00     0.278 HD
ENDBRANCH   1   5
BRANCH   3  18
HETATM   18  C4  UNL     1      35.814  22.831  20.464  1.00  0.00     0.086 C 
HETATM   19  C5  UNL     1      35.626  22.067  21.729  1.00  0.00     0.027 C 
HETATM   20  C6  UNL     1      34.966  20.782  21.358  1.00  0.00     0.038 C 
HETATM   21  C7  UNL     1      34.608  20.796  19.914  1.00  0.00     0.225 C 
HETATM   22  C12 UNL     1      34.990  22.168  19.417  1.00  0.00     0.061 C 
BRANCH  21  23
HETATM   23  N2  UNL     1      35.180  19.737  19.150  1.00  0.00     0.093 N 
HETATM   24  C8  UNL     1      35.439  20.002  17.776  1.00  0.00     0.273 C 
HETATM   25  C9  UNL     1      35.400  18.652  17.059  1.00  0.00     0.032 C 
HETATM   26  C10 UNL     1      34.498  17.815  17.928  1.00  0.00     0.032 C 
HETATM   27  C11 UNL     1      34.523  18.480  19.265  1.00  0.00     0.273 C 
ENDBRANCH  21  23
ENDBRANCH   3  18
TORSDOF 3
ENDMDL
