MODEL 1
REMARK VINA RESULT: -7.968881939      0.000      0.000
REMARK  4 active torsions:
REMARK  status: ('A' for Active; 'I' for Inactive)
REMARK    1  A    between atoms: C15_15  and  C16_16 
REMARK    2  A    between atoms: C16_16  and  C17_18 
REMARK    3  A    between atoms: C17_18  and  O2_19 
REMARK    4  A    between atoms: C20_23  and  O3_25 
ROOT
HETATM    1  C1  UNL     1      36.142  21.377  18.475  1.00  0.00     0.010 C 
HETATM    2  C2  UNL     1      35.030  21.550  19.433  1.00  0.00    -0.014 C 
HETATM    3  C3  UNL     1      35.118  20.532  20.554  1.00  0.00     0.005 C 
HETATM    4  C4  UNL     1      35.224  21.196  21.915  1.00  0.00     0.001 C 
HETATM    5  C5  UNL     1      36.314  22.266  21.740  1.00  0.00     0.008 C 
HETATM    6  C6  UNL     1      35.680  23.432  20.990  1.00  0.00     0.024 C 
HETATM    7  C7  UNL     1      34.795  22.948  19.951  1.00  0.00    -0.004 C 
HETATM    8  C8  UNL     1      34.514  23.848  18.776  1.00  0.00     0.006 C 
HETATM    9  C9  UNL     1      33.903  25.161  19.171  1.00  0.00     0.006 C 
HETATM   10  C10 UNL     1      34.686  25.915  20.200  1.00  0.00    -0.003 C 
HETATM   11  C11 UNL     1      34.474  27.431  20.054  1.00  0.00    -0.009 C 
HETATM   12  C12 UNL     1      35.224  27.999  18.900  1.00  0.00     0.005 C 
HETATM   13  C13 UNL     1      36.720  27.767  18.955  1.00  0.00     0.006 C 
HETATM   14  C14 UNL     1      36.938  26.966  20.267  1.00  0.00     0.004 C 
HETATM   15  C15 UNL     1      36.461  27.896  21.323  1.00  0.00     0.062 C 
HETATM   16  C18 UNL     1      34.927  27.986  21.391  1.00  0.00     0.017 C 
HETATM   17  C19 UNL     1      36.164  25.698  20.051  1.00  0.00     0.029 C 
HETATM   18  C20 UNL     1      36.710  24.475  20.696  1.00  0.00     0.062 C 
HETATM   19  C21 UNL     1      37.881  23.996  19.866  1.00  0.00     0.046 C 
ENDROOT
BRANCH  15  20
HETATM   20  C16 UNL     1      37.067  27.803  22.646  1.00  0.00     0.154 C 
HETATM   21  O1  UNL     1      38.260  27.992  22.778  1.00  0.00    -0.295 OA
BRANCH  20  22
HETATM   22  C17 UNL     1      36.243  27.480  23.827  1.00  0.00     0.242 C 
BRANCH  22  23
HETATM   23  O2  UNL     1      35.771  26.173  23.822  1.00  0.00    -0.394 OA
ATOM     24  H2  UNL     1      35.153  25.998  24.521  1.00  0.00     0.209 HD
ENDBRANCH  22  23
ENDBRANCH  20  22
ENDBRANCH  15  20
BRANCH  18  25
HETATM   25  O3  UNL     1      37.313  24.728  21.959  1.00  0.00    -0.389 OA
ATOM     26  H3  UNL     1      38.244  24.649  21.788  1.00  0.00     0.210 HD
ENDBRANCH  18  25
TORSDOF 4
ENDMDL
MODEL 2
REMARK VINA RESULT: -7.865683597      0.697      1.226
REMARK  4 active torsions:
REMARK  status: ('A' for Active; 'I' for Inactive)
REMARK    1  A    between atoms: C15_15  and  C16_16 
REMARK    2  A    between atoms: C16_16  and  C17_18 
REMARK    3  A    between atoms: C17_18  and  O2_19 
REMARK    4  A    between atoms: C20_23  and  O3_25 
ROOT
HETATM    1  C1  UNL     1      35.905  21.622  18.452  1.00  0.00     0.010 C 
HETATM    2  C2  UNL     1      34.881  21.564  19.517  1.00  0.00    -0.014 C 
HETATM    3  C3  UNL     1      35.210  20.479  20.525  1.00  0.00     0.005 C 
HETATM    4  C4  UNL     1      35.365  21.040  21.928  1.00  0.00     0.001 C 
HETATM    5  C5  UNL     1      36.288  22.258  21.759  1.00  0.00     0.008 C 
HETATM    6  C6  UNL     1      35.438  23.384  21.181  1.00  0.00     0.024 C 
HETATM    7  C7  UNL     1      34.523  22.871  20.183  1.00  0.00    -0.004 C 
HETATM    8  C8  UNL     1      34.014  23.817  19.127  1.00  0.00     0.006 C 
HETATM    9  C9  UNL     1      33.283  24.998  19.695  1.00  0.00     0.006 C 
HETATM   10  C10 UNL     1      34.062  25.766  20.718  1.00  0.00    -0.003 C 
HETATM   11  C11 UNL     1      33.646  27.246  20.733  1.00  0.00    -0.009 C 
HETATM   12  C12 UNL     1      34.198  28.002  19.576  1.00  0.00     0.005 C 
HETATM   13  C13 UNL     1      35.709  27.972  19.478  1.00  0.00     0.006 C 
HETATM   14  C14 UNL     1      36.158  27.103  20.685  1.00  0.00     0.004 C 
HETATM   15  C15 UNL     1      35.674  27.871  21.861  1.00  0.00     0.062 C 
HETATM   16  C18 UNL     1      34.156  27.746  22.072  1.00  0.00     0.017 C 
HETATM   17  C19 UNL     1      35.534  25.763  20.420  1.00  0.00     0.029 C 
HETATM   18  C20 UNL     1      36.292  24.577  20.896  1.00  0.00     0.062 C 
HETATM   19  C21 UNL     1      37.426  24.331  19.925  1.00  0.00     0.046 C 
ENDROOT
BRANCH  15  20
HETATM   20  C16 UNL     1      36.415  27.753  23.111  1.00  0.00     0.154 C 
HETATM   21  O1  UNL     1      35.943  27.119  24.035  1.00  0.00    -0.295 OA
BRANCH  20  22
HETATM   22  C17 UNL     1      37.733  28.399  23.265  1.00  0.00     0.242 C 
BRANCH  22  23
HETATM   23  O2  UNL     1      38.635  28.041  22.271  1.00  0.00    -0.394 OA
ATOM     24  H2  UNL     1      39.521  28.334  22.448  1.00  0.00     0.209 HD
ENDBRANCH  22  23
ENDBRANCH  20  22
ENDBRANCH  15  20
BRANCH  18  25
HETATM   25  O3  UNL     1      36.981  24.806  22.119  1.00  0.00    -0.389 OA
ATOM     26  H3  UNL     1      37.702  25.374  21.873  1.00  0.00     0.210 HD
ENDBRANCH  18  25
TORSDOF 4
ENDMDL
MODEL 3
REMARK VINA RESULT: -7.690382549      3.075      6.001
REMARK  4 active torsions:
REMARK  status: ('A' for Active; 'I' for Inactive)
REMARK    1  A    between atoms: C15_15  and  C16_16 
REMARK    2  A    between atoms: C16_16  and  C17_18 
REMARK    3  A    between atoms: C17_18  and  O2_19 
REMARK    4  A    between atoms: C20_23  and  O3_25 
ROOT
HETATM    1  C1  UNL     1      32.704  30.127  16.829  1.00  0.00     0.010 C 
HETATM    2  C2  UNL     1      33.250  31.107  17.793  1.00  0.00    -0.014 C 
HETATM    3  C3  UNL     1      32.133  31.818  18.533  1.00  0.00     0.005 C 
HETATM    4  C4  UNL     1      32.231  31.615  20.034  1.00  0.00     0.001 C 
HETATM    5  C5  UNL     1      32.448  30.103  20.208  1.00  0.00     0.008 C 
HETATM    6  C6  UNL     1      33.907  29.819  19.866  1.00  0.00     0.024 C 
HETATM    7  C7  UNL     1      34.325  30.608  18.727  1.00  0.00    -0.004 C 
HETATM    8  C8  UNL     1      35.480  30.109  17.897  1.00  0.00     0.006 C 
HETATM    9  C9  UNL     1      36.745  29.939  18.688  1.00  0.00     0.006 C 
HETATM   10  C10 UNL     1      36.595  29.078  19.904  1.00  0.00    -0.003 C 
HETATM   11  C11 UNL     1      37.917  28.370  20.245  1.00  0.00    -0.009 C 
HETATM   12  C12 UNL     1      38.202  27.230  19.331  1.00  0.00     0.005 C 
HETATM   13  C13 UNL     1      37.125  26.165  19.311  1.00  0.00     0.006 C 
HETATM   14  C14 UNL     1      36.048  26.685  20.301  1.00  0.00     0.004 C 
HETATM   15  C15 UNL     1      36.772  26.746  21.597  1.00  0.00     0.062 C 
HETATM   16  C18 UNL     1      37.731  27.944  21.689  1.00  0.00     0.017 C 
HETATM   17  C19 UNL     1      35.592  27.981  19.694  1.00  0.00     0.029 C 
HETATM   18  C20 UNL     1      34.170  28.348  19.918  1.00  0.00     0.062 C 
HETATM   19  C21 UNL     1      33.322  27.517  18.980  1.00  0.00     0.046 C 
ENDROOT
BRANCH  15  20
HETATM   20  C16 UNL     1      36.005  26.559  22.823  1.00  0.00     0.154 C 
HETATM   21  O1  UNL     1      35.412  25.514  23.009  1.00  0.00    -0.295 OA
BRANCH  20  22
HETATM   22  C17 UNL     1      35.941  27.627  23.838  1.00  0.00     0.242 C 
BRANCH  22  23
HETATM   23  O2  UNL     1      34.780  28.386  23.759  1.00  0.00    -0.394 OA
ATOM     24  H2  UNL     1      34.010  27.923  24.068  1.00  0.00     0.209 HD
ENDBRANCH  22  23
ENDBRANCH  20  22
ENDBRANCH  15  20
BRANCH  18  25
HETATM   25  O3  UNL     1      33.684  27.957  21.196  1.00  0.00    -0.389 OA
ATOM     26  H3  UNL     1      34.445  27.588  21.627  1.00  0.00     0.210 HD
ENDBRANCH  18  25
TORSDOF 4
ENDMDL
MODEL 4
REMARK VINA RESULT: -7.573802002      2.668      5.823
REMARK  4 active torsions:
REMARK  status: ('A' for Active; 'I' for Inactive)
REMARK    1  A    between atoms: C15_15  and  C16_16 
REMARK    2  A    between atoms: C16_16  and  C17_18 
REMARK    3  A    between atoms: C17_18  and  O2_19 
REMARK    4  A    between atoms: C20_23  and  O3_25 
ROOT
HETATM    1  C1  UNL     1      32.617  31.382  19.758  1.00  0.00     0.010 C 
HETATM    2  C2  UNL     1      31.906  30.098  19.936  1.00  0.00    -0.014 C 
HETATM    3  C3  UNL     1      31.151  29.720  18.676  1.00  0.00     0.005 C 
HETATM    4  C4  UNL     1      31.604  28.379  18.127  1.00  0.00     0.001 C 
HETATM    5  C5  UNL     1      33.139  28.458  18.126  1.00  0.00     0.008 C 
HETATM    6  C6  UNL     1      33.598  28.257  19.565  1.00  0.00     0.024 C 
HETATM    7  C7  UNL     1      32.715  28.947  20.482  1.00  0.00    -0.004 C 
HETATM    8  C8  UNL     1      33.257  29.347  21.831  1.00  0.00     0.006 C 
HETATM    9  C9  UNL     1      33.754  28.181  22.636  1.00  0.00     0.006 C 
HETATM   10  C10 UNL     1      34.762  27.332  21.925  1.00  0.00    -0.003 C 
HETATM   11  C11 UNL     1      35.720  26.662  22.923  1.00  0.00    -0.009 C 
HETATM   12  C12 UNL     1      36.731  27.611  23.465  1.00  0.00     0.005 C 
HETATM   13  C13 UNL     1      37.590  28.275  22.409  1.00  0.00     0.006 C 
HETATM   14  C14 UNL     1      37.066  27.697  21.065  1.00  0.00     0.004 C 
HETATM   15  C15 UNL     1      37.332  26.240  21.190  1.00  0.00     0.062 C 
HETATM   16  C18 UNL     1      36.335  25.530  22.122  1.00  0.00     0.017 C 
HETATM   17  C19 UNL     1      35.634  28.144  21.011  1.00  0.00     0.029 C 
HETATM   18  C20 UNL     1      35.081  28.420  19.660  1.00  0.00     0.062 C 
HETATM   19  C21 UNL     1      35.603  29.767  19.211  1.00  0.00     0.046 C 
ENDROOT
BRANCH  15  20
HETATM   20  C16 UNL     1      37.585  25.480  19.972  1.00  0.00     0.154 C 
HETATM   21  O1  UNL     1      37.831  26.067  18.936  1.00  0.00    -0.295 OA
BRANCH  20  22
HETATM   22  C17 UNL     1      37.545  24.006  19.985  1.00  0.00     0.242 C 
BRANCH  22  23
HETATM   23  O2  UNL     1      38.727  23.432  20.439  1.00  0.00    -0.394 OA
ATOM     24  H2  UNL     1      38.992  23.752  21.293  1.00  0.00     0.209 HD
ENDBRANCH  22  23
ENDBRANCH  20  22
ENDBRANCH  15  20
BRANCH  18  25
HETATM   25  O3  UNL     1      35.587  27.547  18.658  1.00  0.00    -0.389 OA
ATOM     26  H3  UNL     1      36.063  26.887  19.148  1.00  0.00     0.210 HD
ENDBRANCH  18  25
TORSDOF 4
ENDMDL
MODEL 5
REMARK VINA RESULT: -7.318742285      2.587      6.121
REMARK  4 active torsions:
REMARK  status: ('A' for Active; 'I' for Inactive)
REMARK    1  A    between atoms: C15_15  and  C16_16 
REMARK    2  A    between atoms: C16_16  and  C17_18 
REMARK    3  A    between atoms: C17_18  and  O2_19 
REMARK    4  A    between atoms: C20_23  and  O3_25 
ROOT
HETATM    1  C1  UNL     1      33.376  31.197  17.760  1.00  0.00     0.010 C 
HETATM    2  C2  UNL     1      33.325  31.389  19.226  1.00  0.00    -0.014 C 
HETATM    3  C3  UNL     1      31.897  31.592  19.695  1.00  0.00     0.005 C 
HETATM    4  C4  UNL     1      31.479  30.539  20.706  1.00  0.00     0.001 C 
HETATM    5  C5  UNL     1      31.917  29.205  20.081  1.00  0.00     0.008 C 
HETATM    6  C6  UNL     1      33.424  29.093  20.277  1.00  0.00     0.024 C 
HETATM    7  C7  UNL     1      34.062  30.375  20.066  1.00  0.00    -0.004 C 
HETATM    8  C8  UNL     1      35.514  30.394  19.665  1.00  0.00     0.006 C 
HETATM    9  C9  UNL     1      36.411  29.719  20.663  1.00  0.00     0.006 C 
HETATM   10  C10 UNL     1      36.004  28.318  21.000  1.00  0.00    -0.003 C 
HETATM   11  C11 UNL     1      37.224  27.470  21.398  1.00  0.00    -0.009 C 
HETATM   12  C12 UNL     1      38.045  27.072  20.222  1.00  0.00     0.005 C 
HETATM   13  C13 UNL     1      37.287  26.286  19.171  1.00  0.00     0.006 C 
HETATM   14  C14 UNL     1      35.842  26.186  19.732  1.00  0.00     0.004 C 
HETATM   15  C15 UNL     1      36.016  25.431  21.000  1.00  0.00     0.062 C 
HETATM   16  C18 UNL     1      36.614  26.288  22.128  1.00  0.00     0.017 C 
HETATM   17  C19 UNL     1      35.389  27.614  19.826  1.00  0.00     0.029 C 
HETATM   18  C20 UNL     1      33.940  27.861  19.606  1.00  0.00     0.062 C 
HETATM   19  C21 UNL     1      33.678  27.791  18.117  1.00  0.00     0.046 C 
ENDROOT
BRANCH  15  20
HETATM   20  C16 UNL     1      34.909  24.603  21.464  1.00  0.00     0.154 C 
HETATM   21  O1  UNL     1      34.125  25.048  22.280  1.00  0.00    -0.295 OA
BRANCH  20  22
HETATM   22  C17 UNL     1      34.733  23.230  20.954  1.00  0.00     0.242 C 
BRANCH  22  23
HETATM   23  O2  UNL     1      34.961  22.256  21.919  1.00  0.00    -0.394 OA
ATOM     24  H2  UNL     1      34.489  21.449  21.752  1.00  0.00     0.209 HD
ENDBRANCH  22  23
ENDBRANCH  20  22
ENDBRANCH  15  20
BRANCH  18  25
HETATM   25  O3  UNL     1      33.111  26.822  20.111  1.00  0.00    -0.389 OA
ATOM     26  H3  UNL     1      33.189  26.904  21.054  1.00  0.00     0.210 HD
ENDBRANCH  18  25
TORSDOF 4
ENDMDL
