MODEL 1
REMARK VINA RESULT: -7.065291203      0.000      0.000
REMARK  2 active torsions:
REMARK  status: ('A' for Active; 'I' for Inactive)
REMARK    1  A    between atoms: N1_1  and  C1_4 
REMARK    2  A    between atoms: C4_15  and  N6_16 
ROOT
HETATM    1  C1  UNL     1       8.419  19.965  36.561  1.00  0.00     0.679 A 
HETATM    2  N2  UNL     1       7.801  19.556  37.680  1.00  0.00    -0.173 N 
ATOM      3  H2  UNL     1       8.213  18.807  38.237  1.00  0.00     0.186 HD
HETATM    4  C2  UNL     1       6.653  20.119  38.076  1.00  0.00     0.169 A 
HETATM    5  N3  UNL     1       5.853  19.899  39.135  1.00  0.00    -0.268 N 
ATOM      6  H3  UNL     1       5.992  19.213  39.876  1.00  0.00     0.190 HD
HETATM    7  N4  UNL     1       4.857  20.746  39.019  1.00  0.00    -0.240 N 
ATOM      8  H4  UNL     1       4.081  20.818  39.678  1.00  0.00     0.208 HD
HETATM    9  N5  UNL     1       4.991  21.495  37.937  1.00  0.00    -0.279 N 
ATOM     10  H5  UNL     1       4.344  22.224  37.636  1.00  0.00     0.189 HD
HETATM   11  C3  UNL     1       6.121  21.137  37.295  1.00  0.00     0.140 A 
HETATM   12  C4  UNL     1       6.741  21.570  36.144  1.00  0.00     0.158 A 
HETATM   13  N7  UNL     1       7.902  20.950  35.809  1.00  0.00    -0.174 N 
ATOM     14  H7  UNL     1       8.393  21.240  34.964  1.00  0.00     0.186 HD
ENDROOT
BRANCH  12  15
HETATM   15  N6  UNL     1       6.156  22.611  35.389  1.00  0.00    -0.301 N 
HETATM   16  C5  UNL     1       5.537  22.378  34.099  1.00  0.00     0.134 C 
HETATM   17  C6  UNL     1       4.876  23.649  33.688  1.00  0.00     0.029 C 
HETATM   18  C7  UNL     1       4.887  24.521  34.903  1.00  0.00     0.105 C 
HETATM   19  C8  UNL     1       6.042  23.992  35.670  1.00  0.00     0.225 C 
HETATM   20  O1  UNL     1       6.807  24.623  36.442  1.00  0.00    -0.273 OA
ENDBRANCH  12  15
BRANCH   1  21
HETATM   21  N1  UNL     1       9.517  19.383  36.239  1.00  0.00    -0.234 N 
ATOM     22  H12 UNL     1      10.161  19.033  36.948  1.00  0.00     0.174 HD
ATOM     23  H11 UNL     1       9.726  19.281  35.246  1.00  0.00     0.174 HD
ENDBRANCH   1  21
TORSDOF 2
ENDMDL
MODEL 2
REMARK VINA RESULT: -6.974430629      0.725      2.755
REMARK  2 active torsions:
REMARK  status: ('A' for Active; 'I' for Inactive)
REMARK    1  A    between atoms: N1_1  and  C1_4 
REMARK    2  A    between atoms: C4_15  and  N6_16 
ROOT
HETATM    1  C1  UNL     1       5.468  20.819  38.930  1.00  0.00     0.679 A 
HETATM    2  N2  UNL     1       6.542  20.016  38.878  1.00  0.00    -0.173 N 
ATOM      3  H2  UNL     1       6.725  19.369  39.645  1.00  0.00     0.186 HD
HETATM    4  C2  UNL     1       7.378  20.054  37.833  1.00  0.00     0.169 A 
HETATM    5  N3  UNL     1       8.500  19.370  37.544  1.00  0.00    -0.268 N 
ATOM      6  H3  UNL     1       8.942  18.649  38.113  1.00  0.00     0.190 HD
HETATM    7  N4  UNL     1       8.909  19.818  36.380  1.00  0.00    -0.240 N 
ATOM      8  H4  UNL     1       9.744  19.488  35.895  1.00  0.00     0.208 HD
HETATM    9  N5  UNL     1       8.096  20.754  35.918  1.00  0.00    -0.279 N 
ATOM     10  H5  UNL     1       8.206  21.250  35.033  1.00  0.00     0.189 HD
HETATM   11  C3  UNL     1       7.100  20.946  36.805  1.00  0.00     0.140 A 
HETATM   12  C4  UNL     1       6.002  21.777  36.841  1.00  0.00     0.158 A 
HETATM   13  N7  UNL     1       5.203  21.680  37.934  1.00  0.00    -0.174 N 
ATOM     14  H7  UNL     1       4.378  22.277  38.001  1.00  0.00     0.186 HD
ENDROOT
BRANCH  12  15
HETATM   15  N6  UNL     1       5.767  22.664  35.767  1.00  0.00    -0.301 N 
HETATM   16  C5  UNL     1       5.351  22.203  34.458  1.00  0.00     0.134 C 
HETATM   17  C6  UNL     1       5.025  23.408  33.645  1.00  0.00     0.029 C 
HETATM   18  C7  UNL     1       4.987  24.548  34.612  1.00  0.00     0.105 C 
HETATM   19  C8  UNL     1       5.868  24.073  35.707  1.00  0.00     0.225 C 
HETATM   20  O1  UNL     1       6.592  24.764  36.467  1.00  0.00    -0.273 OA
ENDBRANCH  12  15
BRANCH   1  21
HETATM   21  N1  UNL     1       4.708  20.732  39.960  1.00  0.00    -0.234 N 
ATOM     22  H12 UNL     1       5.087  20.774  40.906  1.00  0.00     0.174 HD
ATOM     23  H11 UNL     1       3.706  20.621  39.803  1.00  0.00     0.174 HD
ENDBRANCH   1  21
TORSDOF 2
ENDMDL
MODEL 3
REMARK VINA RESULT: -6.827354398      1.200      1.225
REMARK  2 active torsions:
REMARK  status: ('A' for Active; 'I' for Inactive)
REMARK    1  A    between atoms: N1_1  and  C1_4 
REMARK    2  A    between atoms: C4_15  and  N6_16 
ROOT
HETATM    1  C1  UNL     1       7.643  18.833  35.900  1.00  0.00     0.679 A 
HETATM    2  N2  UNL     1       7.653  18.675  37.232  1.00  0.00    -0.173 N 
ATOM      3  H2  UNL     1       7.960  17.788  37.632  1.00  0.00     0.186 HD
HETATM    4  C2  UNL     1       7.266  19.666  38.045  1.00  0.00     0.169 A 
HETATM    5  N3  UNL     1       7.186  19.762  39.384  1.00  0.00    -0.268 N 
ATOM      6  H3  UNL     1       7.423  19.041  40.066  1.00  0.00     0.190 HD
HETATM    7  N4  UNL     1       6.739  20.971  39.636  1.00  0.00    -0.240 N 
ATOM      8  H4  UNL     1       6.572  21.340  40.572  1.00  0.00     0.208 HD
HETATM    9  N5  UNL     1       6.535  21.646  38.517  1.00  0.00    -0.279 N 
ATOM     10  H5  UNL     1       6.191  22.604  38.457  1.00  0.00     0.189 HD
HETATM   11  C3  UNL     1       6.855  20.861  37.468  1.00  0.00     0.140 A 
HETATM   12  C4  UNL     1       6.838  21.042  36.103  1.00  0.00     0.158 A 
HETATM   13  N7  UNL     1       7.245  19.990  35.346  1.00  0.00    -0.174 N 
ATOM     14  H7  UNL     1       7.247  20.082  34.330  1.00  0.00     0.186 HD
ENDROOT
BRANCH  12  15
HETATM   15  N6  UNL     1       6.412  22.279  35.571  1.00  0.00    -0.301 N 
HETATM   16  C5  UNL     1       5.610  22.369  34.366  1.00  0.00     0.134 C 
HETATM   17  C6  UNL     1       5.201  23.793  34.211  1.00  0.00     0.029 C 
HETATM   18  C7  UNL     1       5.545  24.456  35.506  1.00  0.00     0.105 C 
HETATM   19  C8  UNL     1       6.637  23.598  36.028  1.00  0.00     0.225 C 
HETATM   20  O1  UNL     1       7.608  23.940  36.749  1.00  0.00    -0.273 OA
ENDBRANCH  12  15
BRANCH   1  21
HETATM   21  N1  UNL     1       8.026  17.843  35.178  1.00  0.00    -0.234 N 
ATOM     22  H12 UNL     1       7.649  16.906  35.319  1.00  0.00     0.174 HD
ATOM     23  H11 UNL     1       8.722  18.025  34.455  1.00  0.00     0.174 HD
ENDBRANCH   1  21
TORSDOF 2
ENDMDL
MODEL 4
REMARK VINA RESULT: -6.689775960      1.250      3.016
REMARK  2 active torsions:
REMARK  status: ('A' for Active; 'I' for Inactive)
REMARK    1  A    between atoms: N1_1  and  C1_4 
REMARK    2  A    between atoms: C4_15  and  N6_16 
ROOT
HETATM    1  C1  UNL     1       5.225  21.237  39.992  1.00  0.00     0.679 A 
HETATM    2  N2  UNL     1       6.102  20.222  40.034  1.00  0.00    -0.173 N 
ATOM      3  H2  UNL     1       6.170  19.649  40.875  1.00  0.00     0.186 HD
HETATM    4  C2  UNL     1       6.889  19.951  38.985  1.00  0.00     0.169 A 
HETATM    5  N3  UNL     1       7.829  19.012  38.776  1.00  0.00    -0.268 N 
ATOM      6  H3  UNL     1       8.129  18.288  39.429  1.00  0.00     0.190 HD
HETATM    7  N4  UNL     1       8.283  19.217  37.561  1.00  0.00    -0.240 N 
ATOM      8  H4  UNL     1       9.011  18.658  37.116  1.00  0.00     0.208 HD
HETATM    9  N5  UNL     1       7.671  20.241  36.991  1.00  0.00    -0.279 N 
ATOM     10  H5  UNL     1       7.852  20.591  36.049  1.00  0.00     0.189 HD
HETATM   11  C3  UNL     1       6.770  20.750  37.855  1.00  0.00     0.140 A 
HETATM   12  C4  UNL     1       5.876  21.795  37.794  1.00  0.00     0.158 A 
HETATM   13  N7  UNL     1       5.113  22.006  38.897  1.00  0.00    -0.174 N 
ATOM     14  H7  UNL     1       4.437  22.770  38.894  1.00  0.00     0.186 HD
ENDROOT
BRANCH  12  15
HETATM   15  N6  UNL     1       5.796  22.574  36.618  1.00  0.00    -0.301 N 
HETATM   16  C5  UNL     1       5.056  22.140  35.450  1.00  0.00     0.134 C 
HETATM   17  C6  UNL     1       5.039  23.277  34.487  1.00  0.00     0.029 C 
HETATM   18  C7  UNL     1       5.536  24.461  35.253  1.00  0.00     0.105 C 
HETATM   19  C8  UNL     1       6.359  23.836  36.318  1.00  0.00     0.225 C 
HETATM   20  O1  UNL     1       7.379  24.307  36.879  1.00  0.00    -0.273 OA
ENDBRANCH  12  15
BRANCH   1  21
HETATM   21  N1  UNL     1       4.500  21.442  41.031  1.00  0.00    -0.234 N 
ATOM     22  H12 UNL     1       4.718  21.003  41.926  1.00  0.00     0.174 HD
ATOM     23  H11 UNL     1       3.696  22.063  40.934  1.00  0.00     0.174 HD
ENDBRANCH   1  21
TORSDOF 2
ENDMDL
MODEL 5
REMARK VINA RESULT: -6.653826269      2.522      4.577
REMARK  2 active torsions:
REMARK  status: ('A' for Active; 'I' for Inactive)
REMARK    1  A    between atoms: N1_1  and  C1_4 
REMARK    2  A    between atoms: C4_15  and  N6_16 
ROOT
HETATM    1  C1  UNL     1       5.082  23.639  33.810  1.00  0.00     0.679 A 
HETATM    2  N2  UNL     1       5.169  24.305  34.971  1.00  0.00    -0.173 N 
ATOM      3  H2  UNL     1       4.952  25.302  34.996  1.00  0.00     0.186 HD
HETATM    4  C2  UNL     1       5.536  23.681  36.096  1.00  0.00     0.169 A 
HETATM    5  N3  UNL     1       5.696  24.110  37.361  1.00  0.00    -0.268 N 
ATOM      6  H3  UNL     1       5.555  25.058  37.709  1.00  0.00     0.190 HD
HETATM    7  N4  UNL     1       6.070  23.061  38.056  1.00  0.00    -0.240 N 
ATOM      8  H4  UNL     1       6.271  23.073  39.056  1.00  0.00     0.208 HD
HETATM    9  N5  UNL     1       6.153  21.986  37.289  1.00  0.00    -0.279 N 
ATOM     10  H5  UNL     1       6.423  21.054  37.603  1.00  0.00     0.189 HD
HETATM   11  C3  UNL     1       5.823  22.323  36.027  1.00  0.00     0.140 A 
HETATM   12  C4  UNL     1       5.738  21.622  34.845  1.00  0.00     0.158 A 
HETATM   13  N7  UNL     1       5.359  22.326  33.747  1.00  0.00    -0.174 N 
ATOM     14  H7  UNL     1       5.284  21.844  32.850  1.00  0.00     0.186 HD
ENDROOT
BRANCH  12  15
HETATM   15  N6  UNL     1       6.039  20.242  34.832  1.00  0.00    -0.301 N 
HETATM   16  C5  UNL     1       5.039  19.233  34.547  1.00  0.00     0.134 C 
HETATM   17  C6  UNL     1       5.745  17.925  34.440  1.00  0.00     0.029 C 
HETATM   18  C7  UNL     1       7.202  18.256  34.383  1.00  0.00     0.105 C 
HETATM   19  C8  UNL     1       7.262  19.571  35.069  1.00  0.00     0.225 C 
HETATM   20  O1  UNL     1       8.207  20.042  35.748  1.00  0.00    -0.273 OA
ENDBRANCH  12  15
BRANCH   1  21
HETATM   21  N1  UNL     1       4.724  24.297  32.768  1.00  0.00    -0.234 N 
ATOM     22  H12 UNL     1       4.596  23.837  31.866  1.00  0.00     0.174 HD
ATOM     23  H11 UNL     1       4.569  25.300  32.870  1.00  0.00     0.174 HD
ENDBRANCH   1  21
TORSDOF 2
ENDMDL
