MODEL 1
REMARK VINA RESULT: -6.676635984      0.000      0.000
REMARK  2 active torsions:
REMARK  status: ('A' for Active; 'I' for Inactive)
REMARK    1  A    between atoms: N1_1  and  N2_4 
REMARK    2  A    between atoms: C6_14  and  N4_15 
ROOT
HETATM    1  N2  UNL     1       5.996  19.913  35.192  1.00  0.00    -0.220 N 
HETATM    2  C1  UNL     1       6.731  19.199  36.051  1.00  0.00     0.334 A 
HETATM    3  O1  UNL     1       6.677  17.930  35.976  1.00  0.00    -0.260 OA
HETATM    4  C2  UNL     1       7.536  19.780  37.004  1.00  0.00     0.316 A 
HETATM    5  O2  UNL     1       8.211  19.074  37.794  1.00  0.00    -0.262 OA
HETATM    6  N3  UNL     1       7.618  21.110  37.113  1.00  0.00    -0.317 N 
ATOM      7  H3  UNL     1       8.210  21.551  37.816  1.00  0.00     0.169 HD
HETATM    8  C3  UNL     1       6.875  21.850  36.245  1.00  0.00     0.064 A 
HETATM    9  C4  UNL     1       6.911  23.236  36.301  1.00  0.00     0.034 A 
HETATM   10  C5  UNL     1       6.161  23.978  35.423  1.00  0.00     0.038 A 
HETATM   11  C6  UNL     1       5.341  23.405  34.453  1.00  0.00     0.105 A 
HETATM   12  C7  UNL     1       5.321  22.026  34.416  1.00  0.00     0.070 A 
HETATM   13  C8  UNL     1       6.069  21.270  35.291  1.00  0.00     0.088 A 
ENDROOT
BRANCH   1  14
HETATM   14  N1  UNL     1       5.178  19.345  34.224  1.00  0.00    -0.335 N 
ATOM     15  H12 UNL     1       5.316  18.368  33.964  1.00  0.00     0.177 HD
ATOM     16  H11 UNL     1       4.433  19.852  33.746  1.00  0.00     0.177 HD
ENDBRANCH   1  14
BRANCH  11  17
HETATM   17  N4  UNL     1       4.582  24.202  33.565  1.00  0.00    -0.116 N 
HETATM   18  O3  UNL     1       3.541  24.752  33.933  1.00  0.00    -0.532 OA
HETATM   19  O4  UNL     1       5.009  24.363  32.282  1.00  0.00    -0.532 OA
ENDBRANCH  11  17
TORSDOF 2
ENDMDL
MODEL 2
REMARK VINA RESULT: -6.266621421      2.130      3.022
REMARK  2 active torsions:
REMARK  status: ('A' for Active; 'I' for Inactive)
REMARK    1  A    between atoms: N1_1  and  N2_4 
REMARK    2  A    between atoms: C6_14  and  N4_15 
ROOT
HETATM    1  N2  UNL     1       5.882  20.803  38.776  1.00  0.00    -0.220 N 
HETATM    2  C1  UNL     1       6.596  19.931  39.494  1.00  0.00     0.334 A 
HETATM    3  O1  UNL     1       6.297  19.777  40.721  1.00  0.00    -0.260 OA
HETATM    4  C2  UNL     1       7.633  19.199  38.960  1.00  0.00     0.316 A 
HETATM    5  O2  UNL     1       8.280  18.389  39.669  1.00  0.00    -0.262 OA
HETATM    6  N3  UNL     1       7.975  19.334  37.675  1.00  0.00    -0.317 N 
ATOM      7  H3  UNL     1       8.742  18.798  37.269  1.00  0.00     0.169 HD
HETATM    8  C3  UNL     1       7.256  20.218  36.931  1.00  0.00     0.064 A 
HETATM    9  C4  UNL     1       7.557  20.409  35.590  1.00  0.00     0.034 A 
HETATM   10  C5  UNL     1       6.829  21.303  34.844  1.00  0.00     0.038 A 
HETATM   11  C6  UNL     1       5.778  22.050  35.370  1.00  0.00     0.105 A 
HETATM   12  C7  UNL     1       5.496  21.844  36.704  1.00  0.00     0.070 A 
HETATM   13  C8  UNL     1       6.219  20.951  37.464  1.00  0.00     0.088 A 
ENDROOT
BRANCH   1  14
HETATM   14  N1  UNL     1       4.832  21.550  39.296  1.00  0.00    -0.335 N 
ATOM     15  H12 UNL     1       3.921  21.109  39.425  1.00  0.00     0.177 HD
ATOM     16  H11 UNL     1       4.916  22.530  39.563  1.00  0.00     0.177 HD
ENDBRANCH   1  14
BRANCH  11  17
HETATM   17  N4  UNL     1       5.050  22.962  34.570  1.00  0.00    -0.116 N 
HETATM   18  O3  UNL     1       5.295  23.093  33.368  1.00  0.00    -0.532 OA
HETATM   19  O4  UNL     1       4.062  23.707  35.139  1.00  0.00    -0.532 OA
ENDBRANCH  11  17
TORSDOF 2
ENDMDL
MODEL 3
REMARK VINA RESULT: -6.215467415      2.045      3.077
REMARK  2 active torsions:
REMARK  status: ('A' for Active; 'I' for Inactive)
REMARK    1  A    between atoms: N1_1  and  N2_4 
REMARK    2  A    between atoms: C6_14  and  N4_15 
ROOT
HETATM    1  N2  UNL     1       7.605  19.698  35.902  1.00  0.00    -0.220 N 
HETATM    2  C1  UNL     1       7.271  18.492  35.435  1.00  0.00     0.334 A 
HETATM    3  O1  UNL     1       8.008  17.502  35.745  1.00  0.00    -0.260 OA
HETATM    4  C2  UNL     1       6.167  18.281  34.638  1.00  0.00     0.316 A 
HETATM    5  O2  UNL     1       5.887  17.131  34.219  1.00  0.00    -0.262 OA
HETATM    6  N3  UNL     1       5.370  19.296  34.292  1.00  0.00    -0.317 N 
ATOM      7  H3  UNL     1       4.551  19.153  33.701  1.00  0.00     0.169 HD
HETATM    8  C3  UNL     1       5.698  20.531  34.761  1.00  0.00     0.064 A 
HETATM    9  C4  UNL     1       4.915  21.630  34.441  1.00  0.00     0.034 A 
HETATM   10  C5  UNL     1       5.251  22.874  34.917  1.00  0.00     0.038 A 
HETATM   11  C6  UNL     1       6.363  23.103  35.723  1.00  0.00     0.105 A 
HETATM   12  C7  UNL     1       7.127  21.996  36.029  1.00  0.00     0.070 A 
HETATM   13  C8  UNL     1       6.801  20.742  35.558  1.00  0.00     0.088 A 
ENDROOT
BRANCH   1  14
HETATM   14  N1  UNL     1       8.714  19.930  36.707  1.00  0.00    -0.335 N 
ATOM     15  H12 UNL     1       9.425  19.204  36.800  1.00  0.00     0.177 HD
ATOM     16  H11 UNL     1       8.866  20.798  37.221  1.00  0.00     0.177 HD
ENDBRANCH   1  14
BRANCH  11  17
HETATM   17  N4  UNL     1       6.677  24.399  36.195  1.00  0.00    -0.116 N 
HETATM   18  O3  UNL     1       7.545  24.572  37.054  1.00  0.00    -0.532 OA
HETATM   19  O4  UNL     1       6.009  25.473  35.689  1.00  0.00    -0.532 OA
ENDBRANCH  11  17
TORSDOF 2
ENDMDL
MODEL 4
REMARK VINA RESULT: -6.214992391      1.544      1.776
REMARK  2 active torsions:
REMARK  status: ('A' for Active; 'I' for Inactive)
REMARK    1  A    between atoms: N1_1  and  N2_4 
REMARK    2  A    between atoms: C6_14  and  N4_15 
ROOT
HETATM    1  N2  UNL     1       4.972  19.575  36.929  1.00  0.00    -0.220 N 
HETATM    2  C1  UNL     1       5.691  18.785  37.733  1.00  0.00     0.334 A 
HETATM    3  O1  UNL     1       5.132  17.746  38.210  1.00  0.00    -0.260 OA
HETATM    4  C2  UNL     1       7.001  19.051  38.061  1.00  0.00     0.316 A 
HETATM    5  O2  UNL     1       7.643  18.284  38.821  1.00  0.00    -0.262 OA
HETATM    6  N3  UNL     1       7.621  20.133  37.580  1.00  0.00    -0.317 N 
ATOM      7  H3  UNL     1       8.591  20.341  37.817  1.00  0.00     0.169 HD
HETATM    8  C3  UNL     1       6.902  20.947  36.759  1.00  0.00     0.064 A 
HETATM    9  C4  UNL     1       7.482  22.087  36.223  1.00  0.00     0.034 A 
HETATM   10  C5  UNL     1       6.752  22.904  35.396  1.00  0.00     0.038 A 
HETATM   11  C6  UNL     1       5.426  22.649  35.055  1.00  0.00     0.105 A 
HETATM   12  C7  UNL     1       4.870  21.510  35.599  1.00  0.00     0.070 A 
HETATM   13  C8  UNL     1       5.591  20.681  36.430  1.00  0.00     0.088 A 
ENDROOT
BRANCH   1  14
HETATM   14  N1  UNL     1       3.650  19.323  36.586  1.00  0.00    -0.335 N 
ATOM     15  H12 UNL     1       2.975  19.108  37.321  1.00  0.00     0.177 HD
ATOM     16  H11 UNL     1       3.302  19.341  35.627  1.00  0.00     0.177 HD
ENDBRANCH   1  14
BRANCH  11  17
HETATM   17  N4  UNL     1       4.705  23.515  34.199  1.00  0.00    -0.116 N 
HETATM   18  O3  UNL     1       5.006  23.631  33.009  1.00  0.00    -0.532 OA
HETATM   19  O4  UNL     1       3.661  24.231  34.701  1.00  0.00    -0.532 OA
ENDBRANCH  11  17
TORSDOF 2
ENDMDL
MODEL 5
REMARK VINA RESULT: -5.961045437      1.937      4.851
REMARK  2 active torsions:
REMARK  status: ('A' for Active; 'I' for Inactive)
REMARK    1  A    between atoms: N1_1  and  N2_4 
REMARK    2  A    between atoms: C6_14  and  N4_15 
ROOT
HETATM    1  N2  UNL     1       5.885  22.444  34.885  1.00  0.00    -0.220 N 
HETATM    2  C1  UNL     1       6.233  23.593  35.472  1.00  0.00     0.334 A 
HETATM    3  O1  UNL     1       5.785  24.678  34.979  1.00  0.00    -0.260 OA
HETATM    4  C2  UNL     1       7.050  23.647  36.579  1.00  0.00     0.316 A 
HETATM    5  O2  UNL     1       7.354  24.748  37.101  1.00  0.00    -0.262 OA
HETATM    6  N3  UNL     1       7.539  22.529  37.124  1.00  0.00    -0.317 N 
ATOM      7  H3  UNL     1       8.146  22.557  37.943  1.00  0.00     0.169 HD
HETATM    8  C3  UNL     1       7.193  21.351  36.537  1.00  0.00     0.064 A 
HETATM    9  C4  UNL     1       7.664  20.151  37.049  1.00  0.00     0.034 A 
HETATM   10  C5  UNL     1       7.312  18.965  36.454  1.00  0.00     0.038 A 
HETATM   11  C6  UNL     1       6.487  18.894  35.334  1.00  0.00     0.105 A 
HETATM   12  C7  UNL     1       6.030  20.098  34.842  1.00  0.00     0.070 A 
HETATM   13  C8  UNL     1       6.376  21.295  35.430  1.00  0.00     0.088 A 
ENDROOT
BRANCH   1  14
HETATM   14  N1  UNL     1       5.062  22.369  33.769  1.00  0.00    -0.335 N 
ATOM     15  H12 UNL     1       4.955  23.189  33.171  1.00  0.00     0.177 HD
ATOM     16  H11 UNL     1       4.548  21.529  33.502  1.00  0.00     0.177 HD
ENDBRANCH   1  14
BRANCH  11  17
HETATM   17  N4  UNL     1       6.146  17.652  34.748  1.00  0.00    -0.116 N 
HETATM   18  O3  UNL     1       5.907  17.561  33.542  1.00  0.00    -0.532 OA
HETATM   19  O4  UNL     1       6.081  16.540  35.532  1.00  0.00    -0.532 OA
ENDBRANCH  11  17
TORSDOF 2
ENDMDL
