MODEL 1
REMARK VINA RESULT: -6.860941707      0.000      0.000
REMARK  2 active torsions:
REMARK  status: ('A' for Active; 'I' for Inactive)
REMARK    1  A    between atoms: N1_1  and  C1_4 
REMARK    2  A    between atoms: C2_7  and  N3_8 
ROOT
HETATM    1  C1  UNL     1       6.610  23.791  36.158  1.00  0.00     0.727 A 
HETATM    2  N2  UNL     1       7.087  22.549  36.409  1.00  0.00    -0.020 N 
ATOM      3  H2  UNL     1       7.692  22.389  37.215  1.00  0.00     0.203 HD
HETATM    4  C2  UNL     1       6.767  21.529  35.600  1.00  0.00     0.709 A 
HETATM    5  N4  UNL     1       5.970  21.779  34.550  1.00  0.00    -0.019 N 
ATOM      6  H4  UNL     1       5.723  21.009  33.930  1.00  0.00     0.203 HD
HETATM    7  C7  UNL     1       5.483  23.006  34.282  1.00  0.00     0.737 A 
HETATM    8  N5  UNL     1       4.680  23.446  33.289  1.00  0.00    -0.137 N 
ATOM      9  H5  UNL     1       4.283  22.892  32.530  1.00  0.00     0.189 HD
HETATM   10  C8  UNL     1       4.509  24.770  33.503  1.00  0.00     0.354 A 
HETATM   11  O1  UNL     1       3.807  25.500  32.754  1.00  0.00    -0.245 OA
HETATM   12  N6  UNL     1       5.204  25.097  34.608  1.00  0.00    -0.215 N 
ATOM     13  H6  UNL     1       5.257  26.033  35.008  1.00  0.00     0.193 HD
HETATM   14  N7  UNL     1       5.816  24.015  35.104  1.00  0.00     0.095 N 
ENDROOT
BRANCH   4  15
HETATM   15  N3  UNL     1       7.236  20.208  35.812  1.00  0.00    -0.217 N 
HETATM   16  C3  UNL     1       7.432  19.494  37.058  1.00  0.00     0.141 C 
HETATM   17  C4  UNL     1       7.061  18.088  36.727  1.00  0.00     0.022 C 
HETATM   18  C5  UNL     1       6.871  18.022  35.212  1.00  0.00     0.022 C 
HETATM   19  C6  UNL     1       7.631  19.262  34.776  1.00  0.00     0.141 C 
ENDBRANCH   4  15
BRANCH   1  20
HETATM   20  N1  UNL     1       6.893  24.799  36.910  1.00  0.00    -0.232 N 
ATOM     21  H12 UNL     1       6.270  24.987  37.696  1.00  0.00     0.174 HD
ATOM     22  H11 UNL     1       7.705  25.393  36.738  1.00  0.00     0.174 HD
ENDBRANCH   1  20
TORSDOF 2
ENDMDL
MODEL 2
REMARK VINA RESULT: -6.786256058      2.505      3.909
REMARK  2 active torsions:
REMARK  status: ('A' for Active; 'I' for Inactive)
REMARK    1  A    between atoms: N1_1  and  C1_4 
REMARK    2  A    between atoms: C2_7  and  N3_8 
ROOT
HETATM    1  C1  UNL     1       8.108  19.989  36.041  1.00  0.00     0.727 A 
HETATM    2  N2  UNL     1       7.334  19.016  35.505  1.00  0.00    -0.020 N 
ATOM      3  H2  UNL     1       7.709  18.074  35.388  1.00  0.00     0.203 HD
HETATM    4  C2  UNL     1       6.077  19.288  35.127  1.00  0.00     0.709 A 
HETATM    5  N4  UNL     1       5.621  20.539  35.296  1.00  0.00    -0.019 N 
ATOM      6  H4  UNL     1       4.666  20.754  35.010  1.00  0.00     0.203 HD
HETATM    7  C7  UNL     1       6.373  21.521  35.828  1.00  0.00     0.737 A 
HETATM    8  N5  UNL     1       6.094  22.821  36.073  1.00  0.00    -0.137 N 
ATOM      9  H5  UNL     1       5.216  23.305  35.886  1.00  0.00     0.189 HD
HETATM   10  C8  UNL     1       7.214  23.349  36.615  1.00  0.00     0.354 A 
HETATM   11  O1  UNL     1       7.301  24.556  36.967  1.00  0.00    -0.245 OA
HETATM   12  N6  UNL     1       8.134  22.371  36.684  1.00  0.00    -0.215 N 
ATOM     13  H6  UNL     1       9.079  22.482  37.053  1.00  0.00     0.193 HD
HETATM   14  N7  UNL     1       7.631  21.229  36.199  1.00  0.00     0.095 N 
ENDROOT
BRANCH   4  15
HETATM   15  N3  UNL     1       5.220  18.312  34.560  1.00  0.00    -0.217 N 
HETATM   16  C3  UNL     1       3.790  18.143  34.724  1.00  0.00     0.141 C 
HETATM   17  C4  UNL     1       3.329  17.670  33.385  1.00  0.00     0.022 C 
HETATM   18  C5  UNL     1       4.583  17.378  32.562  1.00  0.00     0.022 C 
HETATM   19  C6  UNL     1       5.620  17.237  33.662  1.00  0.00     0.141 C 
ENDBRANCH   4  15
BRANCH   1  20
HETATM   20  N1  UNL     1       9.322  19.770  36.417  1.00  0.00    -0.232 N 
ATOM     21  H12 UNL     1       9.460  19.154  37.218  1.00  0.00     0.174 HD
ATOM     22  H11 UNL     1      10.121  20.191  35.942  1.00  0.00     0.174 HD
ENDBRANCH   1  20
TORSDOF 2
ENDMDL
MODEL 3
REMARK VINA RESULT: -6.430469541      1.747      2.804
REMARK  2 active torsions:
REMARK  status: ('A' for Active; 'I' for Inactive)
REMARK    1  A    between atoms: N1_1  and  C1_4 
REMARK    2  A    between atoms: C2_7  and  N3_8 
ROOT
HETATM    1  C1  UNL     1       5.296  23.167  34.051  1.00  0.00     0.727 A 
HETATM    2  N2  UNL     1       5.412  21.824  33.923  1.00  0.00    -0.020 N 
ATOM      3  H2  UNL     1       4.981  21.349  33.130  1.00  0.00     0.203 HD
HETATM    4  C2  UNL     1       6.092  21.117  34.838  1.00  0.00     0.709 A 
HETATM    5  N4  UNL     1       6.644  21.778  35.866  1.00  0.00    -0.019 N 
ATOM      6  H4  UNL     1       7.163  21.247  36.566  1.00  0.00     0.203 HD
HETATM    7  C7  UNL     1       6.542  23.112  36.013  1.00  0.00     0.737 A 
HETATM    8  N5  UNL     1       7.022  23.941  36.967  1.00  0.00    -0.137 N 
ATOM      9  H5  UNL     1       7.574  23.681  37.784  1.00  0.00     0.189 HD
HETATM   10  C8  UNL     1       6.621  25.184  36.620  1.00  0.00     0.354 A 
HETATM   11  O1  UNL     1       6.899  26.209  37.299  1.00  0.00    -0.245 OA
HETATM   12  N6  UNL     1       5.916  25.082  35.478  1.00  0.00    -0.215 N 
ATOM     13  H6  UNL     1       5.490  25.864  34.982  1.00  0.00     0.193 HD
HETATM   14  N7  UNL     1       5.856  23.803  35.087  1.00  0.00     0.095 N 
ENDROOT
BRANCH   4  15
HETATM   15  N3  UNL     1       6.248  19.711  34.757  1.00  0.00    -0.217 N 
HETATM   16  C3  UNL     1       7.418  18.901  35.033  1.00  0.00     0.141 C 
HETATM   17  C4  UNL     1       6.858  17.657  35.637  1.00  0.00     0.022 C 
HETATM   18  C5  UNL     1       5.340  17.728  35.475  1.00  0.00     0.022 C 
HETATM   19  C6  UNL     1       5.221  18.755  34.364  1.00  0.00     0.141 C 
ENDBRANCH   4  15
BRANCH   1  20
HETATM   20  N1  UNL     1       4.651  23.884  33.196  1.00  0.00    -0.232 N 
ATOM     21  H12 UNL     1       4.315  23.417  32.353  1.00  0.00     0.174 HD
ATOM     22  H11 UNL     1       4.476  24.878  33.344  1.00  0.00     0.174 HD
ENDBRANCH   1  20
TORSDOF 2
ENDMDL
MODEL 4
REMARK VINA RESULT: -6.410047566      3.083      5.833
REMARK  2 active torsions:
REMARK  status: ('A' for Active; 'I' for Inactive)
REMARK    1  A    between atoms: N1_1  and  C1_4 
REMARK    2  A    between atoms: C2_7  and  N3_8 
ROOT
HETATM    1  C1  UNL     1       8.134  19.775  36.089  1.00  0.00     0.727 A 
HETATM    2  N2  UNL     1       7.763  21.029  35.741  1.00  0.00    -0.020 N 
ATOM      3  H2  UNL     1       8.420  21.803  35.848  1.00  0.00     0.203 HD
HETATM    4  C2  UNL     1       6.534  21.258  35.255  1.00  0.00     0.709 A 
HETATM    5  N4  UNL     1       5.699  20.215  35.129  1.00  0.00    -0.019 N 
ATOM      6  H4  UNL     1       4.762  20.381  34.762  1.00  0.00     0.203 HD
HETATM    7  C7  UNL     1       6.047  18.959  35.469  1.00  0.00     0.737 A 
HETATM    8  N5  UNL     1       5.355  17.800  35.415  1.00  0.00    -0.137 N 
ATOM      9  H5  UNL     1       4.397  17.672  35.089  1.00  0.00     0.189 HD
HETATM   10  C8  UNL     1       6.188  16.844  35.881  1.00  0.00     0.354 A 
HETATM   11  O1  UNL     1       5.859  15.630  35.968  1.00  0.00    -0.245 OA
HETATM   12  N6  UNL     1       7.352  17.437  36.202  1.00  0.00    -0.215 N 
ATOM     13  H6  UNL     1       8.168  16.957  36.580  1.00  0.00     0.193 HD
HETATM   14  N7  UNL     1       7.282  18.751  35.954  1.00  0.00     0.095 N 
ENDROOT
BRANCH   4  15
HETATM   15  N3  UNL     1       6.089  22.548  34.874  1.00  0.00    -0.217 N 
HETATM   16  C3  UNL     1       5.278  22.939  33.738  1.00  0.00     0.141 C 
HETATM   17  C4  UNL     1       4.441  24.057  34.263  1.00  0.00     0.022 C 
HETATM   18  C5  UNL     1       4.981  24.403  35.651  1.00  0.00     0.022 C 
HETATM   19  C6  UNL     1       6.370  23.794  35.575  1.00  0.00     0.141 C 
ENDBRANCH   4  15
BRANCH   1  20
HETATM   20  N1  UNL     1       9.304  19.512  36.561  1.00  0.00    -0.232 N 
ATOM     21  H12 UNL     1       9.484  18.553  36.860  1.00  0.00     0.174 HD
ATOM     22  H11 UNL     1      10.030  20.224  36.638  1.00  0.00     0.174 HD
ENDBRANCH   1  20
TORSDOF 2
ENDMDL
MODEL 5
REMARK VINA RESULT: -6.398557129      2.480      3.912
REMARK  2 active torsions:
REMARK  status: ('A' for Active; 'I' for Inactive)
REMARK    1  A    between atoms: N1_1  and  C1_4 
REMARK    2  A    between atoms: C2_7  and  N3_8 
ROOT
HETATM    1  C1  UNL     1       8.086  19.955  36.030  1.00  0.00     0.727 A 
HETATM    2  N2  UNL     1       7.299  18.996  35.488  1.00  0.00    -0.020 N 
ATOM      3  H2  UNL     1       7.658  18.048  35.372  1.00  0.00     0.203 HD
HETATM    4  C2  UNL     1       6.049  19.289  35.103  1.00  0.00     0.709 A 
HETATM    5  N4  UNL     1       5.613  20.547  35.271  1.00  0.00    -0.019 N 
ATOM      6  H4  UNL     1       4.664  20.779  34.980  1.00  0.00     0.203 HD
HETATM    7  C7  UNL     1       6.378  21.516  35.808  1.00  0.00     0.737 A 
HETATM    8  N5  UNL     1       6.120  22.820  36.054  1.00  0.00    -0.137 N 
ATOM      9  H5  UNL     1       5.251  23.319  35.863  1.00  0.00     0.189 HD
HETATM   10  C8  UNL     1       7.245  23.329  36.603  1.00  0.00     0.354 A 
HETATM   11  O1  UNL     1       7.351  24.533  36.957  1.00  0.00    -0.245 OA
HETATM   12  N6  UNL     1       8.149  22.335  36.677  1.00  0.00    -0.215 N 
ATOM     13  H6  UNL     1       9.092  22.430  37.051  1.00  0.00     0.193 HD
HETATM   14  N7  UNL     1       7.629  21.203  36.187  1.00  0.00     0.095 N 
ENDROOT
BRANCH   4  15
HETATM   15  N3  UNL     1       5.179  18.329  34.530  1.00  0.00    -0.217 N 
HETATM   16  C3  UNL     1       5.480  17.259  33.599  1.00  0.00     0.141 C 
HETATM   17  C4  UNL     1       4.571  16.153  34.018  1.00  0.00     0.022 C 
HETATM   18  C5  UNL     1       3.616  16.732  35.061  1.00  0.00     0.022 C 
HETATM   19  C6  UNL     1       3.746  18.217  34.771  1.00  0.00     0.141 C 
ENDBRANCH   4  15
BRANCH   1  20
HETATM   20  N1  UNL     1       9.294  19.715  36.413  1.00  0.00    -0.232 N 
ATOM     21  H12 UNL     1       9.586  18.738  36.457  1.00  0.00     0.174 HD
ATOM     22  H11 UNL     1       9.941  20.462  36.664  1.00  0.00     0.174 HD
ENDBRANCH   1  20
TORSDOF 2
ENDMDL
