MODEL 1
REMARK VINA RESULT: -6.501432887      0.000      0.000
REMARK  1 active torsions:
REMARK  status: ('A' for Active; 'I' for Inactive)
REMARK    1  A    between atoms: C2_3  and  C3_4 
ROOT
HETATM    1  N1  UNL     1       8.649  20.323  36.165  1.00  0.00    -0.192 NA
HETATM    2  C1  UNL     1       7.680  20.793  36.585  1.00  0.00     0.119 C 
HETATM    3  C2  UNL     1       6.442  21.413  37.116  1.00  0.00     0.229 A 
HETATM    4  N2  UNL     1       6.804  22.133  38.291  1.00  0.00    -0.322 N 
ATOM      5  H2  UNL     1       7.519  22.856  38.214  1.00  0.00     0.166 HD
HETATM    6  C9  UNL     1       6.280  21.920  39.439  1.00  0.00     0.193 A 
HETATM    7  N3  UNL     1       6.731  22.706  40.528  1.00  0.00    -0.063 NA
HETATM    8  N4  UNL     1       5.285  20.928  39.597  1.00  0.00    -0.305 N 
ATOM      9  H4  UNL     1       4.879  20.775  40.520  1.00  0.00     0.171 HD
HETATM   10  C10 UNL     1       4.878  20.216  38.609  1.00  0.00     0.193 A 
HETATM   11  N5  UNL     1       3.878  19.221  38.773  1.00  0.00    -0.063 NA
HETATM   12  N6  UNL     1       5.427  20.416  37.326  1.00  0.00    -0.322 N 
ATOM     13  H6  UNL     1       5.102  19.850  36.543  1.00  0.00     0.166 HD
ENDROOT
BRANCH   3  14
HETATM   14  C3  UNL     1       5.965  22.354  36.064  1.00  0.00     0.005 A 
HETATM   15  C4  UNL     1       5.654  21.870  34.811  1.00  0.00     0.012 A 
HETATM   16  C5  UNL     1       5.212  22.708  33.819  1.00  0.00     0.001 A 
HETATM   17  C6  UNL     1       5.054  24.065  34.010  1.00  0.00     0.000 A 
HETATM   18  C7  UNL     1       5.373  24.528  35.278  1.00  0.00     0.001 A 
HETATM   19  C8  UNL     1       5.818  23.704  36.289  1.00  0.00     0.012 A 
ENDBRANCH   3  14
TORSDOF 1
ENDMDL
MODEL 2
REMARK VINA RESULT: -6.495771935      0.102      1.177
REMARK  1 active torsions:
REMARK  status: ('A' for Active; 'I' for Inactive)
REMARK    1  A    between atoms: C2_3  and  C3_4 
ROOT
HETATM    1  N1  UNL     1       8.643  20.311  36.089  1.00  0.00    -0.192 NA
HETATM    2  C1  UNL     1       7.669  20.772  36.507  1.00  0.00     0.119 C 
HETATM    3  C2  UNL     1       6.423  21.381  37.034  1.00  0.00     0.229 A 
HETATM    4  N2  UNL     1       6.777  22.108  38.207  1.00  0.00    -0.322 N 
ATOM      5  H2  UNL     1       7.484  22.838  38.128  1.00  0.00     0.166 HD
HETATM    6  C9  UNL     1       6.254  21.894  39.355  1.00  0.00     0.193 A 
HETATM    7  N3  UNL     1       6.695  22.689  40.442  1.00  0.00    -0.063 NA
HETATM    8  N4  UNL     1       5.269  20.892  39.516  1.00  0.00    -0.305 N 
ATOM      9  H4  UNL     1       4.865  20.738  40.439  1.00  0.00     0.171 HD
HETATM   10  C10 UNL     1       4.871  20.172  38.530  1.00  0.00     0.193 A 
HETATM   11  N5  UNL     1       3.881  19.167  38.696  1.00  0.00    -0.063 NA
HETATM   12  N6  UNL     1       5.418  20.373  37.247  1.00  0.00    -0.322 N 
ATOM     13  H6  UNL     1       5.100  19.801  36.465  1.00  0.00     0.166 HD
ENDROOT
BRANCH   3  14
HETATM   14  C3  UNL     1       5.937  22.313  35.979  1.00  0.00     0.005 A 
HETATM   15  C4  UNL     1       5.716  23.637  36.293  1.00  0.00     0.012 A 
HETATM   16  C5  UNL     1       5.268  24.524  35.347  1.00  0.00     0.001 A 
HETATM   17  C6  UNL     1       5.015  24.151  34.043  1.00  0.00     0.000 A 
HETATM   18  C7  UNL     1       5.245  22.815  33.751  1.00  0.00     0.001 A 
HETATM   19  C8  UNL     1       5.695  21.908  34.686  1.00  0.00     0.012 A 
ENDBRANCH   3  14
TORSDOF 1
ENDMDL
MODEL 3
REMARK VINA RESULT: -6.485148746      1.147      3.226
REMARK  1 active torsions:
REMARK  status: ('A' for Active; 'I' for Inactive)
REMARK    1  A    between atoms: C2_3  and  C3_4 
ROOT
HETATM    1  N1  UNL     1       6.198  22.880  39.781  1.00  0.00    -0.192 NA
HETATM    2  C1  UNL     1       6.160  22.329  38.765  1.00  0.00     0.119 C 
HETATM    3  C2  UNL     1       6.095  21.633  37.457  1.00  0.00     0.229 A 
HETATM    4  N2  UNL     1       5.076  20.643  37.559  1.00  0.00    -0.322 N 
ATOM      5  H2  UNL     1       4.134  20.943  37.811  1.00  0.00     0.166 HD
HETATM    6  C9  UNL     1       5.279  19.397  37.351  1.00  0.00     0.193 A 
HETATM    7  N3  UNL     1       4.177  18.516  37.486  1.00  0.00    -0.063 NA
HETATM    8  N4  UNL     1       6.566  18.931  36.999  1.00  0.00    -0.305 N 
ATOM      9  H4  UNL     1       6.707  17.934  36.838  1.00  0.00     0.171 HD
HETATM   10  C10 UNL     1       7.564  19.730  36.878  1.00  0.00     0.193 A 
HETATM   11  N5  UNL     1       8.856  19.259  36.525  1.00  0.00    -0.063 NA
HETATM   12  N6  UNL     1       7.387  21.112  37.097  1.00  0.00    -0.322 N 
ATOM     13  H6  UNL     1       8.180  21.746  37.000  1.00  0.00     0.166 HD
ENDROOT
BRANCH   3  14
HETATM   14  C3  UNL     1       5.710  22.666  36.455  1.00  0.00     0.005 A 
HETATM   15  C4  UNL     1       6.243  23.934  36.549  1.00  0.00     0.012 A 
HETATM   16  C5  UNL     1       5.910  24.910  35.644  1.00  0.00     0.001 A 
HETATM   17  C6  UNL     1       5.036  24.686  34.601  1.00  0.00     0.000 A 
HETATM   18  C7  UNL     1       4.513  23.404  34.528  1.00  0.00     0.001 A 
HETATM   19  C8  UNL     1       4.834  22.409  35.425  1.00  0.00     0.012 A 
ENDBRANCH   3  14
TORSDOF 1
ENDMDL
MODEL 4
REMARK VINA RESULT: -6.482608190      1.110      2.989
REMARK  1 active torsions:
REMARK  status: ('A' for Active; 'I' for Inactive)
REMARK    1  A    between atoms: C2_3  and  C3_4 
ROOT
HETATM    1  N1  UNL     1       6.298  22.894  39.823  1.00  0.00    -0.192 NA
HETATM    2  C1  UNL     1       6.214  22.338  38.813  1.00  0.00     0.119 C 
HETATM    3  C2  UNL     1       6.090  21.638  37.511  1.00  0.00     0.229 A 
HETATM    4  N2  UNL     1       5.021  20.704  37.638  1.00  0.00    -0.322 N 
ATOM      5  H2  UNL     1       4.101  21.056  37.903  1.00  0.00     0.166 HD
HETATM    6  C9  UNL     1       5.154  19.448  37.436  1.00  0.00     0.193 A 
HETATM    7  N3  UNL     1       4.009  18.628  37.597  1.00  0.00    -0.063 NA
HETATM    8  N4  UNL     1       6.408  18.912  37.067  1.00  0.00    -0.305 N 
ATOM      9  H4  UNL     1       6.493  17.907  36.911  1.00  0.00     0.171 HD
HETATM   10  C10 UNL     1       7.445  19.656  36.923  1.00  0.00     0.193 A 
HETATM   11  N5  UNL     1       8.704  19.113  36.552  1.00  0.00    -0.063 NA
HETATM   12  N6  UNL     1       7.346  21.046  37.134  1.00  0.00    -0.322 N 
ATOM     13  H6  UNL     1       8.170  21.636  37.018  1.00  0.00     0.166 HD
ENDROOT
BRANCH   3  14
HETATM   14  C3  UNL     1       5.743  22.683  36.508  1.00  0.00     0.005 A 
HETATM   15  C4  UNL     1       4.928  22.357  35.444  1.00  0.00     0.012 A 
HETATM   16  C5  UNL     1       4.589  23.293  34.501  1.00  0.00     0.001 A 
HETATM   17  C6  UNL     1       5.033  24.598  34.558  1.00  0.00     0.000 A 
HETATM   18  C7  UNL     1       5.851  24.901  35.636  1.00  0.00     0.001 A 
HETATM   19  C8  UNL     1       6.204  23.976  36.594  1.00  0.00     0.012 A 
ENDBRANCH   3  14
TORSDOF 1
ENDMDL
MODEL 5
REMARK VINA RESULT: -6.432733236      1.079      1.560
REMARK  1 active torsions:
REMARK  status: ('A' for Active; 'I' for Inactive)
REMARK    1  A    between atoms: C2_3  and  C3_4 
ROOT
HETATM    1  N1  UNL     1       7.898  19.466  37.068  1.00  0.00    -0.192 NA
HETATM    2  C1  UNL     1       7.147  20.236  37.492  1.00  0.00     0.119 C 
HETATM    3  C2  UNL     1       6.192  21.239  38.024  1.00  0.00     0.229 A 
HETATM    4  N2  UNL     1       6.861  21.943  39.067  1.00  0.00    -0.322 N 
ATOM      5  H2  UNL     1       7.737  22.417  38.845  1.00  0.00     0.166 HD
HETATM    6  C9  UNL     1       6.423  22.011  40.267  1.00  0.00     0.193 A 
HETATM    7  N3  UNL     1       7.186  22.744  41.209  1.00  0.00    -0.063 NA
HETATM    8  N4  UNL     1       5.214  21.370  40.624  1.00  0.00    -0.305 N 
ATOM      9  H4  UNL     1       4.882  21.438  41.585  1.00  0.00     0.171 HD
HETATM   10  C10 UNL     1       4.524  20.706  39.769  1.00  0.00     0.193 A 
HETATM   11  N5  UNL     1       3.310  20.064  40.131  1.00  0.00    -0.063 NA
HETATM   12  N6  UNL     1       4.968  20.604  38.435  1.00  0.00    -0.322 N 
ATOM     13  H6  UNL     1       4.418  20.077  37.756  1.00  0.00     0.166 HD
ENDROOT
BRANCH   3  14
HETATM   14  C3  UNL     1       5.887  22.162  36.896  1.00  0.00     0.005 A 
HETATM   15  C4  UNL     1       6.347  23.461  36.939  1.00  0.00     0.012 A 
HETATM   16  C5  UNL     1       6.085  24.339  35.918  1.00  0.00     0.001 A 
HETATM   17  C6  UNL     1       5.355  23.982  34.803  1.00  0.00     0.000 A 
HETATM   18  C7  UNL     1       4.903  22.671  34.783  1.00  0.00     0.001 A 
HETATM   19  C8  UNL     1       5.156  21.774  35.797  1.00  0.00     0.012 A 
ENDBRANCH   3  14
TORSDOF 1
ENDMDL
