MODEL 1
REMARK VINA RESULT: -6.354211085      0.000      0.000
REMARK  3 active torsions:
REMARK  status: ('A' for Active; 'I' for Inactive)
REMARK    1  A    between atoms: C4_8  and  N3_9 
REMARK    2  A    between atoms: N3_9  and  N4_11 
REMARK    3  A    between atoms: N5_17  and  N6_18 
ROOT
HETATM    1  N1  UNL     1       7.229  25.085  37.037  1.00  0.00    -0.080 NA
HETATM    2  C1  UNL     1       6.312  24.256  36.311  1.00  0.00     0.161 A 
HETATM    3  C2  UNL     1       5.606  24.776  35.246  1.00  0.00     0.122 A 
HETATM    4  C3  UNL     1       4.732  23.934  34.577  1.00  0.00     0.262 A 
HETATM    5  O1  UNL     1       4.056  24.361  33.589  1.00  0.00    -0.268 OA
HETATM    6  N2  UNL     1       4.589  22.654  34.966  1.00  0.00    -0.153 N 
ATOM      7  H2  UNL     1       3.941  22.049  34.461  1.00  0.00     0.187 HD
HETATM    8  C4  UNL     1       5.277  22.156  36.000  1.00  0.00     0.721 A 
HETATM    9  N5  UNL     1       6.127  22.956  36.660  1.00  0.00    -0.077 N 
ENDROOT
BRANCH   8  10
HETATM   10  N3  UNL     1       5.141  20.951  36.364  1.00  0.00    -0.132 N 
ATOM     11  H3  UNL     1       4.820  20.779  37.317  1.00  0.00     0.205 HD
BRANCH  10  12
HETATM   12  N4  UNL     1       5.398  19.840  35.558  1.00  0.00    -0.314 N 
HETATM   13  C5  UNL     1       4.303  18.948  35.282  1.00  0.00     0.143 C 
HETATM   14  C6  UNL     1       4.628  18.219  34.008  1.00  0.00     0.021 C 
HETATM   15  C7  UNL     1       5.892  17.427  34.204  1.00  0.00     0.003 C 
HETATM   16  C8  UNL     1       7.052  18.240  34.671  1.00  0.00     0.021 C 
HETATM   17  C9  UNL     1       6.724  19.646  35.053  1.00  0.00     0.143 C 
ENDBRANCH  10  12
ENDBRANCH   8  10
BRANCH   9  18
HETATM   18  N6  UNL     1       6.875  22.503  37.745  1.00  0.00    -0.323 N 
ATOM     19  H62 UNL     1       7.653  23.041  38.128  1.00  0.00     0.178 HD
ATOM     20  H61 UNL     1       6.599  21.601  38.134  1.00  0.00     0.178 HD
ENDBRANCH   9  18
TORSDOF 3
ENDMDL
MODEL 2
REMARK VINA RESULT: -6.326541127      1.336      1.810
REMARK  3 active torsions:
REMARK  status: ('A' for Active; 'I' for Inactive)
REMARK    1  A    between atoms: C4_8  and  N3_9 
REMARK    2  A    between atoms: N3_9  and  N4_11 
REMARK    3  A    between atoms: N5_17  and  N6_18 
ROOT
HETATM    1  N1  UNL     1       7.150  24.868  37.086  1.00  0.00    -0.080 NA
HETATM    2  C1  UNL     1       6.650  23.988  36.070  1.00  0.00     0.161 A 
HETATM    3  C2  UNL     1       5.655  24.416  35.216  1.00  0.00     0.122 A 
HETATM    4  C3  UNL     1       5.205  23.529  34.252  1.00  0.00     0.262 A 
HETATM    5  O1  UNL     1       4.291  23.871  33.438  1.00  0.00    -0.268 OA
HETATM    6  N2  UNL     1       5.732  22.293  34.164  1.00  0.00    -0.153 N 
ATOM      7  H2  UNL     1       5.388  21.654  33.448  1.00  0.00     0.187 HD
HETATM    8  C4  UNL     1       6.697  21.884  34.997  1.00  0.00     0.721 A 
HETATM    9  N5  UNL     1       7.144  22.730  35.937  1.00  0.00    -0.077 N 
ENDROOT
BRANCH   8  10
HETATM   10  N3  UNL     1       7.191  20.722  34.914  1.00  0.00    -0.132 N 
ATOM     11  H3  UNL     1       8.100  20.626  34.463  1.00  0.00     0.205 HD
BRANCH  10  12
HETATM   12  N4  UNL     1       6.581  19.560  35.395  1.00  0.00    -0.314 N 
HETATM   13  C5  UNL     1       7.155  18.298  35.009  1.00  0.00     0.143 C 
HETATM   14  C6  UNL     1       6.747  17.285  36.043  1.00  0.00     0.021 C 
HETATM   15  C7  UNL     1       5.247  17.178  36.061  1.00  0.00     0.003 C 
HETATM   16  C8  UNL     1       4.548  18.479  36.275  1.00  0.00     0.021 C 
HETATM   17  C9  UNL     1       5.430  19.683  36.237  1.00  0.00     0.143 C 
ENDBRANCH  10  12
ENDBRANCH   8  10
BRANCH   9  18
HETATM   18  N6  UNL     1       8.147  22.369  36.836  1.00  0.00    -0.323 N 
ATOM     19  H62 UNL     1       7.967  21.746  37.623  1.00  0.00     0.178 HD
ATOM     20  H61 UNL     1       9.070  22.765  36.660  1.00  0.00     0.178 HD
ENDBRANCH   9  18
TORSDOF 3
ENDMDL
MODEL 3
REMARK VINA RESULT: -6.283084358      1.171      1.366
REMARK  3 active torsions:
REMARK  status: ('A' for Active; 'I' for Inactive)
REMARK    1  A    between atoms: C4_8  and  N3_9 
REMARK    2  A    between atoms: N3_9  and  N4_11 
REMARK    3  A    between atoms: N5_17  and  N6_18 
ROOT
HETATM    1  N1  UNL     1       7.152  24.742  37.082  1.00  0.00    -0.080 NA
HETATM    2  C1  UNL     1       6.605  23.949  36.021  1.00  0.00     0.161 A 
HETATM    3  C2  UNL     1       5.676  24.495  35.159  1.00  0.00     0.122 A 
HETATM    4  C3  UNL     1       5.176  23.688  34.151  1.00  0.00     0.262 A 
HETATM    5  O1  UNL     1       4.319  24.140  33.329  1.00  0.00    -0.268 OA
HETATM    6  N2  UNL     1       5.594  22.414  34.028  1.00  0.00    -0.153 N 
ATOM      7  H2  UNL     1       5.215  21.835  33.279  1.00  0.00     0.187 HD
HETATM    8  C4  UNL     1       6.495  21.890  34.868  1.00  0.00     0.721 A 
HETATM    9  N5  UNL     1       6.990  22.657  35.851  1.00  0.00    -0.077 N 
ENDROOT
BRANCH   8  10
HETATM   10  N3  UNL     1       6.887  20.692  34.751  1.00  0.00    -0.132 N 
ATOM     11  H3  UNL     1       7.840  20.536  34.427  1.00  0.00     0.205 HD
BRANCH  10  12
HETATM   12  N4  UNL     1       6.108  19.567  35.036  1.00  0.00    -0.314 N 
HETATM   13  C5  UNL     1       4.942  19.755  35.859  1.00  0.00     0.143 C 
HETATM   14  C6  UNL     1       3.996  18.625  35.560  1.00  0.00     0.021 C 
HETATM   15  C7  UNL     1       4.661  17.321  35.908  1.00  0.00     0.003 C 
HETATM   16  C8  UNL     1       5.977  17.114  35.238  1.00  0.00     0.021 C 
HETATM   17  C9  UNL     1       6.505  18.300  34.500  1.00  0.00     0.143 C 
ENDBRANCH  10  12
ENDBRANCH   8  10
BRANCH   9  18
HETATM   18  N6  UNL     1       7.930  22.175  36.759  1.00  0.00    -0.323 N 
ATOM     19  H62 UNL     1       8.607  21.456  36.505  1.00  0.00     0.178 HD
ATOM     20  H61 UNL     1       7.902  22.586  37.693  1.00  0.00     0.178 HD
ENDBRANCH   9  18
TORSDOF 3
ENDMDL
MODEL 4
REMARK VINA RESULT: -6.213658385      0.221      1.279
REMARK  3 active torsions:
REMARK  status: ('A' for Active; 'I' for Inactive)
REMARK    1  A    between atoms: C4_8  and  N3_9 
REMARK    2  A    between atoms: N3_9  and  N4_11 
REMARK    3  A    between atoms: N5_17  and  N6_18 
ROOT
HETATM    1  N1  UNL     1       7.259  24.981  37.059  1.00  0.00    -0.080 NA
HETATM    2  C1  UNL     1       6.341  24.145  36.341  1.00  0.00     0.161 A 
HETATM    3  C2  UNL     1       5.669  24.642  35.244  1.00  0.00     0.122 A 
HETATM    4  C3  UNL     1       4.793  23.796  34.584  1.00  0.00     0.262 A 
HETATM    5  O1  UNL     1       4.148  24.203  33.567  1.00  0.00    -0.268 OA
HETATM    6  N2  UNL     1       4.613  22.533  35.013  1.00  0.00    -0.153 N 
ATOM      7  H2  UNL     1       3.964  21.924  34.514  1.00  0.00     0.187 HD
HETATM    8  C4  UNL     1       5.269  22.057  36.079  1.00  0.00     0.721 A 
HETATM    9  N5  UNL     1       6.121  22.862  36.730  1.00  0.00    -0.077 N 
ENDROOT
BRANCH   8  10
HETATM   10  N3  UNL     1       5.099  20.869  36.481  1.00  0.00    -0.132 N 
ATOM     11  H3  UNL     1       4.741  20.736  37.426  1.00  0.00     0.205 HD
BRANCH  10  12
HETATM   12  N4  UNL     1       5.366  19.725  35.724  1.00  0.00    -0.314 N 
HETATM   13  C5  UNL     1       6.697  19.570  35.198  1.00  0.00     0.143 C 
HETATM   14  C6  UNL     1       6.913  18.102  34.952  1.00  0.00     0.021 C 
HETATM   15  C7  UNL     1       5.908  17.619  33.944  1.00  0.00     0.003 C 
HETATM   16  C8  UNL     1       4.491  17.900  34.316  1.00  0.00     0.021 C 
HETATM   17  C9  UNL     1       4.314  18.777  35.512  1.00  0.00     0.143 C 
ENDBRANCH  10  12
ENDBRANCH   8  10
BRANCH   9  18
HETATM   18  N6  UNL     1       6.835  22.431  37.846  1.00  0.00    -0.323 N 
ATOM     19  H62 UNL     1       7.304  23.086  38.473  1.00  0.00     0.178 HD
ATOM     20  H61 UNL     1       6.861  21.423  38.000  1.00  0.00     0.178 HD
ENDBRANCH   9  18
TORSDOF 3
ENDMDL
MODEL 5
REMARK VINA RESULT: -6.130899588      2.717      5.482
REMARK  3 active torsions:
REMARK  status: ('A' for Active; 'I' for Inactive)
REMARK    1  A    between atoms: C4_8  and  N3_9 
REMARK    2  A    between atoms: N3_9  and  N4_11 
REMARK    3  A    between atoms: N5_17  and  N6_18 
ROOT
HETATM    1  N1  UNL     1       6.783  16.966  38.204  1.00  0.00    -0.080 NA
HETATM    2  C1  UNL     1       6.714  17.615  36.928  1.00  0.00     0.161 A 
HETATM    3  C2  UNL     1       6.100  16.986  35.865  1.00  0.00     0.122 A 
HETATM    4  C3  UNL     1       6.060  17.654  34.653  1.00  0.00     0.262 A 
HETATM    5  O1  UNL     1       5.507  17.120  33.641  1.00  0.00    -0.268 OA
HETATM    6  N2  UNL     1       6.606  18.878  34.531  1.00  0.00    -0.153 N 
ATOM      7  H2  UNL     1       6.567  19.355  33.631  1.00  0.00     0.187 HD
HETATM    8  C4  UNL     1       7.201  19.484  35.567  1.00  0.00     0.721 A 
HETATM    9  N5  UNL     1       7.249  18.851  36.748  1.00  0.00    -0.077 N 
ENDROOT
BRANCH   8  10
HETATM   10  N3  UNL     1       7.715  20.635  35.451  1.00  0.00    -0.132 N 
ATOM     11  H3  UNL     1       8.716  20.689  35.266  1.00  0.00     0.205 HD
BRANCH  10  12
HETATM   12  N4  UNL     1       7.010  21.837  35.559  1.00  0.00    -0.314 N 
HETATM   13  C5  UNL     1       6.074  22.156  34.514  1.00  0.00     0.143 C 
HETATM   14  C6  UNL     1       5.069  23.116  35.090  1.00  0.00     0.021 C 
HETATM   15  C7  UNL     1       5.781  24.364  35.534  1.00  0.00     0.003 C 
HETATM   16  C8  UNL     1       6.901  24.118  36.489  1.00  0.00     0.021 C 
HETATM   17  C9  UNL     1       7.255  22.681  36.689  1.00  0.00     0.143 C 
ENDBRANCH  10  12
ENDBRANCH   8  10
BRANCH   9  18
HETATM   18  N6  UNL     1       7.853  19.424  37.867  1.00  0.00    -0.323 N 
ATOM     19  H62 UNL     1       8.603  18.955  38.374  1.00  0.00     0.178 HD
ATOM     20  H61 UNL     1       7.500  20.339  38.147  1.00  0.00     0.178 HD
ENDBRANCH   9  18
TORSDOF 3
ENDMDL
