MODEL 1
REMARK VINA RESULT: -10.159044977      0.000      0.000
REMARK  5 active torsions:
REMARK  status: ('A' for Active; 'I' for Inactive)
REMARK    1  A    between atoms: C2_2  and  C3_3 
REMARK    2  A    between atoms: C3_3  and  C4_4 
REMARK    3  A    between atoms: C4_4  and  C5_5 
REMARK    4  A    between atoms: C5_5  and  C6_6 
REMARK    5  A    between atoms: C19_19  and  O1_20 
ROOT
HETATM    1  C6  UNL     1      28.619  28.208   8.116  1.00  0.00    -0.083 C 
HETATM    2  C7  UNL     1      27.658  28.632   8.922  1.00  0.00    -0.024 C 
HETATM    3  C8  UNL     1      26.890  29.868   8.721  1.00  0.00     0.033 C 
HETATM    4  C9  UNL     1      27.552  30.773   7.728  1.00  0.00    -0.002 C 
HETATM    5  C10 UNL     1      27.990  29.993   6.510  1.00  0.00    -0.006 C 
HETATM    6  C11 UNL     1      26.758  29.367   5.906  1.00  0.00     0.005 C 
HETATM    7  C12 UNL     1      25.861  30.492   5.444  1.00  0.00     0.006 C 
HETATM    8  C13 UNL     1      25.436  31.385   6.592  1.00  0.00    -0.002 C 
HETATM    9  C14 UNL     1      26.679  31.897   7.269  1.00  0.00    -0.005 C 
HETATM   10  C15 UNL     1      26.409  32.835   8.398  1.00  0.00     0.006 C 
HETATM   11  C16 UNL     1      24.957  33.318   8.300  1.00  0.00     0.006 C 
HETATM   12  C17 UNL     1      24.740  33.762   6.891  1.00  0.00    -0.004 C 
HETATM   13  C18 UNL     1      23.506  34.592   6.723  1.00  0.00     0.037 C 
HETATM   14  C19 UNL     1      22.343  33.817   7.306  1.00  0.00     0.118 C 
HETATM   15  C20 UNL     1      22.278  32.427   6.749  1.00  0.00     0.032 C 
HETATM   16  C21 UNL     1      23.253  32.164   5.646  1.00  0.00     0.012 C 
HETATM   17  C22 UNL     1      24.665  32.542   5.978  1.00  0.00    -0.036 C 
HETATM   18  C23 UNL     1      25.325  32.979   4.664  1.00  0.00     0.016 C 
HETATM   19  C24 UNL     1      29.021  28.961   6.902  1.00  0.00     0.039 C 
ENDROOT
BRANCH   1  20
HETATM   20  C5  UNL     1      29.330  26.939   8.418  1.00  0.00     0.034 C 
BRANCH  20  21
HETATM   21  C4  UNL     1      29.737  26.849   9.853  1.00  0.00     0.004 C 
BRANCH  21  22
HETATM   22  C3  UNL     1      29.214  25.644  10.571  1.00  0.00    -0.000 C 
BRANCH  22  23
HETATM   23  C2  UNL     1      28.361  24.747   9.750  1.00  0.00    -0.005 C 
HETATM   24  C1  UNL     1      26.936  24.854  10.256  1.00  0.00     0.005 C 
ENDBRANCH  22  23
ENDBRANCH  21  22
ENDBRANCH  20  21
ENDBRANCH   1  20
BRANCH  14  25
HETATM   25  O1  UNL     1      21.189  34.561   7.022  1.00  0.00    -0.396 OA
ATOM     26  H1  UNL     1      20.452  33.975   7.156  1.00  0.00     0.210 HD
ENDBRANCH  14  25
TORSDOF 5
ENDMDL
MODEL 2
REMARK VINA RESULT: -10.034118182      1.256      1.552
REMARK  5 active torsions:
REMARK  status: ('A' for Active; 'I' for Inactive)
REMARK    1  A    between atoms: C2_2  and  C3_3 
REMARK    2  A    between atoms: C3_3  and  C4_4 
REMARK    3  A    between atoms: C4_4  and  C5_5 
REMARK    4  A    between atoms: C5_5  and  C6_6 
REMARK    5  A    between atoms: C19_19  and  O1_20 
ROOT
HETATM    1  C6  UNL     1      28.470  27.074   8.757  1.00  0.00    -0.083 C 
HETATM    2  C7  UNL     1      27.730  27.899   9.483  1.00  0.00    -0.024 C 
HETATM    3  C8  UNL     1      27.202  29.183   9.002  1.00  0.00     0.033 C 
HETATM    4  C9  UNL     1      27.889  29.627   7.748  1.00  0.00    -0.002 C 
HETATM    5  C10 UNL     1      27.994  28.481   6.768  1.00  0.00    -0.006 C 
HETATM    6  C11 UNL     1      26.592  28.018   6.461  1.00  0.00     0.005 C 
HETATM    7  C12 UNL     1      25.882  29.160   5.772  1.00  0.00     0.006 C 
HETATM    8  C13 UNL     1      25.802  30.392   6.652  1.00  0.00    -0.002 C 
HETATM    9  C14 UNL     1      27.202  30.763   7.060  1.00  0.00    -0.005 C 
HETATM   10  C15 UNL     1      27.279  31.996   7.898  1.00  0.00     0.006 C 
HETATM   11  C16 UNL     1      25.953  32.755   7.781  1.00  0.00     0.006 C 
HETATM   12  C17 UNL     1      25.638  32.859   6.324  1.00  0.00    -0.004 C 
HETATM   13  C18 UNL     1      24.582  33.877   6.026  1.00  0.00     0.037 C 
HETATM   14  C19 UNL     1      23.378  33.564   6.890  1.00  0.00     0.118 C 
HETATM   15  C20 UNL     1      22.964  32.130   6.752  1.00  0.00     0.032 C 
HETATM   16  C21 UNL     1      23.709  31.377   5.696  1.00  0.00     0.012 C 
HETATM   17  C22 UNL     1      25.199  31.495   5.799  1.00  0.00    -0.036 C 
HETATM   18  C23 UNL     1      25.747  31.418   4.368  1.00  0.00     0.016 C 
HETATM   19  C24 UNL     1      28.844  27.378   7.354  1.00  0.00     0.039 C 
ENDROOT
BRANCH   1  20
HETATM   20  C5  UNL     1      28.949  25.799   9.348  1.00  0.00     0.034 C 
BRANCH  20  21
HETATM   21  C4  UNL     1      28.089  25.344  10.482  1.00  0.00     0.004 C 
BRANCH  21  22
HETATM   22  C3  UNL     1      28.840  25.004  11.732  1.00  0.00    -0.000 C 
BRANCH  22  23
HETATM   23  C2  UNL     1      29.813  23.889  11.593  1.00  0.00    -0.005 C 
HETATM   24  C1  UNL     1      29.067  22.584  11.787  1.00  0.00     0.005 C 
ENDBRANCH  22  23
ENDBRANCH  21  22
ENDBRANCH  20  21
ENDBRANCH   1  20
BRANCH  14  25
HETATM   25  O1  UNL     1      22.367  34.451   6.498  1.00  0.00    -0.396 OA
ATOM     26  H1  UNL     1      22.308  35.109   7.181  1.00  0.00     0.210 HD
ENDBRANCH  14  25
TORSDOF 5
ENDMDL
MODEL 3
REMARK VINA RESULT: -10.003784003      0.982      1.208
REMARK  5 active torsions:
REMARK  status: ('A' for Active; 'I' for Inactive)
REMARK    1  A    between atoms: C2_2  and  C3_3 
REMARK    2  A    between atoms: C3_3  and  C4_4 
REMARK    3  A    between atoms: C4_4  and  C5_5 
REMARK    4  A    between atoms: C5_5  and  C6_6 
REMARK    5  A    between atoms: C19_19  and  O1_20 
ROOT
HETATM    1  C6  UNL     1      28.755  27.460   8.803  1.00  0.00    -0.083 C 
HETATM    2  C7  UNL     1      27.947  28.231   9.515  1.00  0.00    -0.024 C 
HETATM    3  C8  UNL     1      27.321  29.463   9.014  1.00  0.00     0.033 C 
HETATM    4  C9  UNL     1      27.978  29.944   7.757  1.00  0.00    -0.002 C 
HETATM    5  C10 UNL     1      28.182  28.798   6.793  1.00  0.00    -0.006 C 
HETATM    6  C11 UNL     1      26.823  28.221   6.485  1.00  0.00     0.005 C 
HETATM    7  C12 UNL     1      26.028  29.292   5.776  1.00  0.00     0.006 C 
HETATM    8  C13 UNL     1      25.843  30.525   6.639  1.00  0.00    -0.002 C 
HETATM    9  C14 UNL     1      27.207  31.012   7.051  1.00  0.00    -0.005 C 
HETATM   10  C15 UNL     1      27.179  32.258   7.873  1.00  0.00     0.006 C 
HETATM   11  C16 UNL     1      25.797  32.907   7.738  1.00  0.00     0.006 C 
HETATM   12  C17 UNL     1      25.484  32.967   6.278  1.00  0.00    -0.004 C 
HETATM   13  C18 UNL     1      24.352  33.892   5.960  1.00  0.00     0.037 C 
HETATM   14  C19 UNL     1      23.172  33.495   6.822  1.00  0.00     0.118 C 
HETATM   15  C20 UNL     1      22.875  32.030   6.701  1.00  0.00     0.032 C 
HETATM   16  C21 UNL     1      23.685  31.326   5.659  1.00  0.00     0.012 C 
HETATM   17  C22 UNL     1      25.160  31.565   5.769  1.00  0.00    -0.036 C 
HETATM   18  C23 UNL     1      25.722  31.514   4.342  1.00  0.00     0.016 C 
HETATM   19  C24 UNL     1      29.113  27.774   7.398  1.00  0.00     0.039 C 
ENDROOT
BRANCH   1  20
HETATM   20  C5  UNL     1      29.332  26.234   9.414  1.00  0.00     0.034 C 
BRANCH  20  21
HETATM   21  C4  UNL     1      28.821  26.001  10.799  1.00  0.00     0.004 C 
BRANCH  21  22
HETATM   22  C3  UNL     1      28.015  24.749  10.959  1.00  0.00    -0.000 C 
BRANCH  22  23
HETATM   23  C2  UNL     1      26.787  24.685  10.125  1.00  0.00    -0.005 C 
HETATM   24  C1  UNL     1      26.552  23.239   9.738  1.00  0.00     0.005 C 
ENDBRANCH  22  23
ENDBRANCH  21  22
ENDBRANCH  20  21
ENDBRANCH   1  20
BRANCH  14  25
HETATM   25  O1  UNL     1      22.095  34.293   6.413  1.00  0.00    -0.396 OA
ATOM     26  H1  UNL     1      21.305  33.819   6.645  1.00  0.00     0.210 HD
ENDBRANCH  14  25
TORSDOF 5
ENDMDL
MODEL 4
REMARK VINA RESULT: -9.891283056      1.305      2.764
REMARK  5 active torsions:
REMARK  status: ('A' for Active; 'I' for Inactive)
REMARK    1  A    between atoms: C2_2  and  C3_3 
REMARK    2  A    between atoms: C3_3  and  C4_4 
REMARK    3  A    between atoms: C4_4  and  C5_5 
REMARK    4  A    between atoms: C5_5  and  C6_6 
REMARK    5  A    between atoms: C19_19  and  O1_20 
ROOT
HETATM    1  C6  UNL     1      27.964  28.818   7.032  1.00  0.00    -0.083 C 
HETATM    2  C7  UNL     1      27.276  29.121   5.942  1.00  0.00    -0.024 C 
HETATM    3  C8  UNL     1      26.042  29.920   5.933  1.00  0.00     0.033 C 
HETATM    4  C9  UNL     1      25.452  30.037   7.305  1.00  0.00    -0.002 C 
HETATM    5  C10 UNL     1      26.523  30.378   8.315  1.00  0.00    -0.006 C 
HETATM    6  C11 UNL     1      27.137  31.691   7.897  1.00  0.00     0.005 C 
HETATM    7  C12 UNL     1      26.056  32.743   7.986  1.00  0.00     0.006 C 
HETATM    8  C13 UNL     1      24.892  32.439   7.064  1.00  0.00    -0.002 C 
HETATM    9  C14 UNL     1      24.374  31.068   7.405  1.00  0.00    -0.005 C 
HETATM   10  C15 UNL     1      23.187  30.654   6.601  1.00  0.00     0.006 C 
HETATM   11  C16 UNL     1      22.591  31.895   5.927  1.00  0.00     0.006 C 
HETATM   12  C17 UNL     1      22.450  32.940   6.986  1.00  0.00    -0.004 C 
HETATM   13  C18 UNL     1      21.555  34.067   6.578  1.00  0.00     0.037 C 
HETATM   14  C19 UNL     1      22.058  34.604   5.254  1.00  0.00     0.118 C 
HETATM   15  C20 UNL     1      23.523  34.917   5.313  1.00  0.00     0.032 C 
HETATM   16  C21 UNL     1      24.122  34.789   6.677  1.00  0.00     0.012 C 
HETATM   17  C22 UNL     1      23.827  33.484   7.352  1.00  0.00    -0.036 C 
HETATM   18  C23 UNL     1      23.761  33.771   8.858  1.00  0.00     0.016 C 
HETATM   19  C24 UNL     1      27.543  29.267   8.382  1.00  0.00     0.039 C 
ENDROOT
BRANCH   1  20
HETATM   20  C5  UNL     1      29.201  28.002   6.920  1.00  0.00     0.034 C 
BRANCH  20  21
HETATM   21  C4  UNL     1      29.366  27.068   8.075  1.00  0.00     0.004 C 
BRANCH  21  22
HETATM   22  C3  UNL     1      30.525  27.384   8.967  1.00  0.00    -0.000 C 
BRANCH  22  23
HETATM   23  C2  UNL     1      30.201  27.446  10.416  1.00  0.00    -0.005 C 
HETATM   24  C1  UNL     1      28.928  26.657  10.650  1.00  0.00     0.005 C 
ENDBRANCH  22  23
ENDBRANCH  21  22
ENDBRANCH  20  21
ENDBRANCH   1  20
BRANCH  14  25
HETATM   25  O1  UNL     1      21.282  35.734   4.963  1.00  0.00    -0.396 OA
ATOM     26  H1  UNL     1      20.900  35.584   4.106  1.00  0.00     0.210 HD
ENDBRANCH  14  25
TORSDOF 5
ENDMDL
MODEL 5
REMARK VINA RESULT: -9.707890091      2.932      7.698
REMARK  5 active torsions:
REMARK  status: ('A' for Active; 'I' for Inactive)
REMARK    1  A    between atoms: C2_2  and  C3_3 
REMARK    2  A    between atoms: C3_3  and  C4_4 
REMARK    3  A    between atoms: C4_4  and  C5_5 
REMARK    4  A    between atoms: C5_5  and  C6_6 
REMARK    5  A    between atoms: C19_19  and  O1_20 
ROOT
HETATM    1  C6  UNL     1      24.528  31.479   5.511  1.00  0.00    -0.083 C 
HETATM    2  C7  UNL     1      24.095  30.727   6.511  1.00  0.00    -0.024 C 
HETATM    3  C8  UNL     1      24.826  29.579   7.065  1.00  0.00     0.033 C 
HETATM    4  C9  UNL     1      25.923  29.130   6.149  1.00  0.00    -0.002 C 
HETATM    5  C10 UNL     1      26.716  30.315   5.651  1.00  0.00    -0.006 C 
HETATM    6  C11 UNL     1      27.295  31.011   6.858  1.00  0.00     0.005 C 
HETATM    7  C12 UNL     1      28.255  30.047   7.515  1.00  0.00     0.006 C 
HETATM    8  C13 UNL     1      27.562  28.780   7.975  1.00  0.00    -0.002 C 
HETATM    9  C14 UNL     1      26.875  28.168   6.783  1.00  0.00    -0.005 C 
HETATM   10  C15 UNL     1      26.184  26.879   7.082  1.00  0.00     0.006 C 
HETATM   11  C16 UNL     1      26.697  26.344   8.424  1.00  0.00     0.006 C 
HETATM   12  C17 UNL     1      28.189  26.399   8.373  1.00  0.00    -0.004 C 
HETATM   13  C18 UNL     1      28.841  25.582   9.444  1.00  0.00     0.037 C 
HETATM   14  C19 UNL     1      28.260  26.012  10.775  1.00  0.00     0.118 C 
HETATM   15  C20 UNL     1      28.332  27.499  10.949  1.00  0.00     0.032 C 
HETATM   16  C21 UNL     1      29.091  28.204   9.870  1.00  0.00     0.012 C 
HETATM   17  C22 UNL     1      28.650  27.850   8.483  1.00  0.00    -0.036 C 
HETATM   18  C23 UNL     1      29.891  27.948   7.587  1.00  0.00     0.016 C 
HETATM   19  C24 UNL     1      25.827  31.227   4.839  1.00  0.00     0.039 C 
ENDROOT
BRANCH   1  20
HETATM   20  C5  UNL     1      23.703  32.618   5.033  1.00  0.00     0.034 C 
BRANCH  20  21
HETATM   21  C4  UNL     1      24.434  33.918   5.115  1.00  0.00     0.004 C 
BRANCH  21  22
HETATM   22  C3  UNL     1      23.787  34.939   5.998  1.00  0.00    -0.000 C 
BRANCH  22  23
HETATM   23  C2  UNL     1      24.181  34.868   7.429  1.00  0.00    -0.005 C 
HETATM   24  C1  UNL     1      22.963  34.467   8.237  1.00  0.00     0.005 C 
ENDBRANCH  22  23
ENDBRANCH  21  22
ENDBRANCH  20  21
ENDBRANCH   1  20
BRANCH  14  25
HETATM   25  O1  UNL     1      28.976  25.323  11.762  1.00  0.00    -0.396 OA
ATOM     26  H1  UNL     1      29.663  25.911  12.056  1.00  0.00     0.210 HD
ENDBRANCH  14  25
TORSDOF 5
ENDMDL
