MODEL 1
REMARK VINA RESULT: -10.290846562      0.000      0.000
REMARK  4 active torsions:
REMARK  status: ('A' for Active; 'I' for Inactive)
REMARK    1  A    between atoms: C2_2  and  C3_3 
REMARK    2  A    between atoms: C3_3  and  C4_4 
REMARK    3  A    between atoms: C4_4  and  N1_5 
REMARK    4  A    between atoms: C21_23  and  O1_24 
ROOT
HETATM    1  N1  UNL     1      21.805  31.382   6.931  1.00  0.00    -0.396 N 
ATOM      2  H1  UNL     1      22.090  30.454   6.620  1.00  0.00     0.159 HD
HETATM    3  C5  UNL     1      22.659  32.178   7.465  1.00  0.00    -0.013 C 
HETATM    4  C6  UNL     1      22.181  33.521   7.899  1.00  0.00     0.052 C 
HETATM    5  C7  UNL     1      22.414  34.582   6.844  1.00  0.00     0.006 C 
HETATM    6  C8  UNL     1      23.899  34.960   6.891  1.00  0.00     0.001 C 
HETATM    7  C9  UNL     1      24.634  33.748   6.313  1.00  0.00     0.005 C 
HETATM    8  C10 UNL     1      24.993  32.815   7.453  1.00  0.00    -0.005 C 
HETATM    9  C11 UNL     1      26.436  32.411   7.249  1.00  0.00     0.006 C 
HETATM   10  C12 UNL     1      26.459  31.582   5.983  1.00  0.00     0.006 C 
HETATM   11  C13 UNL     1      25.727  30.297   6.280  1.00  0.00    -0.003 C 
HETATM   12  C14 UNL     1      24.335  30.498   6.730  1.00  0.00    -0.000 C 
HETATM   13  C15 UNL     1      23.879  29.207   7.422  1.00  0.00     0.006 C 
HETATM   14  C16 UNL     1      24.625  28.005   6.841  1.00  0.00     0.010 C 
HETATM   15  C17 UNL     1      26.036  28.039   7.322  1.00  0.00    -0.038 C 
HETATM   16  C18 UNL     1      26.070  27.562   8.780  1.00  0.00     0.015 C 
HETATM   17  C19 UNL     1      26.966  27.151   6.555  1.00  0.00     0.012 C 
HETATM   18  C20 UNL     1      28.313  27.845   6.792  1.00  0.00     0.033 C 
HETATM   19  C21 UNL     1      27.930  29.290   6.552  1.00  0.00     0.123 C 
HETATM   20  C22 UNL     1      26.566  29.448   7.219  1.00  0.00     0.027 C 
HETATM   21  C23 UNL     1      24.070  31.661   7.596  1.00  0.00     0.039 C 
ENDROOT
BRANCH   1  22
HETATM   22  C4  UNL     1      20.463  31.805   6.779  1.00  0.00     0.119 C 
BRANCH  22  23
HETATM   23  C3  UNL     1      19.466  30.695   7.028  1.00  0.00     0.019 C 
BRANCH  23  24
HETATM   24  C2  UNL     1      19.914  29.961   8.265  1.00  0.00    -0.003 C 
HETATM   25  C1  UNL     1      19.871  28.454   8.067  1.00  0.00     0.005 C 
ENDBRANCH  23  24
ENDBRANCH  22  23
ENDBRANCH   1  22
BRANCH  19  26
HETATM   26  O1  UNL     1      28.874  30.105   7.131  1.00  0.00    -0.395 OA
ATOM     27  H1  UNL     1      28.445  30.679   7.754  1.00  0.00     0.210 HD
ENDBRANCH  19  26
TORSDOF 4
ENDMDL
MODEL 2
REMARK VINA RESULT: -9.906682018      2.595      6.451
REMARK  4 active torsions:
REMARK  status: ('A' for Active; 'I' for Inactive)
REMARK    1  A    between atoms: C2_2  and  C3_3 
REMARK    2  A    between atoms: C3_3  and  C4_4 
REMARK    3  A    between atoms: C4_4  and  N1_5 
REMARK    4  A    between atoms: C21_23  and  O1_24 
ROOT
HETATM    1  N1  UNL     1      26.640  27.215   9.040  1.00  0.00    -0.396 N 
ATOM      2  H1  UNL     1      25.746  27.600   9.343  1.00  0.00     0.159 HD
HETATM    3  C5  UNL     1      27.098  27.484   7.871  1.00  0.00    -0.013 C 
HETATM    4  C6  UNL     1      28.409  26.891   7.485  1.00  0.00     0.052 C 
HETATM    5  C7  UNL     1      29.565  27.835   7.746  1.00  0.00     0.006 C 
HETATM    6  C8  UNL     1      29.569  28.879   6.623  1.00  0.00     0.001 C 
HETATM    7  C9  UNL     1      28.349  29.761   6.900  1.00  0.00     0.005 C 
HETATM    8  C10 UNL     1      27.161  29.187   6.153  1.00  0.00    -0.005 C 
HETATM    9  C11 UNL     1      26.476  30.346   5.465  1.00  0.00     0.006 C 
HETATM   10  C12 UNL     1      25.917  31.214   6.572  1.00  0.00     0.006 C 
HETATM   11  C13 UNL     1      24.808  30.433   7.231  1.00  0.00    -0.003 C 
HETATM   12  C14 UNL     1      25.241  29.131   7.777  1.00  0.00    -0.000 C 
HETATM   13  C15 UNL     1      23.986  28.272   7.983  1.00  0.00     0.006 C 
HETATM   14  C16 UNL     1      22.774  29.165   8.251  1.00  0.00     0.010 C 
HETATM   15  C17 UNL     1      22.385  29.840   6.980  1.00  0.00    -0.038 C 
HETATM   16  C18 UNL     1      21.649  28.829   6.091  1.00  0.00     0.015 C 
HETATM   17  C19 UNL     1      21.465  31.006   7.163  1.00  0.00     0.012 C 
HETATM   18  C20 UNL     1      21.766  31.832   5.905  1.00  0.00     0.033 C 
HETATM   19  C21 UNL     1      23.279  31.781   5.894  1.00  0.00     0.123 C 
HETATM   20  C22 UNL     1      23.625  30.346   6.282  1.00  0.00     0.027 C 
HETATM   21  C23 UNL     1      26.250  28.382   7.005  1.00  0.00     0.039 C 
ENDROOT
BRANCH   1  22
HETATM   22  C4  UNL     1      27.386  26.377   9.902  1.00  0.00     0.119 C 
BRANCH  22  23
HETATM   23  C3  UNL     1      26.769  25.006  10.068  1.00  0.00     0.019 C 
BRANCH  23  24
HETATM   24  C2  UNL     1      27.873  23.995   9.902  1.00  0.00    -0.003 C 
HETATM   25  C1  UNL     1      29.226  24.578  10.278  1.00  0.00     0.005 C 
ENDBRANCH  23  24
ENDBRANCH  22  23
ENDBRANCH   1  22
BRANCH  19  26
HETATM   26  O1  UNL     1      23.726  32.084   4.629  1.00  0.00    -0.395 OA
ATOM     27  H1  UNL     1      24.464  32.678   4.697  1.00  0.00     0.210 HD
ENDBRANCH  19  26
TORSDOF 4
ENDMDL
MODEL 3
REMARK VINA RESULT: -9.726281499      0.953      1.476
REMARK  4 active torsions:
REMARK  status: ('A' for Active; 'I' for Inactive)
REMARK    1  A    between atoms: C2_2  and  C3_3 
REMARK    2  A    between atoms: C3_3  and  C4_4 
REMARK    3  A    between atoms: C4_4  and  N1_5 
REMARK    4  A    between atoms: C21_23  and  O1_24 
ROOT
HETATM    1  N1  UNL     1      22.078  31.271   7.345  1.00  0.00    -0.396 N 
ATOM      2  H1  UNL     1      22.358  30.362   6.978  1.00  0.00     0.159 HD
HETATM    3  C5  UNL     1      22.948  32.048   7.882  1.00  0.00    -0.013 C 
HETATM    4  C6  UNL     1      22.478  33.364   8.399  1.00  0.00     0.052 C 
HETATM    5  C7  UNL     1      22.660  34.477   7.387  1.00  0.00     0.006 C 
HETATM    6  C8  UNL     1      24.144  34.866   7.394  1.00  0.00     0.001 C 
HETATM    7  C9  UNL     1      24.864  33.690   6.729  1.00  0.00     0.005 C 
HETATM    8  C10 UNL     1      25.275  32.707   7.809  1.00  0.00    -0.005 C 
HETATM    9  C11 UNL     1      26.712  32.326   7.528  1.00  0.00     0.006 C 
HETATM   10  C12 UNL     1      26.690  31.558   6.224  1.00  0.00     0.006 C 
HETATM   11  C13 UNL     1      25.979  30.255   6.488  1.00  0.00    -0.003 C 
HETATM   12  C14 UNL     1      24.605  30.421   7.001  1.00  0.00    -0.000 C 
HETATM   13  C15 UNL     1      24.186  29.094   7.648  1.00  0.00     0.006 C 
HETATM   14  C16 UNL     1      24.918  27.928   6.981  1.00  0.00     0.010 C 
HETATM   15  C17 UNL     1      26.346  27.952   7.406  1.00  0.00    -0.038 C 
HETATM   16  C18 UNL     1      26.442  27.406   8.837  1.00  0.00     0.015 C 
HETATM   17  C19 UNL     1      27.251  27.111   6.561  1.00  0.00     0.012 C 
HETATM   18  C20 UNL     1      28.602  27.805   6.778  1.00  0.00     0.033 C 
HETATM   19  C21 UNL     1      28.199  29.255   6.623  1.00  0.00     0.123 C 
HETATM   20  C22 UNL     1      26.862  29.369   7.350  1.00  0.00     0.027 C 
HETATM   21  C23 UNL     1      24.367  31.539   7.932  1.00  0.00     0.039 C 
ENDROOT
BRANCH   1  22
HETATM   22  C4  UNL     1      20.729  31.689   7.266  1.00  0.00     0.119 C 
BRANCH  22  23
HETATM   23  C3  UNL     1      20.104  31.404   5.918  1.00  0.00     0.019 C 
BRANCH  23  24
HETATM   24  C2  UNL     1      21.229  31.198   4.938  1.00  0.00    -0.003 C 
HETATM   25  C1  UNL     1      21.650  32.505   4.286  1.00  0.00     0.005 C 
ENDBRANCH  23  24
ENDBRANCH  22  23
ENDBRANCH   1  22
BRANCH  19  26
HETATM   26  O1  UNL     1      29.159  30.051   7.203  1.00  0.00    -0.395 OA
ATOM     27  H1  UNL     1      29.933  29.526   7.371  1.00  0.00     0.210 HD
ENDBRANCH  19  26
TORSDOF 4
ENDMDL
MODEL 4
REMARK VINA RESULT: -9.378739220      2.446      6.353
REMARK  4 active torsions:
REMARK  status: ('A' for Active; 'I' for Inactive)
REMARK    1  A    between atoms: C2_2  and  C3_3 
REMARK    2  A    between atoms: C3_3  and  C4_4 
REMARK    3  A    between atoms: C4_4  and  N1_5 
REMARK    4  A    between atoms: C21_23  and  O1_24 
ROOT
HETATM    1  N1  UNL     1      26.579  26.887   8.349  1.00  0.00    -0.396 N 
ATOM      2  H1  UNL     1      25.676  27.151   8.742  1.00  0.00     0.159 HD
HETATM    3  C5  UNL     1      27.017  27.460   7.287  1.00  0.00    -0.013 C 
HETATM    4  C6  UNL     1      28.344  27.032   6.762  1.00  0.00     0.052 C 
HETATM    5  C7  UNL     1      29.469  27.919   7.254  1.00  0.00     0.006 C 
HETATM    6  C8  UNL     1      29.426  29.214   6.433  1.00  0.00     0.001 C 
HETATM    7  C9  UNL     1      28.179  29.953   6.926  1.00  0.00     0.005 C 
HETATM    8  C10 UNL     1      27.004  29.545   6.058  1.00  0.00    -0.005 C 
HETATM    9  C11 UNL     1      26.273  30.815   5.687  1.00  0.00     0.006 C 
HETATM   10  C12 UNL     1      25.695  31.353   6.979  1.00  0.00     0.006 C 
HETATM   11  C13 UNL     1      24.620  30.391   7.419  1.00  0.00    -0.003 C 
HETATM   12  C14 UNL     1      25.103  29.010   7.616  1.00  0.00    -0.000 C 
HETATM   13  C15 UNL     1      23.881  28.082   7.597  1.00  0.00     0.006 C 
HETATM   14  C16 UNL     1      22.641  28.834   8.085  1.00  0.00     0.010 C 
HETATM   15  C17 UNL     1      22.217  29.796   7.027  1.00  0.00    -0.038 C 
HETATM   16  C18 UNL     1      21.507  29.018   5.912  1.00  0.00     0.015 C 
HETATM   17  C19 UNL     1      21.259  30.844   7.501  1.00  0.00     0.012 C 
HETATM   18  C20 UNL     1      21.520  31.971   6.494  1.00  0.00     0.033 C 
HETATM   19  C21 UNL     1      23.033  31.979   6.469  1.00  0.00     0.123 C 
HETATM   20  C22 UNL     1      23.432  30.506   6.480  1.00  0.00     0.027 C 
HETATM   21  C23 UNL     1      26.130  28.518   6.678  1.00  0.00     0.039 C 
ENDROOT
BRANCH   1  22
HETATM   22  C4  UNL     1      27.363  25.885   8.970  1.00  0.00     0.119 C 
BRANCH  22  23
HETATM   23  C3  UNL     1      27.532  26.110  10.457  1.00  0.00     0.019 C 
BRANCH  23  24
HETATM   24  C2  UNL     1      28.817  26.870  10.650  1.00  0.00    -0.003 C 
HETATM   25  C1  UNL     1      28.564  28.358  10.835  1.00  0.00     0.005 C 
ENDBRANCH  23  24
ENDBRANCH  22  23
ENDBRANCH   1  22
BRANCH  19  26
HETATM   26  O1  UNL     1      23.458  32.609   5.322  1.00  0.00    -0.395 OA
ATOM     27  H1  UNL     1      23.388  32.003   4.594  1.00  0.00     0.210 HD
ENDBRANCH  19  26
TORSDOF 4
ENDMDL
MODEL 5
REMARK VINA RESULT: -9.335625179      1.627      2.234
REMARK  4 active torsions:
REMARK  status: ('A' for Active; 'I' for Inactive)
REMARK    1  A    between atoms: C2_2  and  C3_3 
REMARK    2  A    between atoms: C3_3  and  C4_4 
REMARK    3  A    between atoms: C4_4  and  N1_5 
REMARK    4  A    between atoms: C21_23  and  O1_24 
ROOT
HETATM    1  N1  UNL     1      22.770  29.226   7.634  1.00  0.00    -0.396 N 
ATOM      2  H1  UNL     1      23.279  28.355   7.781  1.00  0.00     0.159 HD
HETATM    3  C5  UNL     1      23.407  30.329   7.471  1.00  0.00    -0.013 C 
HETATM    4  C6  UNL     1      22.608  31.568   7.258  1.00  0.00     0.052 C 
HETATM    5  C7  UNL     1      22.426  31.890   5.790  1.00  0.00     0.006 C 
HETATM    6  C8  UNL     1      23.739  32.505   5.288  1.00  0.00     0.001 C 
HETATM    7  C9  UNL     1      24.732  31.341   5.254  1.00  0.00     0.005 C 
HETATM    8  C10 UNL     1      25.449  31.282   6.590  1.00  0.00    -0.005 C 
HETATM    9  C11 UNL     1      26.922  31.115   6.288  1.00  0.00     0.006 C 
HETATM   10  C12 UNL     1      27.063  29.747   5.657  1.00  0.00     0.006 C 
HETATM   11  C13 UNL     1      26.760  28.730   6.729  1.00  0.00    -0.003 C 
HETATM   12  C14 UNL     1      25.418  28.877   7.324  1.00  0.00    -0.000 C 
HETATM   13  C15 UNL     1      25.417  28.125   8.663  1.00  0.00     0.006 C 
HETATM   14  C16 UNL     1      26.419  26.970   8.618  1.00  0.00     0.010 C 
HETATM   15  C17 UNL     1      27.799  27.531   8.668  1.00  0.00    -0.038 C 
HETATM   16  C18 UNL     1      28.105  27.956  10.111  1.00  0.00     0.015 C 
HETATM   17  C19 UNL     1      28.869  26.563   8.267  1.00  0.00     0.012 C 
HETATM   18  C20 UNL     1      29.977  27.513   7.795  1.00  0.00     0.033 C 
HETATM   19  C21 UNL     1      29.175  28.480   6.950  1.00  0.00     0.123 C 
HETATM   20  C22 UNL     1      27.892  28.719   7.741  1.00  0.00     0.027 C 
HETATM   21  C23 UNL     1      24.913  30.250   7.512  1.00  0.00     0.039 C 
ENDROOT
BRANCH   1  22
HETATM   22  C4  UNL     1      21.356  29.231   7.607  1.00  0.00     0.119 C 
BRANCH  22  23
HETATM   23  C3  UNL     1      20.758  27.874   7.910  1.00  0.00     0.019 C 
BRANCH  23  24
HETATM   24  C2  UNL     1      19.296  28.086   8.204  1.00  0.00    -0.003 C 
HETATM   25  C1  UNL     1      18.665  29.063   7.226  1.00  0.00     0.005 C 
ENDBRANCH  23  24
ENDBRANCH  22  23
ENDBRANCH   1  22
BRANCH  19  26
HETATM   26  O1  UNL     1      29.896  29.640   6.793  1.00  0.00    -0.395 OA
ATOM     27  H1  UNL     1      29.341  30.295   6.386  1.00  0.00     0.210 HD
ENDBRANCH  19  26
TORSDOF 4
ENDMDL
