MODEL 1
REMARK VINA RESULT: -9.869624738      0.000      0.000
REMARK  5 active torsions:
REMARK  status: ('A' for Active; 'I' for Inactive)
REMARK    1  A    between atoms: C2_2  and  C4_4 
REMARK    2  A    between atoms: C4_4  and  C5_5 
REMARK    3  A    between atoms: C5_5  and  C6_6 
REMARK    4  A    between atoms: C6_6  and  C7_7 
REMARK    5  A    between atoms: C7_7  and  C9_9 
ROOT
HETATM    1  C9  UNL     1      22.721  32.930   7.027  1.00  0.00    -0.010 C 
HETATM    2  C10 UNL     1      22.054  33.072   5.802  1.00  0.00     0.005 C 
HETATM    3  C11 UNL     1      21.210  32.082   4.973  1.00  0.00     0.005 C 
HETATM    4  C12 UNL     1      21.003  30.924   5.778  1.00  0.00    -0.009 C 
HETATM    5  C13 UNL     1      22.409  30.636   6.090  1.00  0.00     0.015 C 
HETATM    6  C14 UNL     1      22.298  30.505   7.531  1.00  0.00    -0.034 C 
HETATM    7  C15 UNL     1      21.133  30.902   8.353  1.00  0.00     0.010 C 
HETATM    8  C16 UNL     1      19.797  30.325   8.171  1.00  0.00     0.008 C 
HETATM    9  C17 UNL     1      19.607  29.346   7.072  1.00  0.00     0.014 C 
HETATM   10  C18 UNL     1      19.738  28.018   7.691  1.00  0.00     0.172 C 
HETATM   11  O1  UNL     1      20.806  27.608   8.325  1.00  0.00    -0.390 OA
HETATM   12  C19 UNL     1      21.789  28.382   8.845  1.00  0.00     0.172 C 
HETATM   13  C20 UNL     1      22.617  29.135   7.789  1.00  0.00     0.018 C 
HETATM   14  C21 UNL     1      22.416  28.167   6.598  1.00  0.00     0.008 C 
HETATM   15  C22 UNL     1      21.282  28.385   5.705  1.00  0.00     0.006 C 
HETATM   16  C23 UNL     1      20.409  29.623   5.807  1.00  0.00    -0.004 C 
HETATM   17  C24 UNL     1      23.187  31.714   7.804  1.00  0.00     0.015 C 
ENDROOT
BRANCH   1  18
HETATM   18  C7  UNL     1      24.003  33.785   6.961  1.00  0.00    -0.014 C 
HETATM   19  C8  UNL     1      23.912  35.127   7.528  1.00  0.00     0.010 C 
BRANCH  18  20
HETATM   20  C6  UNL     1      24.634  33.791   5.559  1.00  0.00     0.005 C 
BRANCH  20  21
HETATM   21  C5  UNL     1      25.722  32.805   5.408  1.00  0.00     0.001 C 
BRANCH  21  22
HETATM   22  C4  UNL     1      26.417  32.432   6.654  1.00  0.00     0.004 C 
BRANCH  22  23
HETATM   23  C2  UNL     1      26.734  31.027   6.951  1.00  0.00    -0.023 C 
HETATM   24  C1  UNL     1      26.566  30.532   8.336  1.00  0.00     0.009 C 
HETATM   25  C3  UNL     1      26.026  30.056   5.997  1.00  0.00     0.009 C 
ENDBRANCH  22  23
ENDBRANCH  21  22
ENDBRANCH  20  21
ENDBRANCH  18  20
ENDBRANCH   1  18
TORSDOF 5
ENDMDL
MODEL 2
REMARK VINA RESULT: -9.846246841      1.012      1.330
REMARK  5 active torsions:
REMARK  status: ('A' for Active; 'I' for Inactive)
REMARK    1  A    between atoms: C2_2  and  C4_4 
REMARK    2  A    between atoms: C4_4  and  C5_5 
REMARK    3  A    between atoms: C5_5  and  C6_6 
REMARK    4  A    between atoms: C6_6  and  C7_7 
REMARK    5  A    between atoms: C7_7  and  C9_9 
ROOT
HETATM    1  C9  UNL     1      21.996  33.527   6.734  1.00  0.00    -0.010 C 
HETATM    2  C10 UNL     1      21.902  33.346   5.348  1.00  0.00     0.005 C 
HETATM    3  C11 UNL     1      21.566  32.104   4.496  1.00  0.00     0.005 C 
HETATM    4  C12 UNL     1      21.125  31.084   5.389  1.00  0.00    -0.009 C 
HETATM    5  C13 UNL     1      22.285  31.086   6.291  1.00  0.00     0.015 C 
HETATM    6  C14 UNL     1      21.584  31.188   7.557  1.00  0.00    -0.034 C 
HETATM    7  C15 UNL     1      20.156  31.527   7.736  1.00  0.00     0.010 C 
HETATM    8  C16 UNL     1      19.069  30.719   7.172  1.00  0.00     0.008 C 
HETATM    9  C17 UNL     1      19.437  29.547   6.338  1.00  0.00     0.014 C 
HETATM   10  C18 UNL     1      19.393  28.385   7.238  1.00  0.00     0.172 C 
HETATM   11  O1  UNL     1      20.120  28.269   8.319  1.00  0.00    -0.390 OA
HETATM   12  C19 UNL     1      20.730  29.269   8.999  1.00  0.00     0.172 C 
HETATM   13  C20 UNL     1      21.867  29.954   8.221  1.00  0.00     0.018 C 
HETATM   14  C21 UNL     1      22.263  28.775   7.299  1.00  0.00     0.008 C 
HETATM   15  C22 UNL     1      21.600  28.650   6.004  1.00  0.00     0.006 C 
HETATM   16  C23 UNL     1      20.675  29.729   5.470  1.00  0.00    -0.004 C 
HETATM   17  C24 UNL     1      22.180  32.554   7.883  1.00  0.00     0.015 C 
ENDROOT
BRANCH   1  18
HETATM   18  C7  UNL     1      23.117  34.554   6.995  1.00  0.00    -0.014 C 
HETATM   19  C8  UNL     1      23.757  35.122   5.812  1.00  0.00     0.010 C 
BRANCH  18  20
HETATM   20  C6  UNL     1      24.145  34.054   8.024  1.00  0.00     0.005 C 
BRANCH  20  21
HETATM   21  C5  UNL     1      25.421  33.634   7.413  1.00  0.00     0.001 C 
BRANCH  21  22
HETATM   22  C4  UNL     1      25.703  32.187   7.463  1.00  0.00     0.004 C 
BRANCH  22  23
HETATM   23  C2  UNL     1      26.043  31.440   6.243  1.00  0.00    -0.023 C 
HETATM   24  C1  UNL     1      25.682  30.007   6.155  1.00  0.00     0.009 C 
HETATM   25  C3  UNL     1      25.550  32.145   4.972  1.00  0.00     0.009 C 
ENDBRANCH  22  23
ENDBRANCH  21  22
ENDBRANCH  20  21
ENDBRANCH  18  20
ENDBRANCH   1  18
TORSDOF 5
ENDMDL
MODEL 3
REMARK VINA RESULT: -9.845969695      0.683      1.156
REMARK  5 active torsions:
REMARK  status: ('A' for Active; 'I' for Inactive)
REMARK    1  A    between atoms: C2_2  and  C4_4 
REMARK    2  A    between atoms: C4_4  and  C5_5 
REMARK    3  A    between atoms: C5_5  and  C6_6 
REMARK    4  A    between atoms: C6_6  and  C7_7 
REMARK    5  A    between atoms: C7_7  and  C9_9 
ROOT
HETATM    1  C9  UNL     1      22.483  32.981   7.173  1.00  0.00    -0.010 C 
HETATM    2  C10 UNL     1      21.834  33.059   5.934  1.00  0.00     0.005 C 
HETATM    3  C11 UNL     1      21.116  31.990   5.083  1.00  0.00     0.005 C 
HETATM    4  C12 UNL     1      21.011  30.813   5.881  1.00  0.00    -0.009 C 
HETATM    5  C13 UNL     1      22.432  30.672   6.224  1.00  0.00     0.015 C 
HETATM    6  C14 UNL     1      22.303  30.523   7.662  1.00  0.00    -0.034 C 
HETATM    7  C15 UNL     1      21.086  30.793   8.458  1.00  0.00     0.010 C 
HETATM    8  C16 UNL     1      19.821  30.082   8.245  1.00  0.00     0.008 C 
HETATM    9  C17 UNL     1      19.758  29.093   7.139  1.00  0.00     0.014 C 
HETATM   10  C18 UNL     1      20.012  27.783   7.758  1.00  0.00     0.172 C 
HETATM   11  O1  UNL     1      21.103  27.483   8.416  1.00  0.00    -0.390 OA
HETATM   12  C19 UNL     1      21.989  28.352   8.959  1.00  0.00     0.172 C 
HETATM   13  C20 UNL     1      22.757  29.192   7.924  1.00  0.00     0.018 C 
HETATM   14  C21 UNL     1      22.684  28.214   6.727  1.00  0.00     0.008 C 
HETATM   15  C22 UNL     1      21.554  28.318   5.809  1.00  0.00     0.006 C 
HETATM   16  C23 UNL     1      20.555  29.458   5.894  1.00  0.00    -0.004 C 
HETATM   17  C24 UNL     1      23.056  31.817   7.958  1.00  0.00     0.015 C 
ENDROOT
BRANCH   1  18
HETATM   18  C7  UNL     1      23.671  33.965   7.139  1.00  0.00    -0.014 C 
HETATM   19  C8  UNL     1      23.993  34.540   5.836  1.00  0.00     0.010 C 
BRANCH  18  20
HETATM   20  C6  UNL     1      24.917  33.408   7.849  1.00  0.00     0.005 C 
BRANCH  20  21
HETATM   21  C5  UNL     1      26.014  33.076   6.919  1.00  0.00     0.001 C 
BRANCH  21  22
HETATM   22  C4  UNL     1      26.363  31.646   6.834  1.00  0.00     0.004 C 
BRANCH  22  23
HETATM   23  C2  UNL     1      25.883  30.815   5.720  1.00  0.00    -0.023 C 
HETATM   24  C1  UNL     1      25.662  31.445   4.398  1.00  0.00     0.009 C 
HETATM   25  C3  UNL     1      26.737  29.556   5.522  1.00  0.00     0.009 C 
ENDBRANCH  22  23
ENDBRANCH  21  22
ENDBRANCH  20  21
ENDBRANCH  18  20
ENDBRANCH   1  18
TORSDOF 5
ENDMDL
MODEL 4
REMARK VINA RESULT: -9.761749191      1.532      3.425
REMARK  5 active torsions:
REMARK  status: ('A' for Active; 'I' for Inactive)
REMARK    1  A    between atoms: C2_2  and  C4_4 
REMARK    2  A    between atoms: C4_4  and  C5_5 
REMARK    3  A    between atoms: C5_5  and  C6_6 
REMARK    4  A    between atoms: C6_6  and  C7_7 
REMARK    5  A    between atoms: C7_7  and  C9_9 
ROOT
HETATM    1  C9  UNL     1      22.615  31.820   4.768  1.00  0.00    -0.010 C 
HETATM    2  C10 UNL     1      23.797  31.562   5.475  1.00  0.00     0.005 C 
HETATM    3  C11 UNL     1      24.068  30.752   6.760  1.00  0.00     0.005 C 
HETATM    4  C12 UNL     1      22.867  30.055   7.084  1.00  0.00    -0.009 C 
HETATM    5  C13 UNL     1      21.959  31.210   7.100  1.00  0.00     0.015 C 
HETATM    6  C14 UNL     1      20.916  30.689   6.235  1.00  0.00    -0.034 C 
HETATM    7  C15 UNL     1      21.016  29.484   5.382  1.00  0.00     0.010 C 
HETATM    8  C16 UNL     1      21.272  28.145   5.924  1.00  0.00     0.008 C 
HETATM    9  C17 UNL     1      21.499  28.019   7.385  1.00  0.00     0.014 C 
HETATM   10  C18 UNL     1      20.198  27.645   7.962  1.00  0.00     0.172 C 
HETATM   11  O1  UNL     1      19.114  28.368   7.851  1.00  0.00    -0.390 OA
HETATM   12  C19 UNL     1      18.873  29.337   6.936  1.00  0.00     0.172 C 
HETATM   13  C20 UNL     1      19.772  30.577   7.085  1.00  0.00     0.018 C 
HETATM   14  C21 UNL     1      20.073  30.468   8.599  1.00  0.00     0.008 C 
HETATM   15  C22 UNL     1      21.243  29.704   9.025  1.00  0.00     0.006 C 
HETATM   16  C23 UNL     1      22.257  29.172   8.029  1.00  0.00    -0.004 C 
HETATM   17  C24 UNL     1      21.152  31.744   5.159  1.00  0.00     0.015 C 
ENDROOT
BRANCH   1  18
HETATM   18  C7  UNL     1      22.722  33.244   4.185  1.00  0.00    -0.014 C 
HETATM   19  C8  UNL     1      22.505  33.369   2.747  1.00  0.00     0.010 C 
BRANCH  18  20
HETATM   20  C6  UNL     1      23.998  33.972   4.642  1.00  0.00     0.005 C 
BRANCH  20  21
HETATM   21  C5  UNL     1      23.727  35.092   5.564  1.00  0.00     0.001 C 
BRANCH  21  22
HETATM   22  C4  UNL     1      24.123  34.871   6.967  1.00  0.00     0.004 C 
BRANCH  22  23
HETATM   23  C2  UNL     1      23.113  34.665   8.015  1.00  0.00    -0.023 C 
HETATM   24  C1  UNL     1      21.711  34.401   7.619  1.00  0.00     0.009 C 
HETATM   25  C3  UNL     1      23.540  33.599   9.034  1.00  0.00     0.009 C 
ENDBRANCH  22  23
ENDBRANCH  21  22
ENDBRANCH  20  21
ENDBRANCH  18  20
ENDBRANCH   1  18
TORSDOF 5
ENDMDL
MODEL 5
REMARK VINA RESULT: -9.511919034      2.203      5.143
REMARK  5 active torsions:
REMARK  status: ('A' for Active; 'I' for Inactive)
REMARK    1  A    between atoms: C2_2  and  C4_4 
REMARK    2  A    between atoms: C4_4  and  C5_5 
REMARK    3  A    between atoms: C5_5  and  C6_6 
REMARK    4  A    between atoms: C6_6  and  C7_7 
REMARK    5  A    between atoms: C7_7  and  C9_9 
ROOT
HETATM    1  C9  UNL     1      23.252  30.552   6.699  1.00  0.00    -0.010 C 
HETATM    2  C10 UNL     1      23.906  31.313   5.720  1.00  0.00     0.005 C 
HETATM    3  C11 UNL     1      25.386  31.373   5.287  1.00  0.00     0.005 C 
HETATM    4  C12 UNL     1      26.065  30.306   5.946  1.00  0.00    -0.009 C 
HETATM    5  C13 UNL     1      25.670  30.632   7.323  1.00  0.00     0.015 C 
HETATM    6  C14 UNL     1      25.188  29.326   7.733  1.00  0.00    -0.034 C 
HETATM    7  C15 UNL     1      24.910  28.181   6.838  1.00  0.00     0.010 C 
HETATM    8  C16 UNL     1      25.939  27.564   5.993  1.00  0.00     0.008 C 
HETATM    9  C17 UNL     1      27.297  28.164   6.002  1.00  0.00     0.014 C 
HETATM   10  C18 UNL     1      28.078  27.372   6.964  1.00  0.00     0.172 C 
HETATM   11  O1  UNL     1      27.763  27.235   8.226  1.00  0.00    -0.390 OA
HETATM   12  C19 UNL     1      26.548  27.448   8.788  1.00  0.00     0.172 C 
HETATM   13  C20 UNL     1      26.095  28.918   8.760  1.00  0.00     0.018 C 
HETATM   14  C21 UNL     1      27.487  29.593   8.727  1.00  0.00     0.008 C 
HETATM   15  C22 UNL     1      28.098  29.871   7.430  1.00  0.00     0.006 C 
HETATM   16  C23 UNL     1      27.338  29.681   6.130  1.00  0.00    -0.004 C 
HETATM   17  C24 UNL     1      23.754  29.812   7.924  1.00  0.00     0.015 C 
ENDROOT
BRANCH   1  18
HETATM   18  C7  UNL     1      22.122  31.422   7.286  1.00  0.00    -0.014 C 
HETATM   19  C8  UNL     1      21.040  30.706   7.955  1.00  0.00     0.010 C 
BRANCH  18  20
HETATM   20  C6  UNL     1      21.594  32.458   6.278  1.00  0.00     0.005 C 
BRANCH  20  21
HETATM   21  C5  UNL     1      21.541  33.826   6.828  1.00  0.00     0.001 C 
BRANCH  21  22
HETATM   22  C4  UNL     1      22.458  34.096   7.951  1.00  0.00     0.004 C 
BRANCH  22  23
HETATM   23  C2  UNL     1      23.787  34.680   7.718  1.00  0.00    -0.023 C 
HETATM   24  C1  UNL     1      24.984  33.960   8.210  1.00  0.00     0.009 C 
HETATM   25  C3  UNL     1      24.011  35.048   6.245  1.00  0.00     0.009 C 
ENDBRANCH  22  23
ENDBRANCH  21  22
ENDBRANCH  20  21
ENDBRANCH  18  20
ENDBRANCH   1  18
TORSDOF 5
ENDMDL
