MODEL 1
REMARK VINA RESULT: -8.742448993      0.000      0.000
REMARK  4 active torsions:
REMARK  status: ('A' for Active; 'I' for Inactive)
REMARK    1  A    between atoms: C4_7  and  N3_9 
REMARK    2  A    between atoms: C8_15  and  C9_16 
REMARK    3  A    between atoms: C10_17  and  C11_18 
REMARK       I    between atoms: N5_26  and  C16_28 
REMARK    4  A    between atoms: C16_28  and  C17_30 
ROOT
HETATM    1  C9  UNL     1      12.005 -16.320  21.064  1.00  0.00    -0.060 C 
HETATM    2  C10 UNL     1      12.178 -15.149  21.374  1.00  0.00    -0.058 C 
ENDROOT
BRANCH   1   3
HETATM    3  C8  UNL     1      11.826 -17.699  20.702  1.00  0.00     0.034 A 
HETATM    4  C7  UNL     1      11.786 -18.050  19.385  1.00  0.00     0.037 A 
HETATM    5  C6  UNL     1      11.613 -19.383  18.962  1.00  0.00     0.043 A 
HETATM    6  C4  UNL     1      11.589 -19.721  17.555  1.00  0.00     0.228 A 
HETATM    7  C21 UNL     1      11.483 -20.322  19.950  1.00  0.00     0.121 A 
HETATM    8  N2  UNL     1      11.359 -21.098  17.268  1.00  0.00    -0.301 N 
HETATM    9  C5  UNL     1      12.839 -19.208  16.828  1.00  0.00     0.077 C 
HETATM   10  C2  UNL     1      11.227 -22.079  18.272  1.00  0.00     0.327 A 
HETATM   11  C3  UNL     1      11.252 -21.533  15.842  1.00  0.00     0.157 C 
HETATM   12  N1  UNL     1      11.288 -21.695  19.633  1.00  0.00    -0.289 N 
HETATM   13  O1  UNL     1      11.056 -23.285  17.921  1.00  0.00    -0.247 OA
HETATM   14  C1  UNL     1      11.154 -22.678  20.680  1.00  0.00     0.163 C 
HETATM   15  N8  UNL     1      11.519 -19.995  21.273  1.00  0.00    -0.350 N 
HETATM   16  C20 UNL     1      11.689 -18.696  21.647  1.00  0.00     0.110 A 
ATOM     17  H8  UNL     1      11.419 -20.721  21.982  1.00  0.00     0.166 HD
BRANCH   6  18
HETATM   18  N3  UNL     1      10.486 -18.982  16.879  1.00  0.00    -0.048 N 
ATOM     19  H33 UNL     1      10.746 -18.598  15.971  1.00  0.00     0.277 HD
ATOM     20  H32 UNL     1       9.734 -19.586  16.543  1.00  0.00     0.277 HD
ATOM     21  H31 UNL     1      10.177 -18.278  17.549  1.00  0.00     0.277 HD
ENDBRANCH   6  18
ENDBRANCH   1   3
BRANCH   2  22
HETATM   22  C11 UNL     1      12.355 -13.775  21.741  1.00  0.00     0.063 A 
HETATM   23  C12 UNL     1      11.653 -13.161  22.757  1.00  0.00     0.045 A 
HETATM   24  C13 UNL     1      11.872 -11.836  23.057  1.00  0.00     0.028 A 
HETATM   25 BR1  UNL     1      10.931 -10.948  24.447  1.00  0.00    -0.050 Br
HETATM   26  C14 UNL     1      12.804 -11.144  22.323  1.00  0.00     0.109 A 
HETATM   27  N4  UNL     1      13.499 -11.723  21.330  1.00  0.00    -0.350 N 
HETATM   28  C15 UNL     1      13.275 -13.027  21.042  1.00  0.00     0.127 A 
ATOM     29  H4  UNL     1      14.186 -11.187  20.799  1.00  0.00     0.166 HD
HETATM   30  N5  UNL     1      13.923 -13.614  20.095  1.00  0.00    -0.306 N 
HETATM   31  C16 UNL     1      14.875 -12.854  19.365  1.00  0.00     0.275 C 
ATOM     32  H5  UNL     1      13.756 -14.596  19.875  1.00  0.00     0.170 HD
HETATM   33  O2  UNL     1      14.552 -12.222  18.307  1.00  0.00    -0.266 OA
BRANCH  31  34
HETATM   34  C17 UNL     1      16.272 -12.752  19.780  1.00  0.00     0.117 A 
HETATM   35  C18 UNL     1      17.382 -13.296  19.198  1.00  0.00     0.055 A 
HETATM   36  C19 UNL     1      18.461 -12.919  19.954  1.00  0.00     0.109 A 
HETATM   37  N6  UNL     1      17.984 -12.155  20.975  1.00  0.00    -0.311 N 
HETATM   38  N7  UNL     1      16.674 -12.052  20.875  1.00  0.00    -0.296 N 
ATOM     39  H6  UNL     1      18.553 -11.728  21.706  1.00  0.00     0.186 HD
ATOM     40  H7  UNL     1      16.065 -11.536  21.511  1.00  0.00     0.187 HD
ENDBRANCH  31  34
ENDBRANCH   2  22
TORSDOF 4
ENDMDL
MODEL 2
REMARK VINA RESULT: -8.653486996      5.115      8.813
REMARK  4 active torsions:
REMARK  status: ('A' for Active; 'I' for Inactive)
REMARK    1  A    between atoms: C4_7  and  N3_9 
REMARK    2  A    between atoms: C8_15  and  C9_16 
REMARK    3  A    between atoms: C10_17  and  C11_18 
REMARK       I    between atoms: N5_26  and  C16_28 
REMARK    4  A    between atoms: C16_28  and  C17_30 
ROOT
HETATM    1  C9  UNL     1      16.777 -16.893  22.025  1.00  0.00    -0.060 C 
HETATM    2  C10 UNL     1      15.677 -16.675  21.534  1.00  0.00    -0.058 C 
ENDROOT
BRANCH   1   3
HETATM    3  C8  UNL     1      18.074 -17.127  22.598  1.00  0.00     0.034 A 
HETATM    4  C7  UNL     1      18.850 -16.066  22.961  1.00  0.00     0.037 A 
HETATM    5  C6  UNL     1      20.129 -16.224  23.528  1.00  0.00     0.043 A 
HETATM    6  C4  UNL     1      20.921 -15.075  23.913  1.00  0.00     0.228 A 
HETATM    7  C21 UNL     1      20.563 -17.511  23.700  1.00  0.00     0.121 A 
HETATM    8  N2  UNL     1      22.214 -15.377  24.431  1.00  0.00    -0.301 N 
HETATM    9  C5  UNL     1      20.151 -14.149  24.864  1.00  0.00     0.077 C 
HETATM   10  C2  UNL     1      22.676 -16.696  24.618  1.00  0.00     0.327 A 
HETATM   11  C3  UNL     1      23.131 -14.254  24.795  1.00  0.00     0.157 C 
HETATM   12  N1  UNL     1      21.847 -17.783  24.250  1.00  0.00    -0.289 N 
HETATM   13  O1  UNL     1      23.829 -16.869  25.114  1.00  0.00    -0.247 OA
HETATM   14  C1  UNL     1      22.295 -19.143  24.430  1.00  0.00     0.163 C 
HETATM   15  N8  UNL     1      19.805 -18.587  23.345  1.00  0.00    -0.350 N 
HETATM   16  C20 UNL     1      18.571 -18.398  22.799  1.00  0.00     0.110 A 
ATOM     17  H8  UNL     1      20.160 -19.532  23.488  1.00  0.00     0.166 HD
BRANCH   6  18
HETATM   18  N3  UNL     1      21.159 -14.207  22.726  1.00  0.00    -0.048 N 
ATOM     19  H33 UNL     1      20.448 -13.487  22.596  1.00  0.00     0.277 HD
ATOM     20  H32 UNL     1      21.953 -13.575  22.833  1.00  0.00     0.277 HD
ATOM     21  H31 UNL     1      21.247 -14.844  21.934  1.00  0.00     0.277 HD
ENDBRANCH   6  18
ENDBRANCH   1   3
BRANCH   2  22
HETATM   22  C11 UNL     1      14.381 -16.443  20.969  1.00  0.00     0.063 A 
HETATM   23  C12 UNL     1      13.429 -17.429  20.815  1.00  0.00     0.045 A 
HETATM   24  C13 UNL     1      12.202 -17.137  20.262  1.00  0.00     0.028 A 
HETATM   25 BR1  UNL     1      10.860 -18.459  20.030  1.00  0.00    -0.050 Br
HETATM   26  C14 UNL     1      11.952 -15.844  19.872  1.00  0.00     0.109 A 
HETATM   27  N4  UNL     1      12.865 -14.869  20.013  1.00  0.00    -0.350 N 
HETATM   28  C15 UNL     1      14.068 -15.168  20.557  1.00  0.00     0.127 A 
ATOM     29  H4  UNL     1      12.654 -13.917  19.716  1.00  0.00     0.166 HD
HETATM   30  N5  UNL     1      14.969 -14.257  20.707  1.00  0.00    -0.306 N 
HETATM   31  C16 UNL     1      14.660 -12.936  20.287  1.00  0.00     0.275 C 
ATOM     32  H5  UNL     1      15.876 -14.479  21.116  1.00  0.00     0.170 HD
HETATM   33  O2  UNL     1      14.921 -12.536  19.105  1.00  0.00    -0.266 OA
BRANCH  31  34
HETATM   34  C17 UNL     1      14.029 -11.963  21.176  1.00  0.00     0.117 A 
HETATM   35  C18 UNL     1      13.012 -12.150  22.069  1.00  0.00     0.055 A 
HETATM   36  C19 UNL     1      12.772 -10.941  22.666  1.00  0.00     0.109 A 
HETATM   37  N6  UNL     1      13.647 -10.049  22.126  1.00  0.00    -0.311 N 
HETATM   38  N7  UNL     1      14.402 -10.657  21.233  1.00  0.00    -0.296 N 
ATOM     39  H6  UNL     1      13.709  -9.061  22.374  1.00  0.00     0.186 HD
ATOM     40  H7  UNL     1      15.140 -10.221  20.679  1.00  0.00     0.187 HD
ENDBRANCH  31  34
ENDBRANCH   2  22
TORSDOF 4
ENDMDL
MODEL 3
REMARK VINA RESULT: -8.644302861      6.294      9.223
REMARK  4 active torsions:
REMARK  status: ('A' for Active; 'I' for Inactive)
REMARK    1  A    between atoms: C4_7  and  N3_9 
REMARK    2  A    between atoms: C8_15  and  C9_16 
REMARK    3  A    between atoms: C10_17  and  C11_18 
REMARK       I    between atoms: N5_26  and  C16_28 
REMARK    4  A    between atoms: C16_28  and  C17_30 
ROOT
HETATM    1  C9  UNL     1      18.164 -14.026  21.203  1.00  0.00    -0.060 C 
HETATM    2  C10 UNL     1      17.331 -13.608  20.409  1.00  0.00    -0.058 C 
ENDROOT
BRANCH   1   3
HETATM    3  C8  UNL     1      19.145 -14.495  22.143  1.00  0.00     0.034 A 
HETATM    4  C7  UNL     1      18.801 -15.448  23.055  1.00  0.00     0.037 A 
HETATM    5  C6  UNL     1      19.714 -15.951  24.003  1.00  0.00     0.043 A 
HETATM    6  C4  UNL     1      19.318 -16.974  24.948  1.00  0.00     0.228 A 
HETATM    7  C21 UNL     1      20.979 -15.429  23.966  1.00  0.00     0.121 A 
HETATM    8  N2  UNL     1      20.325 -17.357  25.881  1.00  0.00    -0.301 N 
HETATM    9  C5  UNL     1      18.726 -18.200  24.242  1.00  0.00     0.077 C 
HETATM   10  C2  UNL     1      21.634 -16.833  25.855  1.00  0.00     0.327 A 
HETATM   11  C3  UNL     1      19.991 -18.359  26.939  1.00  0.00     0.157 C 
HETATM   12  N1  UNL     1      21.974 -15.856  24.889  1.00  0.00    -0.289 N 
HETATM   13  O1  UNL     1      22.473 -17.256  26.706  1.00  0.00    -0.247 OA
HETATM   14  C1  UNL     1      23.305 -15.302  24.841  1.00  0.00     0.163 C 
HETATM   15  N8  UNL     1      21.345 -14.475  23.063  1.00  0.00    -0.350 N 
HETATM   16  C20 UNL     1      20.438 -14.011  22.159  1.00  0.00     0.110 A 
ATOM     17  H8  UNL     1      22.296 -14.109  23.064  1.00  0.00     0.166 HD
BRANCH   6  18
HETATM   18  N3  UNL     1      18.177 -16.483  25.772  1.00  0.00    -0.048 N 
ATOM     19  H33 UNL     1      18.454 -16.138  26.691  1.00  0.00     0.277 HD
ATOM     20  H32 UNL     1      17.772 -15.611  25.432  1.00  0.00     0.277 HD
ATOM     21  H31 UNL     1      17.513 -17.257  25.808  1.00  0.00     0.277 HD
ENDBRANCH   6  18
ENDBRANCH   1   3
BRANCH   2  22
HETATM   22  C11 UNL     1      16.347 -13.144  19.477  1.00  0.00     0.063 A 
HETATM   23  C12 UNL     1      16.417 -13.372  18.118  1.00  0.00     0.045 A 
HETATM   24  C13 UNL     1      15.437 -12.896  17.277  1.00  0.00     0.028 A 
HETATM   25 BR1  UNL     1      15.490 -13.184  15.402  1.00  0.00    -0.050 Br
HETATM   26  C14 UNL     1      14.391 -12.193  17.824  1.00  0.00     0.109 A 
HETATM   27  N4  UNL     1      14.304 -11.960  19.144  1.00  0.00    -0.350 N 
HETATM   28  C15 UNL     1      15.274 -12.432  19.962  1.00  0.00     0.127 A 
ATOM     29  H4  UNL     1      13.517 -11.435  19.525  1.00  0.00     0.166 HD
HETATM   30  N5  UNL     1      15.222 -12.227  21.233  1.00  0.00    -0.306 N 
HETATM   31  C16 UNL     1      14.120 -11.493  21.748  1.00  0.00     0.275 C 
ATOM     32  H5  UNL     1      15.951 -12.581  21.852  1.00  0.00     0.170 HD
HETATM   33  O2  UNL     1      14.166 -10.226  21.877  1.00  0.00    -0.266 OA
BRANCH  31  34
HETATM   34  C17 UNL     1      12.876 -12.142  22.157  1.00  0.00     0.117 A 
HETATM   35  C18 UNL     1      11.813 -11.610  22.831  1.00  0.00     0.055 A 
HETATM   36  C19 UNL     1      10.889 -12.611  22.981  1.00  0.00     0.109 A 
HETATM   37  N6  UNL     1      11.409 -13.725  22.396  1.00  0.00    -0.311 N 
HETATM   38  N7  UNL     1      12.599 -13.448  21.901  1.00  0.00    -0.296 N 
ATOM     39  H6  UNL     1      10.949 -14.634  22.348  1.00  0.00     0.186 HD
ATOM     40  H7  UNL     1      13.209 -14.103  21.411  1.00  0.00     0.187 HD
ENDBRANCH  31  34
ENDBRANCH   2  22
TORSDOF 4
ENDMDL
MODEL 4
REMARK VINA RESULT: -8.640126189      1.276      2.458
REMARK  4 active torsions:
REMARK  status: ('A' for Active; 'I' for Inactive)
REMARK    1  A    between atoms: C4_7  and  N3_9 
REMARK    2  A    between atoms: C8_15  and  C9_16 
REMARK    3  A    between atoms: C10_17  and  C11_18 
REMARK       I    between atoms: N5_26  and  C16_28 
REMARK    4  A    between atoms: C16_28  and  C17_30 
ROOT
HETATM    1  C9  UNL     1      11.979 -16.076  21.023  1.00  0.00    -0.060 C 
HETATM    2  C10 UNL     1      12.154 -14.916  21.372  1.00  0.00    -0.058 C 
ENDROOT
BRANCH   1   3
HETATM    3  C8  UNL     1      11.752 -17.436  20.618  1.00  0.00     0.034 A 
HETATM    4  C7  UNL     1      12.452 -18.442  21.215  1.00  0.00     0.037 A 
HETATM    5  C6  UNL     1      12.277 -19.796  20.867  1.00  0.00     0.043 A 
HETATM    6  C4  UNL     1      13.029 -20.839  21.532  1.00  0.00     0.228 A 
HETATM    7  C21 UNL     1      11.359 -20.057  19.885  1.00  0.00     0.121 A 
HETATM    8  N2  UNL     1      12.788 -22.159  21.048  1.00  0.00    -0.301 N 
HETATM    9  C5  UNL     1      12.865 -20.773  23.055  1.00  0.00     0.077 C 
HETATM   10  C2  UNL     1      11.845 -22.446  20.042  1.00  0.00     0.327 A 
HETATM   11  C3  UNL     1      13.566 -23.296  21.627  1.00  0.00     0.157 C 
HETATM   12  N1  UNL     1      11.116 -21.388  19.446  1.00  0.00    -0.289 N 
HETATM   13  O1  UNL     1      11.676 -23.654  19.697  1.00  0.00    -0.247 OA
HETATM   14  C1  UNL     1      10.145 -21.654  18.413  1.00  0.00     0.163 C 
HETATM   15  N8  UNL     1      10.648 -19.068  19.274  1.00  0.00    -0.350 N 
HETATM   16  C20 UNL     1      10.841 -17.769  19.636  1.00  0.00     0.110 A 
ATOM     17  H8  UNL     1       9.972 -19.300  18.547  1.00  0.00     0.166 HD
BRANCH   6  18
HETATM   18  N3  UNL     1      14.488 -20.606  21.345  1.00  0.00    -0.048 N 
ATOM     19  H33 UNL     1      14.711 -19.685  20.968  1.00  0.00     0.277 HD
ATOM     20  H32 UNL     1      15.003 -20.505  22.220  1.00  0.00     0.277 HD
ATOM     21  H31 UNL     1      14.817 -21.376  20.762  1.00  0.00     0.277 HD
ENDBRANCH   6  18
ENDBRANCH   1   3
BRANCH   2  22
HETATM   22  C11 UNL     1      12.382 -13.558  21.768  1.00  0.00     0.063 A 
HETATM   23  C12 UNL     1      11.695 -12.937  22.791  1.00  0.00     0.045 A 
HETATM   24  C13 UNL     1      11.964 -11.628  23.119  1.00  0.00     0.028 A 
HETATM   25 BR1  UNL     1      11.045 -10.731  24.518  1.00  0.00    -0.050 Br
HETATM   26  C14 UNL     1      12.929 -10.959  22.407  1.00  0.00     0.109 A 
HETATM   27  N4  UNL     1      13.609 -11.545  21.408  1.00  0.00    -0.350 N 
HETATM   28  C15 UNL     1      13.337 -12.833  21.093  1.00  0.00     0.127 A 
ATOM     29  H4  UNL     1      14.322 -11.027  20.895  1.00  0.00     0.166 HD
HETATM   30  N5  UNL     1      13.970 -13.427  20.139  1.00  0.00    -0.306 N 
HETATM   31  C16 UNL     1      14.959 -12.691  19.434  1.00  0.00     0.275 C 
ATOM     32  H5  UNL     1      13.767 -14.397  19.899  1.00  0.00     0.170 HD
HETATM   33  O2  UNL     1      14.671 -12.025  18.386  1.00  0.00    -0.266 OA
BRANCH  31  34
HETATM   34  C17 UNL     1      16.355 -12.652  19.863  1.00  0.00     0.117 A 
HETATM   35  C18 UNL     1      17.442 -13.262  19.302  1.00  0.00     0.055 A 
HETATM   36  C19 UNL     1      18.530 -12.926  20.064  1.00  0.00     0.109 A 
HETATM   37  N6  UNL     1      18.082 -12.122  21.067  1.00  0.00    -0.311 N 
HETATM   38  N7  UNL     1      16.780 -11.956  20.950  1.00  0.00    -0.296 N 
ATOM     39  H6  UNL     1      18.665 -11.712  21.797  1.00  0.00     0.186 HD
ATOM     40  H7  UNL     1      16.191 -11.399  21.570  1.00  0.00     0.187 HD
ENDBRANCH  31  34
ENDBRANCH   2  22
TORSDOF 4
ENDMDL
MODEL 5
REMARK VINA RESULT: -8.614888374      5.157      8.942
REMARK  4 active torsions:
REMARK  status: ('A' for Active; 'I' for Inactive)
REMARK    1  A    between atoms: C4_7  and  N3_9 
REMARK    2  A    between atoms: C8_15  and  C9_16 
REMARK    3  A    between atoms: C10_17  and  C11_18 
REMARK       I    between atoms: N5_26  and  C16_28 
REMARK    4  A    between atoms: C16_28  and  C17_30 
ROOT
HETATM    1  C9  UNL     1      16.659 -15.924  21.986  1.00  0.00    -0.060 C 
HETATM    2  C10 UNL     1      15.545 -15.989  21.484  1.00  0.00    -0.058 C 
ENDROOT
BRANCH   1   3
HETATM    3  C8  UNL     1      17.961 -15.828  22.586  1.00  0.00     0.034 A 
HETATM    4  C7  UNL     1      18.804 -16.899  22.541  1.00  0.00     0.037 A 
HETATM    5  C6  UNL     1      20.093 -16.871  23.107  1.00  0.00     0.043 A 
HETATM    6  C4  UNL     1      20.966 -18.024  23.029  1.00  0.00     0.228 A 
HETATM    7  C21 UNL     1      20.465 -15.702  23.716  1.00  0.00     0.121 A 
HETATM    8  N2  UNL     1      22.223 -17.875  23.686  1.00  0.00    -0.301 N 
HETATM    9  C5  UNL     1      21.154 -18.495  21.581  1.00  0.00     0.077 C 
HETATM   10  C2  UNL     1      22.623 -16.678  24.314  1.00  0.00     0.327 A 
HETATM   11  C3  UNL     1      23.167 -19.034  23.716  1.00  0.00     0.157 C 
HETATM   12  N1  UNL     1      21.739 -15.573  24.335  1.00  0.00    -0.289 N 
HETATM   13  O1  UNL     1      23.773 -16.629  24.846  1.00  0.00    -0.247 OA
HETATM   14  C1  UNL     1      22.123 -14.337  24.972  1.00  0.00     0.163 C 
HETATM   15  N8  UNL     1      19.639 -14.619  23.774  1.00  0.00    -0.350 N 
HETATM   16  C20 UNL     1      18.399 -14.680  23.214  1.00  0.00     0.110 A 
ATOM     17  H8  UNL     1      19.950 -13.765  24.235  1.00  0.00     0.166 HD
BRANCH   6  18
HETATM   18  N3  UNL     1      20.313 -19.195  23.677  1.00  0.00    -0.048 N 
ATOM     19  H33 UNL     1      19.474 -19.515  23.195  1.00  0.00     0.277 HD
ATOM     20  H32 UNL     1      20.843 -20.062  23.586  1.00  0.00     0.277 HD
ATOM     21  H31 UNL     1      20.148 -18.916  24.645  1.00  0.00     0.277 HD
ENDBRANCH   6  18
ENDBRANCH   1   3
BRANCH   2  22
HETATM   22  C11 UNL     1      14.244 -16.090  20.891  1.00  0.00     0.063 A 
HETATM   23  C12 UNL     1      13.746 -17.252  20.339  1.00  0.00     0.045 A 
HETATM   24  C13 UNL     1      12.487 -17.279  19.784  1.00  0.00     0.028 A 
HETATM   25 BR1  UNL     1      11.759 -18.853  19.013  1.00  0.00    -0.050 Br
HETATM   26  C14 UNL     1      11.742 -16.125  19.796  1.00  0.00     0.109 A 
HETATM   27  N4  UNL     1      12.207 -14.983  20.329  1.00  0.00    -0.350 N 
HETATM   28  C15 UNL     1      13.448 -14.967  20.871  1.00  0.00     0.127 A 
ATOM     29  H4  UNL     1      11.634 -14.140  20.325  1.00  0.00     0.166 HD
HETATM   30  N5  UNL     1      13.927 -13.889  21.391  1.00  0.00    -0.306 N 
HETATM   31  C16 UNL     1      13.116 -12.723  21.377  1.00  0.00     0.275 C 
ATOM     32  H5  UNL     1      14.861 -13.874  21.799  1.00  0.00     0.170 HD
HETATM   33  O2  UNL     1      13.165 -11.890  20.414  1.00  0.00    -0.266 OA
BRANCH  31  34
HETATM   34  C17 UNL     1      12.184 -12.410  22.458  1.00  0.00     0.117 A 
HETATM   35  C18 UNL     1      12.084 -11.268  23.200  1.00  0.00     0.055 A 
HETATM   36  C19 UNL     1      11.059 -11.453  24.090  1.00  0.00     0.109 A 
HETATM   37  N6  UNL     1      10.560 -12.700  23.869  1.00  0.00    -0.311 N 
HETATM   38  N7  UNL     1      11.231 -13.277  22.892  1.00  0.00    -0.296 N 
ATOM     39  H6  UNL     1       9.786 -13.124  24.381  1.00  0.00     0.186 HD
ATOM     40  H7  UNL     1      11.064 -14.214  22.525  1.00  0.00     0.187 HD
ENDBRANCH  31  34
ENDBRANCH   2  22
TORSDOF 4
ENDMDL
