MODEL 1
REMARK VINA RESULT: -8.423317705      0.000      0.000
REMARK  8 active torsions:
REMARK  status: ('A' for Active; 'I' for Inactive)
REMARK    1  A    between atoms: N1_4  and  C4_5 
REMARK    2  A    between atoms: C4_5  and  O1_6 
REMARK    3  A    between atoms: C4_5  and  N2_8 
REMARK    4  A    between atoms: C6_10  and  N3_11 
REMARK    5  A    between atoms: C8_16  and  C9_17 
REMARK    6  A    between atoms: N5_26  and  C16_27 
REMARK    7  A    between atoms: C16_27  and  O3_28 
REMARK    8  A    between atoms: C16_27  and  N6_30 
ROOT
HETATM    1  C1  UNL     1      18.351 -16.574  21.222  1.00  0.00     0.034 C 
HETATM    2  C2  UNL     1      18.177 -15.586  22.392  1.00  0.00     0.102 C 
HETATM    3  C3  UNL     1      16.776 -15.176  22.569  1.00  0.00     0.152 C 
HETATM    4  N1  UNL     1      16.127 -14.399  21.561  1.00  0.00    -0.337 N 
HETATM    5  C10 UNL     1      16.653 -13.311  20.722  1.00  0.00     0.030 C 
HETATM    6  C11 UNL     1      15.641 -12.134  20.811  1.00  0.00     0.038 C 
HETATM    7  C12 UNL     1      16.687 -13.663  19.261  1.00  0.00     0.038 C 
HETATM    8  C13 UNL     1      17.869 -12.707  21.277  1.00  0.00     0.055 C 
HETATM    9  C14 UNL     1      19.160 -13.430  21.371  1.00  0.00     0.086 C 
HETATM   10  C15 UNL     1      19.750 -13.785  20.023  1.00  0.00     0.032 C 
HETATM   11  N5  UNL     1      19.197 -14.534  22.292  1.00  0.00    -0.337 N 
ENDROOT
BRANCH  11  12
HETATM   12  C16 UNL     1      20.236 -14.679  23.224  1.00  0.00     0.220 C 
BRANCH  12  13
HETATM   13  O3  UNL     1      21.374 -14.162  22.772  1.00  0.00    -0.332 OA
ATOM     14  H3  UNL     1      22.130 -14.602  23.144  1.00  0.00     0.220 HD
ENDBRANCH  12  13
BRANCH  12  15
HETATM   15  N6  UNL     1      20.329 -15.237  24.504  1.00  0.00    -0.311 N 
HETATM   16  C17 UNL     1      19.838 -14.872  25.777  1.00  0.00     0.223 C 
HETATM   17 CL1  UNL     1      21.140 -14.045  26.742  1.00  0.00    -0.097 Cl
HETATM   18  C18 UNL     1      19.538 -16.185  26.443  1.00  0.00     0.023 A 
HETATM   19  C19 UNL     1      18.808 -16.804  27.432  1.00  0.00     0.119 A 
HETATM   20  C20 UNL     1      20.284 -17.154  25.844  1.00  0.00     0.064 A 
HETATM   21  N7  UNL     1      19.128 -18.102  27.402  1.00  0.00    -0.311 N 
HETATM   22  N8  UNL     1      20.017 -18.326  26.448  1.00  0.00    -0.302 N 
ATOM     23  H7  UNL     1      18.743 -18.814  28.023  1.00  0.00     0.186 HD
ATOM     24  H8  UNL     1      20.429 -19.230  26.213  1.00  0.00     0.186 HD
HETATM   25  C21 UNL     1      21.072 -16.491  24.768  1.00  0.00     0.075 C 
HETATM   26  C22 UNL     1      22.450 -16.218  25.300  1.00  0.00     0.045 C 
HETATM   27  C23 UNL     1      21.156 -17.413  23.588  1.00  0.00     0.045 C 
ENDBRANCH  12  15
ENDBRANCH  11  12
BRANCH   4  28
HETATM   28  C4  UNL     1      14.777 -14.679  21.394  1.00  0.00     0.218 C 
BRANCH  28  29
HETATM   29  O1  UNL     1      13.991 -14.029  22.213  1.00  0.00    -0.332 OA
ATOM     30  H1  UNL     1      13.999 -13.087  22.095  1.00  0.00     0.220 HD
ENDBRANCH  28  29
BRANCH  28  31
HETATM   31  N2  UNL     1      14.081 -15.521  20.530  1.00  0.00    -0.332 N 
HETATM   32  C5  UNL     1      13.505 -15.410  19.219  1.00  0.00     0.160 C 
HETATM   33  C6  UNL     1      13.523 -16.806  18.600  1.00  0.00     0.204 C 
HETATM   34  C7  UNL     1      14.071 -17.699  19.678  1.00  0.00     0.069 C 
HETATM   35  C8  UNL     1      13.760 -16.925  20.914  1.00  0.00     0.179 C 
BRANCH  33  36
HETATM   36  N3  UNL     1      14.345 -16.869  17.415  1.00  0.00    -0.073 N 
ATOM     37  H33 UNL     1      15.188 -16.304  17.522  1.00  0.00     0.274 HD
ATOM     38  H32 UNL     1      14.777 -17.787  17.315  1.00  0.00     0.274 HD
ATOM     39  H31 UNL     1      13.831 -16.610  16.573  1.00  0.00     0.274 HD
ENDBRANCH  33  36
BRANCH  35  40
HETATM   40  C9  UNL     1      12.373 -17.032  21.380  1.00  0.00     0.254 C 
HETATM   41  N4  UNL     1      11.532 -18.129  21.070  1.00  0.00    -0.060 NA
HETATM   42  O2  UNL     1      11.911 -16.107  22.087  1.00  0.00    -0.275 OA
ENDBRANCH  35  40
ENDBRANCH  28  31
ENDBRANCH   4  28
TORSDOF 8
ENDMDL
MODEL 2
REMARK VINA RESULT: -8.138900491      1.308      1.890
REMARK  8 active torsions:
REMARK  status: ('A' for Active; 'I' for Inactive)
REMARK    1  A    between atoms: N1_4  and  C4_5 
REMARK    2  A    between atoms: C4_5  and  O1_6 
REMARK    3  A    between atoms: C4_5  and  N2_8 
REMARK    4  A    between atoms: C6_10  and  N3_11 
REMARK    5  A    between atoms: C8_16  and  C9_17 
REMARK    6  A    between atoms: N5_26  and  C16_27 
REMARK    7  A    between atoms: C16_27  and  O3_28 
REMARK    8  A    between atoms: C16_27  and  N6_30 
ROOT
HETATM    1  C1  UNL     1      18.353 -16.650  21.001  1.00  0.00     0.034 C 
HETATM    2  C2  UNL     1      18.258 -15.712  22.222  1.00  0.00     0.102 C 
HETATM    3  C3  UNL     1      16.876 -15.288  22.490  1.00  0.00     0.152 C 
HETATM    4  N1  UNL     1      16.191 -14.455  21.552  1.00  0.00    -0.337 N 
HETATM    5  C10 UNL     1      16.693 -13.340  20.736  1.00  0.00     0.030 C 
HETATM    6  C11 UNL     1      15.709 -12.152  20.929  1.00  0.00     0.038 C 
HETATM    7  C12 UNL     1      16.645 -13.627  19.260  1.00  0.00     0.038 C 
HETATM    8  C13 UNL     1      17.947 -12.781  21.252  1.00  0.00     0.055 C 
HETATM    9  C14 UNL     1      19.227 -13.529  21.246  1.00  0.00     0.086 C 
HETATM   10  C15 UNL     1      19.740 -13.833  19.855  1.00  0.00     0.032 C 
HETATM   11  N5  UNL     1      19.291 -14.674  22.115  1.00  0.00    -0.337 N 
ENDROOT
BRANCH  11  12
HETATM   12  C16 UNL     1      20.374 -14.878  22.984  1.00  0.00     0.220 C 
BRANCH  12  13
HETATM   13  O3  UNL     1      21.354 -14.009  22.757  1.00  0.00    -0.332 OA
ATOM     14  H3  UNL     1      21.418 -13.365  23.453  1.00  0.00     0.220 HD
ENDBRANCH  12  13
BRANCH  12  15
HETATM   15  N6  UNL     1      20.638 -15.780  24.021  1.00  0.00    -0.311 N 
HETATM   16  C17 UNL     1      21.141 -17.099  24.077  1.00  0.00     0.223 C 
HETATM   17 CL1  UNL     1      19.776 -18.288  24.253  1.00  0.00    -0.097 Cl
HETATM   18  C18 UNL     1      21.942 -17.130  25.347  1.00  0.00     0.023 A 
HETATM   19  C19 UNL     1      22.957 -17.769  26.022  1.00  0.00     0.119 A 
HETATM   20  C20 UNL     1      21.488 -16.143  26.169  1.00  0.00     0.064 A 
HETATM   21  N7  UNL     1      23.084 -17.162  27.207  1.00  0.00    -0.311 N 
HETATM   22  N8  UNL     1      22.204 -16.180  27.308  1.00  0.00    -0.302 N 
ATOM     23  H7  UNL     1      23.760 -17.419  27.926  1.00  0.00     0.186 HD
ATOM     24  H8  UNL     1      22.088 -15.559  28.109  1.00  0.00     0.186 HD
HETATM   25  C21 UNL     1      20.393 -15.443  25.442  1.00  0.00     0.075 C 
HETATM   26  C22 UNL     1      19.084 -15.999  25.926  1.00  0.00     0.045 C 
HETATM   27  C23 UNL     1      20.466 -13.977  25.746  1.00  0.00     0.045 C 
ENDBRANCH  12  15
ENDBRANCH  11  12
BRANCH   4  28
HETATM   28  C4  UNL     1      14.829 -14.705  21.444  1.00  0.00     0.218 C 
BRANCH  28  29
HETATM   29  O1  UNL     1      14.096 -14.069  22.322  1.00  0.00    -0.332 OA
ATOM     30  H1  UNL     1      13.191 -14.355  22.354  1.00  0.00     0.220 HD
ENDBRANCH  28  29
BRANCH  28  31
HETATM   31  N2  UNL     1      14.074 -15.506  20.590  1.00  0.00    -0.332 N 
HETATM   32  C5  UNL     1      13.520 -15.374  19.271  1.00  0.00     0.160 C 
HETATM   33  C6  UNL     1      13.431 -16.779  18.678  1.00  0.00     0.204 C 
HETATM   34  C7  UNL     1      13.897 -17.692  19.778  1.00  0.00     0.069 C 
HETATM   35  C8  UNL     1      13.638 -16.871  20.996  1.00  0.00     0.179 C 
BRANCH  33  36
HETATM   36  N3  UNL     1      14.255 -16.931  17.503  1.00  0.00    -0.073 N 
ATOM     37  H33 UNL     1      14.036 -17.796  17.008  1.00  0.00     0.274 HD
ATOM     38  H32 UNL     1      13.994 -16.259  16.780  1.00  0.00     0.274 HD
ATOM     39  H31 UNL     1      15.250 -16.871  17.718  1.00  0.00     0.274 HD
ENDBRANCH  33  36
BRANCH  35  40
HETATM   40  C9  UNL     1      12.244 -16.858  21.451  1.00  0.00     0.254 C 
HETATM   41  N4  UNL     1      11.332 -17.910  21.189  1.00  0.00    -0.060 NA
HETATM   42  O2  UNL     1      11.841 -15.867  22.102  1.00  0.00    -0.275 OA
ENDBRANCH  35  40
ENDBRANCH  28  31
ENDBRANCH   4  28
TORSDOF 8
ENDMDL
MODEL 3
REMARK VINA RESULT: -7.902856681      2.568      3.964
REMARK  8 active torsions:
REMARK  status: ('A' for Active; 'I' for Inactive)
REMARK    1  A    between atoms: N1_4  and  C4_5 
REMARK    2  A    between atoms: C4_5  and  O1_6 
REMARK    3  A    between atoms: C4_5  and  N2_8 
REMARK    4  A    between atoms: C6_10  and  N3_11 
REMARK    5  A    between atoms: C8_16  and  C9_17 
REMARK    6  A    between atoms: N5_26  and  C16_27 
REMARK    7  A    between atoms: C16_27  and  O3_28 
REMARK    8  A    between atoms: C16_27  and  N6_30 
ROOT
HETATM    1  C1  UNL     1      17.185 -17.099  21.485  1.00  0.00     0.034 C 
HETATM    2  C2  UNL     1      17.035 -16.051  22.606  1.00  0.00     0.102 C 
HETATM    3  C3  UNL     1      15.927 -15.119  22.351  1.00  0.00     0.152 C 
HETATM    4  N1  UNL     1      15.995 -14.214  21.248  1.00  0.00    -0.337 N 
HETATM    5  C10 UNL     1      17.142 -13.470  20.706  1.00  0.00     0.030 C 
HETATM    6  C11 UNL     1      16.694 -11.989  20.549  1.00  0.00     0.038 C 
HETATM    7  C12 UNL     1      17.511 -13.897  19.312  1.00  0.00     0.038 C 
HETATM    8  C13 UNL     1      18.245 -13.353  21.667  1.00  0.00     0.055 C 
HETATM    9  C14 UNL     1      19.049 -14.513  22.119  1.00  0.00     0.086 C 
HETATM   10  C15 UNL     1      19.860 -15.152  21.011  1.00  0.00     0.032 C 
HETATM   11  N5  UNL     1      18.355 -15.486  22.919  1.00  0.00    -0.337 N 
ENDROOT
BRANCH  11  12
HETATM   12  C16 UNL     1      18.892 -15.966  24.123  1.00  0.00     0.220 C 
BRANCH  12  13
HETATM   13  O3  UNL     1      17.940 -16.358  24.962  1.00  0.00    -0.332 OA
ATOM     14  H3  UNL     1      17.535 -17.170  24.678  1.00  0.00     0.220 HD
ENDBRANCH  12  13
BRANCH  12  15
HETATM   15  N6  UNL     1      20.192 -16.123  24.618  1.00  0.00    -0.311 N 
HETATM   16  C17 UNL     1      21.183 -17.122  24.490  1.00  0.00     0.223 C 
HETATM   17 CL1  UNL     1      21.183 -18.200  25.955  1.00  0.00    -0.097 Cl
HETATM   18  C18 UNL     1      22.475 -16.355  24.486  1.00  0.00     0.023 A 
HETATM   19  C19 UNL     1      23.800 -16.386  24.116  1.00  0.00     0.119 A 
HETATM   20  C20 UNL     1      22.267 -15.153  25.092  1.00  0.00     0.064 A 
HETATM   21  N7  UNL     1      24.343 -15.226  24.501  1.00  0.00    -0.311 N 
HETATM   22  N8  UNL     1      23.429 -14.474  25.091  1.00  0.00    -0.302 N 
ATOM     23  H7  UNL     1      25.317 -14.961  24.361  1.00  0.00     0.186 HD
ATOM     24  H8  UNL     1      23.578 -13.542  25.478  1.00  0.00     0.186 HD
HETATM   25  C21 UNL     1      20.833 -15.110  25.489  1.00  0.00     0.075 C 
HETATM   26  C22 UNL     1      20.740 -15.489  26.940  1.00  0.00     0.045 C 
HETATM   27  C23 UNL     1      20.314 -13.717  25.294  1.00  0.00     0.045 C 
ENDBRANCH  12  15
ENDBRANCH  11  12
BRANCH   4  28
HETATM   28  C4  UNL     1      14.777 -13.958  20.634  1.00  0.00     0.218 C 
BRANCH  28  29
HETATM   29  O1  UNL     1      14.645 -14.508  19.455  1.00  0.00    -0.332 OA
ATOM     30  H1  UNL     1      15.158 -15.298  19.334  1.00  0.00     0.220 HD
ENDBRANCH  28  29
BRANCH  28  31
HETATM   31  N2  UNL     1      13.656 -13.223  21.015  1.00  0.00    -0.332 N 
HETATM   32  C5  UNL     1      12.267 -13.504  21.250  1.00  0.00     0.160 C 
HETATM   33  C6  UNL     1      11.767 -12.483  22.270  1.00  0.00     0.204 C 
HETATM   34  C7  UNL     1      12.944 -11.581  22.522  1.00  0.00     0.069 C 
HETATM   35  C8  UNL     1      13.745 -11.759  21.276  1.00  0.00     0.179 C 
BRANCH  33  36
HETATM   36  N3  UNL     1      11.327 -13.105  23.496  1.00  0.00    -0.073 N 
ATOM     37  H33 UNL     1      10.383 -12.806  23.743  1.00  0.00     0.274 HD
ATOM     38  H32 UNL     1      11.152 -14.101  23.362  1.00  0.00     0.274 HD
ATOM     39  H31 UNL     1      11.978 -12.946  24.265  1.00  0.00     0.274 HD
ENDBRANCH  33  36
BRANCH  35  40
HETATM   40  C9  UNL     1      13.269 -10.994  20.118  1.00  0.00     0.254 C 
HETATM   41  N4  UNL     1      13.363 -11.464  18.785  1.00  0.00    -0.060 NA
HETATM   42  O2  UNL     1      12.756  -9.869  20.320  1.00  0.00    -0.275 OA
ENDBRANCH  35  40
ENDBRANCH  28  31
ENDBRANCH   4  28
TORSDOF 8
ENDMDL
MODEL 4
REMARK VINA RESULT: -7.838078928      2.742      4.187
REMARK  8 active torsions:
REMARK  status: ('A' for Active; 'I' for Inactive)
REMARK    1  A    between atoms: N1_4  and  C4_5 
REMARK    2  A    between atoms: C4_5  and  O1_6 
REMARK    3  A    between atoms: C4_5  and  N2_8 
REMARK    4  A    between atoms: C6_10  and  N3_11 
REMARK    5  A    between atoms: C8_16  and  C9_17 
REMARK    6  A    between atoms: N5_26  and  C16_27 
REMARK    7  A    between atoms: C16_27  and  O3_28 
REMARK    8  A    between atoms: C16_27  and  N6_30 
ROOT
HETATM    1  C1  UNL     1      18.049 -15.234  24.923  1.00  0.00     0.034 C 
HETATM    2  C2  UNL     1      18.911 -14.978  23.671  1.00  0.00     0.102 C 
HETATM    3  C3  UNL     1      18.156 -14.302  22.605  1.00  0.00     0.152 C 
HETATM    4  N1  UNL     1      17.073 -14.976  21.961  1.00  0.00    -0.337 N 
HETATM    5  C10 UNL     1      16.933 -16.388  21.576  1.00  0.00     0.030 C 
HETATM    6  C11 UNL     1      16.462 -16.415  20.094  1.00  0.00     0.038 C 
HETATM    7  C12 UNL     1      15.838 -17.094  22.327  1.00  0.00     0.038 C 
HETATM    8  C13 UNL     1      18.223 -17.083  21.496  1.00  0.00     0.055 C 
HETATM    9  C14 UNL     1      19.067 -17.357  22.684  1.00  0.00     0.086 C 
HETATM   10  C15 UNL     1      18.426 -18.309  23.671  1.00  0.00     0.032 C 
HETATM   11  N5  UNL     1      19.641 -16.206  23.328  1.00  0.00    -0.337 N 
ENDROOT
BRANCH  11  12
HETATM   12  C16 UNL     1      21.002 -16.154  23.664  1.00  0.00     0.220 C 
BRANCH  12  13
HETATM   13  O3  UNL     1      21.535 -14.974  23.366  1.00  0.00    -0.332 OA
ATOM     14  H3  UNL     1      22.102 -14.660  24.061  1.00  0.00     0.220 HD
ENDBRANCH  12  13
BRANCH  12  15
HETATM   15  N6  UNL     1      21.901 -17.059  24.240  1.00  0.00    -0.311 N 
HETATM   16  C17 UNL     1      22.941 -17.872  23.735  1.00  0.00     0.223 C 
HETATM   17 CL1  UNL     1      22.356 -19.580  23.517  1.00  0.00    -0.097 Cl
HETATM   18  C18 UNL     1      23.966 -17.876  24.833  1.00  0.00     0.023 A 
HETATM   19  C19 UNL     1      25.296 -18.071  25.130  1.00  0.00     0.119 A 
HETATM   20  C20 UNL     1      23.345 -17.574  26.007  1.00  0.00     0.064 A 
HETATM   21  N7  UNL     1      25.435 -17.886  26.447  1.00  0.00    -0.311 N 
HETATM   22  N8  UNL     1      24.266 -17.585  26.987  1.00  0.00    -0.302 N 
ATOM     23  H7  UNL     1      26.314 -17.965  26.959  1.00  0.00     0.186 HD
ATOM     24  H8  UNL     1      24.093 -17.396  27.975  1.00  0.00     0.186 HD
HETATM   25  C21 UNL     1      21.906 -17.354  25.691  1.00  0.00     0.075 C 
HETATM   26  C22 UNL     1      21.162 -18.622  26.001  1.00  0.00     0.045 C 
HETATM   27  C23 UNL     1      21.385 -16.238  26.545  1.00  0.00     0.045 C 
ENDBRANCH  12  15
ENDBRANCH  11  12
BRANCH   4  28
HETATM   28  C4  UNL     1      16.018 -14.152  21.591  1.00  0.00     0.218 C 
BRANCH  28  29
HETATM   29  O1  UNL     1      15.025 -14.140  22.442  1.00  0.00    -0.332 OA
ATOM     30  H1  UNL     1      15.226 -13.718  23.269  1.00  0.00     0.220 HD
ENDBRANCH  28  29
BRANCH  28  31
HETATM   31  N2  UNL     1      15.793 -13.331  20.488  1.00  0.00    -0.332 N 
HETATM   32  C5  UNL     1      16.601 -12.509  19.630  1.00  0.00     0.160 C 
HETATM   33  C6  UNL     1      15.905 -12.456  18.272  1.00  0.00     0.204 C 
HETATM   34  C7  UNL     1      14.632 -13.235  18.460  1.00  0.00     0.069 C 
HETATM   35  C8  UNL     1      14.424 -13.141  19.934  1.00  0.00     0.179 C 
BRANCH  33  36
HETATM   36  N3  UNL     1      16.709 -13.034  17.222  1.00  0.00    -0.073 N 
ATOM     37  H33 UNL     1      16.504 -12.602  16.321  1.00  0.00     0.274 HD
ATOM     38  H32 UNL     1      17.688 -12.761  17.314  1.00  0.00     0.274 HD
ATOM     39  H31 UNL     1      16.613 -14.048  17.176  1.00  0.00     0.274 HD
ENDBRANCH  33  36
BRANCH  35  40
HETATM   40  C9  UNL     1      13.845 -11.876  20.399  1.00  0.00     0.254 C 
HETATM   41  N4  UNL     1      13.899 -11.448  21.749  1.00  0.00    -0.060 NA
HETATM   42  O2  UNL     1      13.276 -11.140  19.561  1.00  0.00    -0.275 OA
ENDBRANCH  35  40
ENDBRANCH  28  31
ENDBRANCH   4  28
TORSDOF 8
ENDMDL
MODEL 5
REMARK VINA RESULT: -7.801687218      2.544      4.268
REMARK  8 active torsions:
REMARK  status: ('A' for Active; 'I' for Inactive)
REMARK    1  A    between atoms: N1_4  and  C4_5 
REMARK    2  A    between atoms: C4_5  and  O1_6 
REMARK    3  A    between atoms: C4_5  and  N2_8 
REMARK    4  A    between atoms: C6_10  and  N3_11 
REMARK    5  A    between atoms: C8_16  and  C9_17 
REMARK    6  A    between atoms: N5_26  and  C16_27 
REMARK    7  A    between atoms: C16_27  and  O3_28 
REMARK    8  A    between atoms: C16_27  and  N6_30 
ROOT
HETATM    1  C1  UNL     1      17.697 -14.888  23.110  1.00  0.00     0.034 C 
HETATM    2  C2  UNL     1      18.307 -15.557  21.862  1.00  0.00     0.102 C 
HETATM    3  C3  UNL     1      17.483 -15.349  20.662  1.00  0.00     0.152 C 
HETATM    4  N1  UNL     1      16.182 -15.934  20.580  1.00  0.00    -0.337 N 
HETATM    5  C10 UNL     1      15.704 -17.244  21.047  1.00  0.00     0.030 C 
HETATM    6  C11 UNL     1      14.934 -17.898  19.865  1.00  0.00     0.038 C 
HETATM    7  C12 UNL     1      14.681 -17.136  22.144  1.00  0.00     0.038 C 
HETATM    8  C13 UNL     1      16.795 -18.200  21.263  1.00  0.00     0.055 C 
HETATM    9  C14 UNL     1      17.805 -18.043  22.338  1.00  0.00     0.086 C 
HETATM   10  C15 UNL     1      17.221 -18.138  23.731  1.00  0.00     0.032 C 
HETATM   11  N5  UNL     1      18.706 -16.930  22.197  1.00  0.00    -0.337 N 
ENDROOT
BRANCH  11  12
HETATM   12  C16 UNL     1      20.093 -17.085  22.343  1.00  0.00     0.220 C 
BRANCH  12  13
HETATM   13  O3  UNL     1      20.700 -17.191  21.166  1.00  0.00    -0.332 OA
ATOM     14  H3  UNL     1      21.645 -17.231  21.262  1.00  0.00     0.220 HD
ENDBRANCH  12  13
BRANCH  12  15
HETATM   15  N6  UNL     1      20.958 -17.145  23.442  1.00  0.00    -0.311 N 
HETATM   16  C17 UNL     1      21.655 -18.188  24.092  1.00  0.00     0.223 C 
HETATM   17 CL1  UNL     1      20.758 -18.710  25.585  1.00  0.00    -0.097 Cl
HETATM   18  C18 UNL     1      22.942 -17.548  24.531  1.00  0.00     0.023 A 
HETATM   19  C19 UNL     1      24.248 -17.783  24.894  1.00  0.00     0.119 A 
HETATM   20  C20 UNL     1      22.750 -16.202  24.613  1.00  0.00     0.064 A 
HETATM   21  N7  UNL     1      24.796 -16.597  25.179  1.00  0.00    -0.311 N 
HETATM   22  N8  UNL     1      23.903 -15.635  25.013  1.00  0.00    -0.302 N 
ATOM     23  H7  UNL     1      25.760 -16.455  25.479  1.00  0.00     0.186 HD
ATOM     24  H8  UNL     1      24.060 -14.638  25.163  1.00  0.00     0.186 HD
HETATM   25  C21 UNL     1      21.339 -15.941  24.215  1.00  0.00     0.075 C 
HETATM   26  C22 UNL     1      20.520 -15.804  25.466  1.00  0.00     0.045 C 
HETATM   27  C23 UNL     1      21.283 -14.665  23.429  1.00  0.00     0.045 C 
ENDBRANCH  12  15
ENDBRANCH  11  12
BRANCH   4  28
HETATM   28  C4  UNL     1      15.245 -15.167  19.900  1.00  0.00     0.218 C 
BRANCH  28  29
HETATM   29  O1  UNL     1      15.388 -15.173  18.600  1.00  0.00    -0.332 OA
ATOM     30  H1  UNL     1      15.874 -14.432  18.259  1.00  0.00     0.220 HD
ENDBRANCH  28  29
BRANCH  28  31
HETATM   31  N2  UNL     1      14.176 -14.379  20.322  1.00  0.00    -0.332 N 
HETATM   32  C5  UNL     1      12.763 -14.565  20.503  1.00  0.00     0.160 C 
HETATM   33  C6  UNL     1      12.319 -13.597  21.598  1.00  0.00     0.204 C 
HETATM   34  C7  UNL     1      13.556 -12.819  21.951  1.00  0.00     0.069 C 
HETATM   35  C8  UNL     1      14.374 -12.954  20.711  1.00  0.00     0.179 C 
BRANCH  33  36
HETATM   36  N3  UNL     1      11.798 -14.284  22.756  1.00  0.00    -0.073 N 
ATOM     37  H33 UNL     1      11.392 -15.184  22.499  1.00  0.00     0.274 HD
ATOM     38  H32 UNL     1      12.551 -14.612  23.360  1.00  0.00     0.274 HD
ATOM     39  H31 UNL     1      11.131 -13.714  23.276  1.00  0.00     0.274 HD
ENDBRANCH  33  36
BRANCH  35  40
HETATM   40  C9  UNL     1      13.992 -12.057  19.615  1.00  0.00     0.254 C 
HETATM   41  N4  UNL     1      14.388 -12.262  18.270  1.00  0.00    -0.060 NA
HETATM   42  O2  UNL     1      13.281 -11.061  19.884  1.00  0.00    -0.275 OA
ENDBRANCH  35  40
ENDBRANCH  28  31
ENDBRANCH   4  28
TORSDOF 8
ENDMDL
