MODEL 1
REMARK VINA RESULT: -6.924334623      0.000      0.000
REMARK  8 active torsions:
REMARK  status: ('A' for Active; 'I' for Inactive)
REMARK    1  A    between atoms: N1_2  and  C2_4 
REMARK    2  A    between atoms: C2_4  and  N2_6 
REMARK    3  A    between atoms: N2_6  and  N3_8 
REMARK    4  A    between atoms: N3_8  and  C3_10 
REMARK    5  A    between atoms: C3_10  and  N4_12 
REMARK       I    between atoms: N4_12  and  C4_14 
REMARK    6  A    between atoms: C4_14  and  C5_16 
REMARK    7  A    between atoms: C5_16  and  C6_17 
REMARK       I    between atoms: C6_17  and  N5_19 
REMARK    8  A    between atoms: N5_19  and  N6_21 
ROOT
HETATM    1  N4  UNL     1       8.107   0.334  90.180  1.00  0.00    -0.302 N 
ATOM      2  H4  UNL     1       8.264  -0.666  90.049  1.00  0.00     0.171 HD
HETATM    3  C4  UNL     1       7.136   0.968  89.366  1.00  0.00     0.232 C 
HETATM    4  O1  UNL     1       6.936   2.185  89.516  1.00  0.00    -0.273 OA
ENDROOT
BRANCH   1   5
HETATM    5  C3  UNL     1       8.873   1.002  91.167  1.00  0.00     0.193 C 
HETATM    6  S2  UNL     1       8.612   0.663  92.729  1.00  0.00    -0.039 SA
BRANCH   5   7
HETATM    7  N3  UNL     1       9.861   1.960  90.807  1.00  0.00    -0.274 N 
ATOM      8  H3  UNL     1      10.832   1.670  90.688  1.00  0.00     0.189 HD
BRANCH   7   9
HETATM    9  N2  UNL     1       9.504   3.297  90.616  1.00  0.00    -0.274 N 
ATOM     10  H2  UNL     1       9.671   3.728  89.706  1.00  0.00     0.189 HD
BRANCH   9  11
HETATM   11  C2  UNL     1       8.915   4.076  91.647  1.00  0.00     0.186 C 
HETATM   12  S1  UNL     1       9.809   4.854  92.763  1.00  0.00    -0.040 SA
BRANCH  11  13
HETATM   13  N1  UNL     1       7.503   4.187  91.717  1.00  0.00    -0.370 N 
HETATM   14  C1  UNL     1       6.857   4.843  92.863  1.00  0.00     0.148 C 
ATOM     15  H1  UNL     1       6.930   3.809  90.964  1.00  0.00     0.161 HD
ENDBRANCH  11  13
ENDBRANCH   9  11
ENDBRANCH   7   9
ENDBRANCH   5   7
ENDBRANCH   1   5
BRANCH   3  16
HETATM   16  C5  UNL     1       6.387   0.194  88.367  1.00  0.00     0.207 C 
BRANCH  16  17
HETATM   17  C6  UNL     1       5.152  -0.338  88.991  1.00  0.00     0.244 C 
HETATM   18  O2  UNL     1       4.915  -1.551  89.208  1.00  0.00    -0.271 OA
HETATM   19  N5  UNL     1       4.171   0.626  89.366  1.00  0.00    -0.276 N 
ATOM     20  H5  UNL     1       4.327   1.621  89.206  1.00  0.00     0.189 HD
BRANCH  19  21
HETATM   21  N6  UNL     1       2.990   0.171  89.958  1.00  0.00    -0.343 N 
ATOM     22  H62 UNL     1       2.327  -0.379  89.414  1.00  0.00     0.176 HD
ATOM     23  H61 UNL     1       2.819   0.405  90.936  1.00  0.00     0.176 HD
ENDBRANCH  19  21
ENDBRANCH  16  17
ENDBRANCH   3  16
TORSDOF 8
ENDMDL
MODEL 2
REMARK VINA RESULT: -6.652239609      3.157      6.247
REMARK  8 active torsions:
REMARK  status: ('A' for Active; 'I' for Inactive)
REMARK    1  A    between atoms: N1_2  and  C2_4 
REMARK    2  A    between atoms: C2_4  and  N2_6 
REMARK    3  A    between atoms: N2_6  and  N3_8 
REMARK    4  A    between atoms: N3_8  and  C3_10 
REMARK    5  A    between atoms: C3_10  and  N4_12 
REMARK       I    between atoms: N4_12  and  C4_14 
REMARK    6  A    between atoms: C4_14  and  C5_16 
REMARK    7  A    between atoms: C5_16  and  C6_17 
REMARK       I    between atoms: C6_17  and  N5_19 
REMARK    8  A    between atoms: N5_19  and  N6_21 
ROOT
HETATM    1  N4  UNL     1       8.553   3.413  92.623  1.00  0.00    -0.302 N 
ATOM      2  H4  UNL     1       9.547   3.463  92.850  1.00  0.00     0.171 HD
HETATM    3  C4  UNL     1       7.829   4.628  92.539  1.00  0.00     0.232 C 
HETATM    4  O1  UNL     1       6.618   4.582  92.264  1.00  0.00    -0.273 OA
ENDROOT
BRANCH   1   5
HETATM    5  C3  UNL     1       7.983   2.134  92.411  1.00  0.00     0.193 C 
HETATM    6  S2  UNL     1       8.574   0.865  93.226  1.00  0.00    -0.039 SA
BRANCH   5   7
HETATM    7  N3  UNL     1       6.907   1.950  91.500  1.00  0.00    -0.274 N 
ATOM      8  H3  UNL     1       5.964   1.779  91.852  1.00  0.00     0.189 HD
BRANCH   7   9
HETATM    9  N2  UNL     1       7.138   2.002  90.123  1.00  0.00    -0.274 N 
ATOM     10  H2  UNL     1       7.264   2.911  89.678  1.00  0.00     0.189 HD
BRANCH   9  11
HETATM   11  C2  UNL     1       7.204   0.830  89.324  1.00  0.00     0.186 C 
HETATM   12  S1  UNL     1       5.866   0.064  88.798  1.00  0.00    -0.040 SA
BRANCH  11  13
HETATM   13  N1  UNL     1       8.468   0.300  88.964  1.00  0.00    -0.370 N 
HETATM   14  C1  UNL     1       9.081  -0.782  89.747  1.00  0.00     0.148 C 
ATOM     15  H1  UNL     1       8.959   0.675  88.152  1.00  0.00     0.161 HD
ENDBRANCH  11  13
ENDBRANCH   9  11
ENDBRANCH   7   9
ENDBRANCH   5   7
ENDBRANCH   1   5
BRANCH   3  16
HETATM   16  C5  UNL     1       8.504   5.911  92.774  1.00  0.00     0.207 C 
BRANCH  16  17
HETATM   17  C6  UNL     1       7.878   6.582  93.939  1.00  0.00     0.244 C 
HETATM   18  O2  UNL     1       8.015   7.794  94.237  1.00  0.00    -0.271 OA
HETATM   19  N5  UNL     1       7.061   5.764  94.773  1.00  0.00    -0.276 N 
ATOM     20  H5  UNL     1       6.926   4.775  94.564  1.00  0.00     0.189 HD
BRANCH  19  21
HETATM   21  N6  UNL     1       6.450   6.353  95.883  1.00  0.00    -0.343 N 
ATOM     22  H62 UNL     1       6.651   7.325  96.118  1.00  0.00     0.176 HD
ATOM     23  H61 UNL     1       5.809   5.787  96.438  1.00  0.00     0.176 HD
ENDBRANCH  19  21
ENDBRANCH  16  17
ENDBRANCH   3  16
TORSDOF 8
ENDMDL
MODEL 3
REMARK VINA RESULT: -6.579322867      1.201      1.482
REMARK  8 active torsions:
REMARK  status: ('A' for Active; 'I' for Inactive)
REMARK    1  A    between atoms: N1_2  and  C2_4 
REMARK    2  A    between atoms: C2_4  and  N2_6 
REMARK    3  A    between atoms: N2_6  and  N3_8 
REMARK    4  A    between atoms: N3_8  and  C3_10 
REMARK    5  A    between atoms: C3_10  and  N4_12 
REMARK       I    between atoms: N4_12  and  C4_14 
REMARK    6  A    between atoms: C4_14  and  C5_16 
REMARK    7  A    between atoms: C5_16  and  C6_17 
REMARK       I    between atoms: C6_17  and  N5_19 
REMARK    8  A    between atoms: N5_19  and  N6_21 
ROOT
HETATM    1  N4  UNL     1       7.514   0.684  90.588  1.00  0.00    -0.302 N 
ATOM      2  H4  UNL     1       7.564  -0.316  90.788  1.00  0.00     0.171 HD
HETATM    3  C4  UNL     1       6.880   1.091  89.388  1.00  0.00     0.232 C 
HETATM    4  O1  UNL     1       6.812   2.305  89.132  1.00  0.00    -0.273 OA
ENDROOT
BRANCH   1   5
HETATM    5  C3  UNL     1       8.082   1.579  91.528  1.00  0.00     0.193 C 
HETATM    6  S2  UNL     1       9.672   1.501  91.826  1.00  0.00    -0.039 SA
BRANCH   5   7
HETATM    7  N3  UNL     1       7.281   2.538  92.208  1.00  0.00    -0.274 N 
ATOM      8  H3  UNL     1       6.687   2.247  92.984  1.00  0.00     0.189 HD
BRANCH   7   9
HETATM    9  N2  UNL     1       7.307   3.878  91.813  1.00  0.00    -0.274 N 
ATOM     10  H2  UNL     1       6.997   4.122  90.873  1.00  0.00     0.189 HD
BRANCH   9  11
HETATM   11  C2  UNL     1       7.752   4.911  92.679  1.00  0.00     0.186 C 
HETATM   12  S1  UNL     1       9.323   5.323  92.801  1.00  0.00    -0.040 SA
BRANCH  11  13
HETATM   13  N1  UNL     1       6.809   5.615  93.469  1.00  0.00    -0.370 N 
HETATM   14  C1  UNL     1       7.238   6.393  94.639  1.00  0.00     0.148 C 
ATOM     15  H1  UNL     1       5.820   5.581  93.222  1.00  0.00     0.161 HD
ENDBRANCH  11  13
ENDBRANCH   9  11
ENDBRANCH   7   9
ENDBRANCH   5   7
ENDBRANCH   1   5
BRANCH   3  16
HETATM   16  C5  UNL     1       6.318   0.091  88.471  1.00  0.00     0.207 C 
BRANCH  16  17
HETATM   17  C6  UNL     1       5.039  -0.414  89.027  1.00  0.00     0.244 C 
HETATM   18  O2  UNL     1       4.754  -1.623  89.206  1.00  0.00    -0.271 OA
HETATM   19  N5  UNL     1       4.072   0.573  89.378  1.00  0.00    -0.276 N 
ATOM     20  H5  UNL     1       4.267   1.566  89.247  1.00  0.00     0.189 HD
BRANCH  19  21
HETATM   21  N6  UNL     1       2.852   0.145  89.906  1.00  0.00    -0.343 N 
ATOM     22  H62 UNL     1       1.993   0.275  89.372  1.00  0.00     0.176 HD
ATOM     23  H61 UNL     1       2.851  -0.294  90.827  1.00  0.00     0.176 HD
ENDBRANCH  19  21
ENDBRANCH  16  17
ENDBRANCH   3  16
TORSDOF 8
ENDMDL
MODEL 4
REMARK VINA RESULT: -6.521230546      4.888      5.547
REMARK  8 active torsions:
REMARK  status: ('A' for Active; 'I' for Inactive)
REMARK    1  A    between atoms: N1_2  and  C2_4 
REMARK    2  A    between atoms: C2_4  and  N2_6 
REMARK    3  A    between atoms: N2_6  and  N3_8 
REMARK    4  A    between atoms: N3_8  and  C3_10 
REMARK    5  A    between atoms: C3_10  and  N4_12 
REMARK       I    between atoms: N4_12  and  C4_14 
REMARK    6  A    between atoms: C4_14  and  C5_16 
REMARK    7  A    between atoms: C5_16  and  C6_17 
REMARK       I    between atoms: C6_17  and  N5_19 
REMARK    8  A    between atoms: N5_19  and  N6_21 
ROOT
HETATM    1  N4  UNL     1       5.582   2.330  94.710  1.00  0.00    -0.302 N 
ATOM      2  H4  UNL     1       4.955   2.077  93.946  1.00  0.00     0.171 HD
HETATM    3  C4  UNL     1       5.274   1.853  96.008  1.00  0.00     0.232 C 
HETATM    4  O1  UNL     1       6.028   2.155  96.948  1.00  0.00    -0.273 OA
ENDROOT
BRANCH   1   5
HETATM    5  C3  UNL     1       6.706   3.138  94.408  1.00  0.00     0.193 C 
HETATM    6  S2  UNL     1       7.934   2.495  93.570  1.00  0.00    -0.039 SA
BRANCH   5   7
HETATM    7  N3  UNL     1       6.771   4.496  94.828  1.00  0.00    -0.274 N 
ATOM      8  H3  UNL     1       6.813   4.720  95.822  1.00  0.00     0.189 HD
BRANCH   7   9
HETATM    9  N2  UNL     1       6.776   5.522  93.880  1.00  0.00    -0.274 N 
ATOM     10  H2  UNL     1       6.002   5.588  93.219  1.00  0.00     0.189 HD
BRANCH   9  11
HETATM   11  C2  UNL     1       7.825   6.476  93.806  1.00  0.00     0.186 C 
HETATM   12  S1  UNL     1       7.945   7.714  94.858  1.00  0.00    -0.040 SA
BRANCH  11  13
HETATM   13  N1  UNL     1       8.805   6.359  92.789  1.00  0.00    -0.370 N 
HETATM   14  C1  UNL     1      10.067   5.649  93.039  1.00  0.00     0.148 C 
ATOM     15  H1  UNL     1       8.633   6.774  91.873  1.00  0.00     0.161 HD
ENDBRANCH  11  13
ENDBRANCH   9  11
ENDBRANCH   7   9
ENDBRANCH   5   7
ENDBRANCH   1   5
BRANCH   3  16
HETATM   16  C5  UNL     1       4.085   1.020  96.229  1.00  0.00     0.207 C 
BRANCH  16  17
HETATM   17  C6  UNL     1       3.027   1.420  95.270  1.00  0.00     0.244 C 
HETATM   18  O2  UNL     1       2.845   0.910  94.138  1.00  0.00    -0.271 OA
HETATM   19  N5  UNL     1       2.161   2.470  95.691  1.00  0.00    -0.276 N 
ATOM     20  H5  UNL     1       2.277   2.911  96.603  1.00  0.00     0.189 HD
BRANCH  19  21
HETATM   21  N6  UNL     1       1.148   2.882  94.820  1.00  0.00    -0.343 N 
ATOM     22  H62 UNL     1       0.592   2.187  94.323  1.00  0.00     0.176 HD
ATOM     23  H61 UNL     1       0.989   3.882  94.703  1.00  0.00     0.176 HD
ENDBRANCH  19  21
ENDBRANCH  16  17
ENDBRANCH   3  16
TORSDOF 8
ENDMDL
MODEL 5
REMARK VINA RESULT: -6.412732421      3.494      4.980
REMARK  8 active torsions:
REMARK  status: ('A' for Active; 'I' for Inactive)
REMARK    1  A    between atoms: N1_2  and  C2_4 
REMARK    2  A    between atoms: C2_4  and  N2_6 
REMARK    3  A    between atoms: N2_6  and  N3_8 
REMARK    4  A    between atoms: N3_8  and  C3_10 
REMARK    5  A    between atoms: C3_10  and  N4_12 
REMARK       I    between atoms: N4_12  and  C4_14 
REMARK    6  A    between atoms: C4_14  and  C5_16 
REMARK    7  A    between atoms: C5_16  and  C6_17 
REMARK       I    between atoms: C6_17  and  N5_19 
REMARK    8  A    between atoms: N5_19  and  N6_21 
ROOT
HETATM    1  N4  UNL     1       6.070   3.414  93.794  1.00  0.00    -0.302 N 
ATOM      2  H4  UNL     1       5.071   3.618  93.808  1.00  0.00     0.171 HD
HETATM    3  C4  UNL     1       6.517   2.232  94.434  1.00  0.00     0.232 C 
HETATM    4  O1  UNL     1       7.732   1.971  94.425  1.00  0.00    -0.273 OA
ENDROOT
BRANCH   1   5
HETATM    5  C3  UNL     1       6.927   4.330  93.135  1.00  0.00     0.193 C 
HETATM    6  S2  UNL     1       7.358   5.692  93.899  1.00  0.00    -0.039 SA
BRANCH   5   7
HETATM    7  N3  UNL     1       7.411   4.073  91.823  1.00  0.00    -0.274 N 
ATOM      8  H3  UNL     1       7.072   4.628  91.037  1.00  0.00     0.189 HD
BRANCH   7   9
HETATM    9  N2  UNL     1       8.348   3.059  91.608  1.00  0.00    -0.274 N 
ATOM     10  H2  UNL     1       9.266   3.134  92.048  1.00  0.00     0.189 HD
BRANCH   9  11
HETATM   11  C2  UNL     1       8.065   1.928  90.798  1.00  0.00     0.186 C 
HETATM   12  S1  UNL     1       8.855   0.515  90.978  1.00  0.00    -0.040 SA
BRANCH  11  13
HETATM   13  N1  UNL     1       7.065   2.018  89.798  1.00  0.00    -0.370 N 
HETATM   14  C1  UNL     1       6.624   0.823  89.065  1.00  0.00     0.148 C 
ATOM     15  H1  UNL     1       6.645   2.923  89.585  1.00  0.00     0.161 HD
ENDBRANCH  11  13
ENDBRANCH   9  11
ENDBRANCH   7   9
ENDBRANCH   5   7
ENDBRANCH   1   5
BRANCH   3  16
HETATM   16  C5  UNL     1       5.555   1.338  95.094  1.00  0.00     0.207 C 
BRANCH  16  17
HETATM   17  C6  UNL     1       4.188   1.663  94.622  1.00  0.00     0.244 C 
HETATM   18  O2  UNL     1       3.788   1.562  93.436  1.00  0.00    -0.271 OA
HETATM   19  N5  UNL     1       3.273   2.126  95.612  1.00  0.00    -0.276 N 
ATOM     20  H5  UNL     1       3.561   2.222  96.585  1.00  0.00     0.189 HD
BRANCH  19  21
HETATM   21  N6  UNL     1       1.973   2.444  95.213  1.00  0.00    -0.343 N 
ATOM     22  H62 UNL     1       1.691   2.310  94.243  1.00  0.00     0.176 HD
ATOM     23  H61 UNL     1       1.328   2.809  95.915  1.00  0.00     0.176 HD
ENDBRANCH  19  21
ENDBRANCH  16  17
ENDBRANCH   3  16
TORSDOF 8
ENDMDL
