MODEL 1
REMARK VINA RESULT: -7.386352289      0.000      0.000
REMARK  9 active torsions:
REMARK  status: ('A' for Active; 'I' for Inactive)
REMARK    1  A    between atoms: C2_2  and  O1_3 
REMARK    2  A    between atoms: O1_3  and  C3_4 
REMARK    3  A    between atoms: C3_4  and  C4_6 
REMARK    4  A    between atoms: C4_6  and  N1_7 
REMARK       I    between atoms: N1_7  and  C5_9 
REMARK    5  A    between atoms: C5_9  and  C6_11 
REMARK    6  A    between atoms: C8_13  and  C9_14 
REMARK       I    between atoms: C9_14  and  N2_16 
REMARK    7  A    between atoms: N2_16  and  N3_18 
REMARK    8  A    between atoms: C10_20  and  C11_21 
REMARK    9  A    between atoms: C14_30  and  O9_31 
ROOT
HETATM    1  C6  UNL     1      35.565  19.550   4.969  1.00  0.00     0.071 C 
HETATM    2  C7  UNL     1      34.554  19.615   4.000  1.00  0.00     0.043 C 
HETATM    3  C8  UNL     1      34.182  18.614   3.079  1.00  0.00     0.102 C 
HETATM    4  C12 UNL     1      34.293  17.255   3.248  1.00  0.00     0.264 C 
HETATM    5  O7  UNL     1      33.419  16.526   2.793  1.00  0.00    -0.267 OA
HETATM    6  N4  UNL     1      35.308  16.619   3.896  1.00  0.00    -0.287 N 
ATOM      7  H4  UNL     1      35.520  15.672   3.582  1.00  0.00     0.172 HD
HETATM    8  C13 UNL     1      36.071  17.099   4.911  1.00  0.00     0.282 C 
HETATM    9  O8  UNL     1      36.960  16.371   5.391  1.00  0.00    -0.265 OA
HETATM   10  C14 UNL     1      35.984  18.363   5.517  1.00  0.00     0.150 C 
ENDROOT
BRANCH   1  11
HETATM   11  C5  UNL     1      36.180  20.802   5.345  1.00  0.00     0.255 C 
HETATM   12  N1  UNL     1      37.531  21.143   5.298  1.00  0.00    -0.347 N 
ATOM     13  H1  UNL     1      38.205  20.459   4.954  1.00  0.00     0.163 HD
HETATM   14  O3  UNL     1      35.403  21.737   5.775  1.00  0.00    -0.268 OA
BRANCH  12  15
HETATM   15  C4  UNL     1      38.001  22.445   5.728  1.00  0.00     0.233 C 
BRANCH  15  16
HETATM   16  C3  UNL     1      39.057  22.388   6.755  1.00  0.00     0.276 C 
HETATM   17  O2  UNL     1      39.022  21.539   7.662  1.00  0.00    -0.263 OA
BRANCH  16  18
HETATM   18  O1  UNL     1      40.096  23.290   6.706  1.00  0.00    -0.321 OA
BRANCH  18  19
HETATM   19  C2  UNL     1      40.666  23.740   5.481  1.00  0.00     0.174 C 
HETATM   20  C1  UNL     1      40.459  25.211   5.277  1.00  0.00     0.034 C 
ENDBRANCH  18  19
ENDBRANCH  16  18
ENDBRANCH  15  16
ENDBRANCH  12  15
ENDBRANCH   1  11
BRANCH  10  21
HETATM   21  O9  UNL     1      36.359  18.457   6.839  1.00  0.00    -0.355 OA
ATOM     22  H9  UNL     1      36.752  17.665   7.187  1.00  0.00     0.218 HD
ENDBRANCH  10  21
BRANCH   3  23
HETATM   23  C9  UNL     1      33.656  19.068   1.823  1.00  0.00     0.275 C 
HETATM   24  O4  UNL     1      34.503  19.522   0.984  1.00  0.00    -0.266 OA
HETATM   25  N2  UNL     1      32.313  19.042   1.473  1.00  0.00    -0.266 N 
ATOM     26  H2  UNL     1      31.622  18.682   2.132  1.00  0.00     0.190 HD
BRANCH  25  27
HETATM   27  N3  UNL     1      31.907  19.507   0.224  1.00  0.00    -0.302 N 
HETATM   28  C10 UNL     1      31.536  20.703  -0.004  1.00  0.00     0.191 C 
ATOM     29  H3  UNL     1      31.909  18.850  -0.556  1.00  0.00     0.186 HD
BRANCH  28  30
HETATM   30  C11 UNL     1      31.133  21.089  -1.334  1.00  0.00     0.216 C 
HETATM   31  O5  UNL     1      31.151  20.240  -2.263  1.00  0.00    -0.643 OA
HETATM   32  O6  UNL     1      30.730  22.395  -1.572  1.00  0.00    -0.643 OA
ENDBRANCH  28  30
ENDBRANCH  25  27
ENDBRANCH   3  23
TORSDOF 9
ENDMDL
MODEL 2
REMARK VINA RESULT: -7.385123827      1.851      8.618
REMARK  9 active torsions:
REMARK  status: ('A' for Active; 'I' for Inactive)
REMARK    1  A    between atoms: C2_2  and  O1_3 
REMARK    2  A    between atoms: O1_3  and  C3_4 
REMARK    3  A    between atoms: C3_4  and  C4_6 
REMARK    4  A    between atoms: C4_6  and  N1_7 
REMARK       I    between atoms: N1_7  and  C5_9 
REMARK    5  A    between atoms: C5_9  and  C6_11 
REMARK    6  A    between atoms: C8_13  and  C9_14 
REMARK       I    between atoms: C9_14  and  N2_16 
REMARK    7  A    between atoms: N2_16  and  N3_18 
REMARK    8  A    between atoms: C10_20  and  C11_21 
REMARK    9  A    between atoms: C14_30  and  O9_31 
ROOT
HETATM    1  C6  UNL     1      33.220  19.042   1.277  1.00  0.00     0.071 C 
HETATM    2  C7  UNL     1      34.416  19.529   1.823  1.00  0.00     0.043 C 
HETATM    3  C8  UNL     1      34.921  19.305   3.121  1.00  0.00     0.102 C 
HETATM    4  C12 UNL     1      34.705  18.201   3.910  1.00  0.00     0.264 C 
HETATM    5  O7  UNL     1      35.615  17.791   4.621  1.00  0.00    -0.267 OA
HETATM    6  N4  UNL     1      33.543  17.494   3.979  1.00  0.00    -0.287 N 
ATOM      7  H4  UNL     1      33.352  17.026   4.865  1.00  0.00     0.172 HD
HETATM    8  C13 UNL     1      32.609  17.340   3.006  1.00  0.00     0.282 C 
HETATM    9  O8  UNL     1      31.601  16.648   3.245  1.00  0.00    -0.265 OA
HETATM   10  C14 UNL     1      32.633  17.880   1.710  1.00  0.00     0.150 C 
ENDROOT
BRANCH   1  11
HETATM   11  C5  UNL     1      32.608  19.847   0.245  1.00  0.00     0.255 C 
HETATM   12  N1  UNL     1      31.291  20.297   0.178  1.00  0.00    -0.347 N 
ATOM     13  H1  UNL     1      30.646  20.064   0.932  1.00  0.00     0.163 HD
HETATM   14  O3  UNL     1      33.352  20.209  -0.744  1.00  0.00    -0.268 OA
BRANCH  12  15
HETATM   15  C4  UNL     1      30.815  21.091  -0.939  1.00  0.00     0.233 C 
BRANCH  15  16
HETATM   16  C3  UNL     1      30.050  20.318  -1.934  1.00  0.00     0.276 C 
HETATM   17  O2  UNL     1      29.676  19.158  -1.695  1.00  0.00    -0.263 OA
BRANCH  16  18
HETATM   18  O1  UNL     1      29.746  20.895  -3.148  1.00  0.00    -0.321 OA
BRANCH  18  19
HETATM   19  C2  UNL     1      28.484  21.497  -3.418  1.00  0.00     0.174 C 
HETATM   20  C1  UNL     1      28.489  22.964  -3.106  1.00  0.00     0.034 C 
ENDBRANCH  18  19
ENDBRANCH  16  18
ENDBRANCH  15  16
ENDBRANCH  12  15
ENDBRANCH   1  11
BRANCH  10  21
HETATM   21  O9  UNL     1      31.992  17.171   0.718  1.00  0.00    -0.355 OA
ATOM     22  H9  UNL     1      31.172  17.557   0.434  1.00  0.00     0.218 HD
ENDBRANCH  10  21
BRANCH   3  23
HETATM   23  C9  UNL     1      35.724  20.354   3.681  1.00  0.00     0.275 C 
HETATM   24  O4  UNL     1      36.443  21.017   2.862  1.00  0.00    -0.266 OA
HETATM   25  N2  UNL     1      35.764  20.686   5.028  1.00  0.00    -0.266 N 
ATOM     26  H2  UNL     1      35.195  20.167   5.697  1.00  0.00     0.190 HD
BRANCH  25  27
HETATM   27  N3  UNL     1      36.580  21.726   5.468  1.00  0.00    -0.302 N 
HETATM   28  C10 UNL     1      37.633  21.559   6.163  1.00  0.00     0.191 C 
ATOM     29  H3  UNL     1      36.318  22.679   5.218  1.00  0.00     0.186 HD
BRANCH  28  30
HETATM   30  C11 UNL     1      38.414  22.702   6.570  1.00  0.00     0.216 C 
HETATM   31  O5  UNL     1      39.018  22.683   7.674  1.00  0.00    -0.643 OA
HETATM   32  O6  UNL     1      38.488  23.808   5.737  1.00  0.00    -0.643 OA
ENDBRANCH  28  30
ENDBRANCH  25  27
ENDBRANCH   3  23
TORSDOF 9
ENDMDL
MODEL 3
REMARK VINA RESULT: -7.344103698      6.099     11.174
REMARK  9 active torsions:
REMARK  status: ('A' for Active; 'I' for Inactive)
REMARK    1  A    between atoms: C2_2  and  O1_3 
REMARK    2  A    between atoms: O1_3  and  C3_4 
REMARK    3  A    between atoms: C3_4  and  C4_6 
REMARK    4  A    between atoms: C4_6  and  N1_7 
REMARK       I    between atoms: N1_7  and  C5_9 
REMARK    5  A    between atoms: C5_9  and  C6_11 
REMARK    6  A    between atoms: C8_13  and  C9_14 
REMARK       I    between atoms: C9_14  and  N2_16 
REMARK    7  A    between atoms: N2_16  and  N3_18 
REMARK    8  A    between atoms: C10_20  and  C11_21 
REMARK    9  A    between atoms: C14_30  and  O9_31 
ROOT
HETATM    1  C6  UNL     1      30.031  23.136  -3.372  1.00  0.00     0.071 C 
HETATM    2  C7  UNL     1      29.626  24.476  -3.294  1.00  0.00     0.043 C 
HETATM    3  C8  UNL     1      29.148  25.291  -4.340  1.00  0.00     0.102 C 
HETATM    4  C12 UNL     1      28.466  24.879  -5.460  1.00  0.00     0.264 C 
HETATM    5  O7  UNL     1      27.572  25.588  -5.907  1.00  0.00    -0.267 OA
HETATM    6  N4  UNL     1      28.692  23.722  -6.141  1.00  0.00    -0.287 N 
ATOM      7  H4  UNL     1      28.477  23.736  -7.138  1.00  0.00     0.172 HD
HETATM    8  C13 UNL     1      29.171  22.551  -5.648  1.00  0.00     0.282 C 
HETATM    9  O8  UNL     1      29.310  21.585  -6.422  1.00  0.00    -0.265 OA
HETATM   10  C14 UNL     1      29.543  22.274  -4.322  1.00  0.00     0.150 C 
ENDROOT
BRANCH   1  11
HETATM   11  C5  UNL     1      31.024  22.705  -2.415  1.00  0.00     0.255 C 
HETATM   12  N1  UNL     1      30.819  22.041  -1.207  1.00  0.00    -0.347 N 
ATOM     13  H1  UNL     1      29.869  21.800  -0.927  1.00  0.00     0.163 HD
HETATM   14  O3  UNL     1      32.260  22.949  -2.693  1.00  0.00    -0.268 OA
BRANCH  12  15
HETATM   15  C4  UNL     1      31.925  21.685  -0.339  1.00  0.00     0.233 C 
BRANCH  15  16
HETATM   16  C3  UNL     1      31.923  20.272   0.078  1.00  0.00     0.276 C 
HETATM   17  O2  UNL     1      31.199  19.437  -0.490  1.00  0.00    -0.263 OA
BRANCH  16  18
HETATM   18  O1  UNL     1      32.738  19.872   1.114  1.00  0.00    -0.321 OA
BRANCH  18  19
HETATM   19  C2  UNL     1      33.560  20.781   1.839  1.00  0.00     0.174 C 
HETATM   20  C1  UNL     1      33.437  20.584   3.321  1.00  0.00     0.034 C 
ENDBRANCH  18  19
ENDBRANCH  16  18
ENDBRANCH  15  16
ENDBRANCH  12  15
ENDBRANCH   1  11
BRANCH  10  21
HETATM   21  O9  UNL     1      29.410  20.975  -3.887  1.00  0.00    -0.355 OA
ATOM     22  H9  UNL     1      29.359  20.335  -4.587  1.00  0.00     0.218 HD
ENDBRANCH  10  21
BRANCH   3  23
HETATM   23  C9  UNL     1      29.424  26.695  -4.231  1.00  0.00     0.275 C 
HETATM   24  O4  UNL     1      30.619  27.059  -4.492  1.00  0.00    -0.266 OA
HETATM   25  N2  UNL     1      28.493  27.659  -3.872  1.00  0.00    -0.266 N 
ATOM     26  H2  UNL     1      27.533  27.385  -3.661  1.00  0.00     0.190 HD
BRANCH  25  27
HETATM   27  N3  UNL     1      28.867  28.999  -3.798  1.00  0.00    -0.302 N 
HETATM   28  C10 UNL     1      28.275  29.938  -4.419  1.00  0.00     0.191 C 
ATOM     29  H3  UNL     1      29.664  29.242  -3.209  1.00  0.00     0.186 HD
BRANCH  28  30
HETATM   30  C11 UNL     1      28.738  31.297  -4.278  1.00  0.00     0.216 C 
HETATM   31  O5  UNL     1      29.889  31.610  -4.681  1.00  0.00    -0.643 OA
HETATM   32  O6  UNL     1      27.906  32.244  -3.699  1.00  0.00    -0.643 OA
ENDBRANCH  28  30
ENDBRANCH  25  27
ENDBRANCH   3  23
TORSDOF 9
ENDMDL
MODEL 4
REMARK VINA RESULT: -7.271263136      1.057      1.609
REMARK  9 active torsions:
REMARK  status: ('A' for Active; 'I' for Inactive)
REMARK    1  A    between atoms: C2_2  and  O1_3 
REMARK    2  A    between atoms: O1_3  and  C3_4 
REMARK    3  A    between atoms: C3_4  and  C4_6 
REMARK    4  A    between atoms: C4_6  and  N1_7 
REMARK       I    between atoms: N1_7  and  C5_9 
REMARK    5  A    between atoms: C5_9  and  C6_11 
REMARK    6  A    between atoms: C8_13  and  C9_14 
REMARK       I    between atoms: C9_14  and  N2_16 
REMARK    7  A    between atoms: N2_16  and  N3_18 
REMARK    8  A    between atoms: C10_20  and  C11_21 
REMARK    9  A    between atoms: C14_30  and  O9_31 
ROOT
HETATM    1  C6  UNL     1      35.349  19.875   4.600  1.00  0.00     0.071 C 
HETATM    2  C7  UNL     1      34.344  19.877   3.621  1.00  0.00     0.043 C 
HETATM    3  C8  UNL     1      33.945  18.805   2.798  1.00  0.00     0.102 C 
HETATM    4  C12 UNL     1      34.011  17.466   3.099  1.00  0.00     0.264 C 
HETATM    5  O7  UNL     1      33.117  16.724   2.710  1.00  0.00    -0.267 OA
HETATM    6  N4  UNL     1      35.003  16.864   3.813  1.00  0.00    -0.287 N 
ATOM      7  H4  UNL     1      35.186  15.885   3.594  1.00  0.00     0.172 HD
HETATM    8  C13 UNL     1      35.776  17.416   4.783  1.00  0.00     0.282 C 
HETATM    9  O8  UNL     1      36.639  16.709   5.338  1.00  0.00    -0.265 OA
HETATM   10  C14 UNL     1      35.727  18.735   5.264  1.00  0.00     0.150 C 
ENDROOT
BRANCH   1  11
HETATM   11  C5  UNL     1      36.002  21.138   4.857  1.00  0.00     0.255 C 
HETATM   12  N1  UNL     1      36.931  21.801   4.059  1.00  0.00    -0.347 N 
ATOM     13  H1  UNL     1      37.208  21.388   3.169  1.00  0.00     0.163 HD
HETATM   14  O3  UNL     1      35.699  21.748   5.953  1.00  0.00    -0.268 OA
BRANCH  12  15
HETATM   15  C4  UNL     1      37.515  23.066   4.463  1.00  0.00     0.233 C 
BRANCH  15  16
HETATM   16  C3  UNL     1      38.965  22.997   4.721  1.00  0.00     0.276 C 
HETATM   17  O2  UNL     1      39.767  22.747   3.806  1.00  0.00    -0.263 OA
BRANCH  16  18
HETATM   18  O1  UNL     1      39.434  23.214   5.998  1.00  0.00    -0.321 OA
BRANCH  18  19
HETATM   19  C2  UNL     1      38.868  22.584   7.142  1.00  0.00     0.174 C 
HETATM   20  C1  UNL     1      39.013  21.093   7.087  1.00  0.00     0.034 C 
ENDBRANCH  18  19
ENDBRANCH  16  18
ENDBRANCH  15  16
ENDBRANCH  12  15
ENDBRANCH   1  11
BRANCH  10  21
HETATM   21  O9  UNL     1      36.098  18.944   6.573  1.00  0.00    -0.355 OA
ATOM     22  H9  UNL     1      36.917  18.527   6.815  1.00  0.00     0.218 HD
ENDBRANCH  10  21
BRANCH   3  23
HETATM   23  C9  UNL     1      33.439  19.152   1.501  1.00  0.00     0.275 C 
HETATM   24  O4  UNL     1      34.298  19.548   0.645  1.00  0.00    -0.266 OA
HETATM   25  N2  UNL     1      32.105  19.080   1.128  1.00  0.00    -0.266 N 
ATOM     26  H2  UNL     1      31.405  18.763   1.799  1.00  0.00     0.190 HD
BRANCH  25  27
HETATM   27  N3  UNL     1      31.720  19.440  -0.163  1.00  0.00    -0.302 N 
HETATM   28  C10 UNL     1      31.283  20.592  -0.479  1.00  0.00     0.191 C 
ATOM     29  H3  UNL     1      31.793  18.737  -0.898  1.00  0.00     0.186 HD
BRANCH  28  30
HETATM   30  C11 UNL     1      30.909  20.868  -1.845  1.00  0.00     0.216 C 
HETATM   31  O5  UNL     1      29.778  21.361  -2.095  1.00  0.00    -0.643 OA
HETATM   32  O6  UNL     1      31.804  20.588  -2.866  1.00  0.00    -0.643 OA
ENDBRANCH  28  30
ENDBRANCH  25  27
ENDBRANCH   3  23
TORSDOF 9
ENDMDL
MODEL 5
REMARK VINA RESULT: -7.201419707      2.277      2.802
REMARK  9 active torsions:
REMARK  status: ('A' for Active; 'I' for Inactive)
REMARK    1  A    between atoms: C2_2  and  O1_3 
REMARK    2  A    between atoms: O1_3  and  C3_4 
REMARK    3  A    between atoms: C3_4  and  C4_6 
REMARK    4  A    between atoms: C4_6  and  N1_7 
REMARK       I    between atoms: N1_7  and  C5_9 
REMARK    5  A    between atoms: C5_9  and  C6_11 
REMARK    6  A    between atoms: C8_13  and  C9_14 
REMARK       I    between atoms: C9_14  and  N2_16 
REMARK    7  A    between atoms: N2_16  and  N3_18 
REMARK    8  A    between atoms: C10_20  and  C11_21 
REMARK    9  A    between atoms: C14_30  and  O9_31 
ROOT
HETATM    1  C6  UNL     1      36.476  21.204   4.261  1.00  0.00     0.071 C 
HETATM    2  C7  UNL     1      35.252  21.285   3.582  1.00  0.00     0.043 C 
HETATM    3  C8  UNL     1      34.204  20.343   3.587  1.00  0.00     0.102 C 
HETATM    4  C12 UNL     1      33.882  19.473   4.601  1.00  0.00     0.264 C 
HETATM    5  O7  UNL     1      32.701  19.224   4.818  1.00  0.00    -0.267 OA
HETATM    6  N4  UNL     1      34.773  18.845   5.416  1.00  0.00    -0.287 N 
ATOM      7  H4  UNL     1      34.483  17.940   5.789  1.00  0.00     0.172 HD
HETATM    8  C13 UNL     1      36.002  19.281   5.791  1.00  0.00     0.282 C 
HETATM    9  O8  UNL     1      36.685  18.572   6.554  1.00  0.00    -0.265 OA
HETATM   10  C14 UNL     1      36.630  20.481   5.418  1.00  0.00     0.150 C 
ENDROOT
BRANCH   1  11
HETATM   11  C5  UNL     1      37.594  21.898   3.662  1.00  0.00     0.255 C 
HETATM   12  N1  UNL     1      37.572  23.075   2.917  1.00  0.00    -0.347 N 
ATOM     13  H1  UNL     1      36.682  23.547   2.758  1.00  0.00     0.163 HD
HETATM   14  O3  UNL     1      38.766  21.386   3.827  1.00  0.00    -0.268 OA
BRANCH  12  15
HETATM   15  C4  UNL     1      38.784  23.647   2.363  1.00  0.00     0.233 C 
BRANCH  15  16
HETATM   16  C3  UNL     1      38.998  25.058   2.728  1.00  0.00     0.276 C 
HETATM   17  O2  UNL     1      39.119  25.934   1.856  1.00  0.00    -0.263 OA
BRANCH  16  18
HETATM   18  O1  UNL     1      39.064  25.409   4.059  1.00  0.00    -0.321 OA
BRANCH  18  19
HETATM   19  C2  UNL     1      40.010  24.839   4.957  1.00  0.00     0.174 C 
HETATM   20  C1  UNL     1      39.341  24.121   6.091  1.00  0.00     0.034 C 
ENDBRANCH  18  19
ENDBRANCH  16  18
ENDBRANCH  15  16
ENDBRANCH  12  15
ENDBRANCH   1  11
BRANCH  10  21
HETATM   21  O9  UNL     1      37.523  21.032   6.310  1.00  0.00    -0.355 OA
ATOM     22  H9  UNL     1      38.434  20.896   6.080  1.00  0.00     0.218 HD
ENDBRANCH  10  21
BRANCH   3  23
HETATM   23  C9  UNL     1      33.407  20.270   2.395  1.00  0.00     0.275 C 
HETATM   24  O4  UNL     1      33.712  19.352   1.564  1.00  0.00    -0.266 OA
HETATM   25  N2  UNL     1      32.347  21.116   2.101  1.00  0.00    -0.266 N 
ATOM     26  H2  UNL     1      32.088  21.855   2.755  1.00  0.00     0.190 HD
BRANCH  25  27
HETATM   27  N3  UNL     1      31.636  20.958   0.913  1.00  0.00    -0.302 N 
HETATM   28  C10 UNL     1      31.961  21.504  -0.189  1.00  0.00     0.191 C 
ATOM     29  H3  UNL     1      30.805  20.367   0.927  1.00  0.00     0.186 HD
BRANCH  28  30
HETATM   30  C11 UNL     1      31.160  21.279  -1.367  1.00  0.00     0.216 C 
HETATM   31  O5  UNL     1      30.850  20.104  -1.697  1.00  0.00    -0.643 OA
HETATM   32  O6  UNL     1      30.738  22.364  -2.122  1.00  0.00    -0.643 OA
ENDBRANCH  28  30
ENDBRANCH  25  27
ENDBRANCH   3  23
TORSDOF 9
ENDMDL
