MODEL 1
REMARK VINA RESULT: -7.355127891      0.000      0.000
REMARK  12 active torsions:
REMARK  status: ('A' for Active; 'I' for Inactive)
REMARK    1  A    between atoms: C2_2  and  N1_3 
REMARK    2  A    between atoms: C3_6  and  O1_7 
REMARK    3  A    between atoms: C5_10  and  C6_11 
REMARK    4  A    between atoms: C6_11  and  N3_12 
REMARK    5  A    between atoms: N3_12  and  C7_14 
REMARK    6  A    between atoms: C8_17  and  N5_18 
REMARK    7  A    between atoms: N5_18  and  C9_20 
REMARK    8  A    between atoms: C9_20  and  C10_21 
REMARK    9  A    between atoms: C10_21  and  O2_22 
REMARK   10  A    between atoms: N8_32  and  C15_33 
REMARK   11  A    between atoms: C15_33  and  C16_34 
REMARK   12  A    between atoms: C16_34  and  O4_35 
ROOT
HETATM    1  C7  UNL     1      32.703  19.981   0.747  1.00  0.00     0.148 A 
HETATM    2  N4  UNL     1      32.123  18.758   0.779  1.00  0.00    -0.175 N 
ATOM      3  H4  UNL     1      31.323  18.584   0.169  1.00  0.00     0.186 HD
HETATM    4  C8  UNL     1      32.550  17.761   1.577  1.00  0.00     0.681 A 
HETATM    5  N6  UNL     1      33.601  17.971   2.389  1.00  0.00    -0.174 N 
ATOM      6  H6  UNL     1      33.928  17.219   2.995  1.00  0.00     0.186 HD
HETATM    7  C11 UNL     1      34.230  19.165   2.411  1.00  0.00     0.158 A 
HETATM    8  C12 UNL     1      33.778  20.165   1.591  1.00  0.00     0.128 A 
HETATM    9  N7  UNL     1      34.541  21.249   1.778  1.00  0.00    -0.297 N 
HETATM   10  C13 UNL     1      34.420  22.528   1.120  1.00  0.00     0.161 C 
HETATM   11  C14 UNL     1      35.466  20.911   2.717  1.00  0.00     0.330 A 
HETATM   12  O3  UNL     1      36.339  21.718   3.119  1.00  0.00    -0.246 OA
HETATM   13  N8  UNL     1      35.277  19.644   3.104  1.00  0.00    -0.281 N 
ENDROOT
BRANCH   1  14
HETATM   14  N3  UNL     1      32.276  20.906  -0.019  1.00  0.00    -0.368 N 
ATOM     15  H3  UNL     1      32.141  21.829   0.393  1.00  0.00     0.161 HD
BRANCH  14  16
HETATM   16  C6  UNL     1      31.969  20.758  -1.404  1.00  0.00     0.180 C 
BRANCH  16  17
HETATM   17  C5  UNL     1      30.497  20.639  -1.651  1.00  0.00     0.050 A 
HETATM   18  N1  UNL     1      29.662  21.641  -2.013  1.00  0.00    -0.293 N 
HETATM   19  N2  UNL     1      28.438  21.174  -2.141  1.00  0.00    -0.278 N 
HETATM   20  C3  UNL     1      28.426  19.853  -1.868  1.00  0.00     0.156 A 
ATOM     21  H2  UNL     1      27.624  21.726  -2.407  1.00  0.00     0.189 HD
HETATM   22  C4  UNL     1      29.741  19.513  -1.555  1.00  0.00     0.085 A 
BRANCH  18  23
HETATM   23  C2  UNL     1      30.061  23.011  -2.226  1.00  0.00     0.144 C 
HETATM   24  C1  UNL     1      28.953  23.798  -2.918  1.00  0.00     0.028 C 
ENDBRANCH  18  23
BRANCH  20  25
HETATM   25  O1  UNL     1      27.341  18.995  -1.889  1.00  0.00    -0.345 OA
ATOM     26  H1  UNL     1      26.755  18.781  -1.172  1.00  0.00     0.219 HD
ENDBRANCH  20  25
ENDBRANCH  16  17
ENDBRANCH  14  16
ENDBRANCH   1  14
BRANCH   4  27
HETATM   27  N5  UNL     1      31.929  16.640   1.530  1.00  0.00    -0.224 N 
ATOM     28  H5  UNL     1      31.386  16.441   0.689  1.00  0.00     0.177 HD
BRANCH  27  29
HETATM   29  C9  UNL     1      31.936  15.646   2.559  1.00  0.00     0.164 C 
BRANCH  29  30
HETATM   30  C10 UNL     1      32.679  14.387   2.094  1.00  0.00     0.184 C 
BRANCH  30  31
HETATM   31  O2  UNL     1      31.801  13.625   1.318  1.00  0.00    -0.399 OA
ATOM     32  H2  UNL     1      32.315  13.126   0.694  1.00  0.00     0.209 HD
ENDBRANCH  30  31
ENDBRANCH  29  30
ENDBRANCH  27  29
ENDBRANCH   4  27
BRANCH  13  33
HETATM   33  C15 UNL     1      36.046  18.921   4.078  1.00  0.00     0.161 C 
BRANCH  33  34
HETATM   34  C16 UNL     1      35.580  19.163   5.489  1.00  0.00     0.184 C 
BRANCH  34  35
HETATM   35  O4  UNL     1      36.125  20.375   5.919  1.00  0.00    -0.399 OA
ATOM     36  H4  UNL     1      36.171  20.957   5.171  1.00  0.00     0.209 HD
ENDBRANCH  34  35
ENDBRANCH  33  34
ENDBRANCH  13  33
TORSDOF 12
ENDMDL
MODEL 2
REMARK VINA RESULT: -7.296890661      2.622      7.023
REMARK  12 active torsions:
REMARK  status: ('A' for Active; 'I' for Inactive)
REMARK    1  A    between atoms: C2_2  and  N1_3 
REMARK    2  A    between atoms: C3_6  and  O1_7 
REMARK    3  A    between atoms: C5_10  and  C6_11 
REMARK    4  A    between atoms: C6_11  and  N3_12 
REMARK    5  A    between atoms: N3_12  and  C7_14 
REMARK    6  A    between atoms: C8_17  and  N5_18 
REMARK    7  A    between atoms: N5_18  and  C9_20 
REMARK    8  A    between atoms: C9_20  and  C10_21 
REMARK    9  A    between atoms: C10_21  and  O2_22 
REMARK   10  A    between atoms: N8_32  and  C15_33 
REMARK   11  A    between atoms: C15_33  and  C16_34 
REMARK   12  A    between atoms: C16_34  and  O4_35 
ROOT
HETATM    1  C7  UNL     1      31.726  20.647  -0.562  1.00  0.00     0.148 A 
HETATM    2  N4  UNL     1      30.643  19.836  -0.508  1.00  0.00    -0.175 N 
ATOM      3  H4  UNL     1      30.467  19.316   0.352  1.00  0.00     0.186 HD
HETATM    4  C8  UNL     1      29.787  19.683  -1.537  1.00  0.00     0.681 A 
HETATM    5  N6  UNL     1      30.001  20.359  -2.680  1.00  0.00    -0.174 N 
ATOM      6  H6  UNL     1      29.355  20.245  -3.461  1.00  0.00     0.186 HD
HETATM    7  C11 UNL     1      31.061  21.185  -2.806  1.00  0.00     0.158 A 
HETATM    8  C12 UNL     1      31.918  21.325  -1.747  1.00  0.00     0.128 A 
HETATM    9  N7  UNL     1      32.886  22.185  -2.092  1.00  0.00    -0.297 N 
HETATM   10  C13 UNL     1      33.997  22.622  -1.281  1.00  0.00     0.161 C 
HETATM   11  C14 UNL     1      32.618  22.572  -3.368  1.00  0.00     0.330 A 
HETATM   12  O3  UNL     1      33.348  23.383  -3.989  1.00  0.00    -0.246 OA
HETATM   13  N8  UNL     1      31.509  21.965  -3.804  1.00  0.00    -0.281 N 
ENDROOT
BRANCH   1  14
HETATM   14  N3  UNL     1      32.519  20.772   0.428  1.00  0.00    -0.368 N 
ATOM     15  H3  UNL     1      32.390  21.586   1.030  1.00  0.00     0.161 HD
BRANCH  14  16
HETATM   16  C6  UNL     1      33.570  19.871   0.766  1.00  0.00     0.180 C 
BRANCH  16  17
HETATM   17  C5  UNL     1      33.169  18.904   1.837  1.00  0.00     0.050 A 
HETATM   18  N1  UNL     1      33.145  19.149   3.168  1.00  0.00    -0.293 N 
HETATM   19  N2  UNL     1      32.741  18.072   3.809  1.00  0.00    -0.278 N 
HETATM   20  C3  UNL     1      32.487  17.086   2.925  1.00  0.00     0.156 A 
ATOM     21  H2  UNL     1      32.636  17.996   4.820  1.00  0.00     0.189 HD
HETATM   22  C4  UNL     1      32.760  17.618   1.666  1.00  0.00     0.085 A 
BRANCH  18  23
HETATM   23  C2  UNL     1      33.507  20.402   3.783  1.00  0.00     0.144 C 
HETATM   24  C1  UNL     1      34.696  20.222   4.722  1.00  0.00     0.028 C 
ENDBRANCH  18  23
BRANCH  20  25
HETATM   25  O1  UNL     1      32.045  15.803   3.193  1.00  0.00    -0.345 OA
ATOM     26  H1  UNL     1      31.369  15.538   3.807  1.00  0.00     0.219 HD
ENDBRANCH  20  25
ENDBRANCH  16  17
ENDBRANCH  14  16
ENDBRANCH   1  14
BRANCH   4  27
HETATM   27  N5  UNL     1      28.792  18.889  -1.382  1.00  0.00    -0.224 N 
ATOM     28  H5  UNL     1      28.506  18.679  -0.426  1.00  0.00     0.177 HD
BRANCH  27  29
HETATM   29  C9  UNL     1      28.050  18.276  -2.441  1.00  0.00     0.164 C 
BRANCH  29  30
HETATM   30  C10 UNL     1      28.290  16.761  -2.466  1.00  0.00     0.184 C 
BRANCH  30  31
HETATM   31  O2  UNL     1      27.046  16.122  -2.477  1.00  0.00    -0.399 OA
ATOM     32  H2  UNL     1      26.615  16.297  -1.649  1.00  0.00     0.209 HD
ENDBRANCH  30  31
ENDBRANCH  29  30
ENDBRANCH  27  29
ENDBRANCH   4  27
BRANCH  13  33
HETATM   33  C15 UNL     1      30.902  22.112  -5.097  1.00  0.00     0.161 C 
BRANCH  33  34
HETATM   34  C16 UNL     1      29.477  22.593  -5.023  1.00  0.00     0.184 C 
BRANCH  34  35
HETATM   35  O4  UNL     1      28.642  21.495  -5.240  1.00  0.00    -0.399 OA
ATOM     36  H4  UNL     1      27.839  21.812  -5.637  1.00  0.00     0.209 HD
ENDBRANCH  34  35
ENDBRANCH  33  34
ENDBRANCH  13  33
TORSDOF 12
ENDMDL
MODEL 3
REMARK VINA RESULT: -7.249809511      2.748      4.036
REMARK  12 active torsions:
REMARK  status: ('A' for Active; 'I' for Inactive)
REMARK    1  A    between atoms: C2_2  and  N1_3 
REMARK    2  A    between atoms: C3_6  and  O1_7 
REMARK    3  A    between atoms: C5_10  and  C6_11 
REMARK    4  A    between atoms: C6_11  and  N3_12 
REMARK    5  A    between atoms: N3_12  and  C7_14 
REMARK    6  A    between atoms: C8_17  and  N5_18 
REMARK    7  A    between atoms: N5_18  and  C9_20 
REMARK    8  A    between atoms: C9_20  and  C10_21 
REMARK    9  A    between atoms: C10_21  and  O2_22 
REMARK   10  A    between atoms: N8_32  and  C15_33 
REMARK   11  A    between atoms: C15_33  and  C16_34 
REMARK   12  A    between atoms: C16_34  and  O4_35 
ROOT
HETATM    1  C7  UNL     1      32.284  21.513  -2.158  1.00  0.00     0.148 A 
HETATM    2  N4  UNL     1      31.195  20.713  -2.069  1.00  0.00    -0.175 N 
ATOM      3  H4  UNL     1      30.655  20.531  -2.915  1.00  0.00     0.186 HD
HETATM    4  C8  UNL     1      30.791  20.148  -0.915  1.00  0.00     0.681 A 
HETATM    5  N6  UNL     1      31.487  20.377   0.212  1.00  0.00    -0.174 N 
ATOM      6  H6  UNL     1      31.184  19.951   1.087  1.00  0.00     0.186 HD
HETATM    7  C11 UNL     1      32.584  21.164   0.199  1.00  0.00     0.158 A 
HETATM    8  C12 UNL     1      32.977  21.729  -0.986  1.00  0.00     0.128 A 
HETATM    9  N7  UNL     1      34.075  22.462  -0.765  1.00  0.00    -0.297 N 
HETATM   10  C13 UNL     1      34.824  23.229  -1.733  1.00  0.00     0.161 C 
HETATM   11  C14 UNL     1      34.356  22.345   0.561  1.00  0.00     0.330 A 
HETATM   12  O3  UNL     1      35.337  22.920   1.091  1.00  0.00    -0.246 OA
HETATM   13  N8  UNL     1      33.449  21.556   1.149  1.00  0.00    -0.281 N 
ENDROOT
BRANCH   1  14
HETATM   14  N3  UNL     1      32.643  22.034  -3.265  1.00  0.00    -0.368 N 
ATOM     15  H3  UNL     1      33.410  21.586  -3.765  1.00  0.00     0.161 HD
BRANCH  14  16
HETATM   16  C6  UNL     1      32.063  23.192  -3.861  1.00  0.00     0.180 C 
BRANCH  16  17
HETATM   17  C5  UNL     1      30.842  22.865  -4.665  1.00  0.00     0.050 A 
HETATM   18  N1  UNL     1      29.584  23.302  -4.423  1.00  0.00    -0.293 N 
HETATM   19  N2  UNL     1      28.764  22.816  -5.332  1.00  0.00    -0.278 N 
HETATM   20  C3  UNL     1      29.452  22.046  -6.198  1.00  0.00     0.156 A 
ATOM     21  H2  UNL     1      27.761  22.996  -5.373  1.00  0.00     0.189 HD
HETATM   22  C4  UNL     1      30.779  22.078  -5.772  1.00  0.00     0.085 A 
BRANCH  18  23
HETATM   23  C2  UNL     1      29.207  24.169  -3.334  1.00  0.00     0.144 C 
HETATM   24  C1  UNL     1      28.850  23.357  -2.093  1.00  0.00     0.028 C 
ENDBRANCH  18  23
BRANCH  20  25
HETATM   25  O1  UNL     1      28.960  21.358  -7.293  1.00  0.00    -0.345 OA
ATOM     26  H1  UNL     1      28.644  21.720  -8.113  1.00  0.00     0.219 HD
ENDBRANCH  20  25
ENDBRANCH  16  17
ENDBRANCH  14  16
ENDBRANCH   1  14
BRANCH   4  27
HETATM   27  N5  UNL     1      29.744  19.406  -0.940  1.00  0.00    -0.224 N 
ATOM     28  H5  UNL     1      29.568  18.818  -0.125  1.00  0.00     0.177 HD
BRANCH  27  29
HETATM   29  C9  UNL     1      28.804  19.337  -2.017  1.00  0.00     0.164 C 
BRANCH  29  30
HETATM   30  C10 UNL     1      28.380  17.886  -2.276  1.00  0.00     0.184 C 
BRANCH  30  31
HETATM   31  O2  UNL     1      29.146  17.055  -1.454  1.00  0.00    -0.399 OA
ATOM     32  H2  UNL     1      30.015  16.982  -1.832  1.00  0.00     0.209 HD
ENDBRANCH  30  31
ENDBRANCH  29  30
ENDBRANCH  27  29
ENDBRANCH   4  27
BRANCH  13  33
HETATM   33  C15 UNL     1      33.401  21.191   2.537  1.00  0.00     0.161 C 
BRANCH  33  34
HETATM   34  C16 UNL     1      33.937  19.808   2.796  1.00  0.00     0.184 C 
BRANCH  34  35
HETATM   35  O4  UNL     1      32.884  18.904   2.645  1.00  0.00    -0.399 OA
ATOM     36  H4  UNL     1      33.256  18.050   2.456  1.00  0.00     0.209 HD
ENDBRANCH  34  35
ENDBRANCH  33  34
ENDBRANCH  13  33
TORSDOF 12
ENDMDL
MODEL 4
REMARK VINA RESULT: -7.060337866      2.518      7.134
REMARK  12 active torsions:
REMARK  status: ('A' for Active; 'I' for Inactive)
REMARK    1  A    between atoms: C2_2  and  N1_3 
REMARK    2  A    between atoms: C3_6  and  O1_7 
REMARK    3  A    between atoms: C5_10  and  C6_11 
REMARK    4  A    between atoms: C6_11  and  N3_12 
REMARK    5  A    between atoms: N3_12  and  C7_14 
REMARK    6  A    between atoms: C8_17  and  N5_18 
REMARK    7  A    between atoms: N5_18  and  C9_20 
REMARK    8  A    between atoms: C9_20  and  C10_21 
REMARK    9  A    between atoms: C10_21  and  O2_22 
REMARK   10  A    between atoms: N8_32  and  C15_33 
REMARK   11  A    between atoms: C15_33  and  C16_34 
REMARK   12  A    between atoms: C16_34  and  O4_35 
ROOT
HETATM    1  C7  UNL     1      31.913  20.578  -0.492  1.00  0.00     0.148 A 
HETATM    2  N4  UNL     1      30.880  19.704  -0.448  1.00  0.00    -0.175 N 
ATOM      3  H4  UNL     1      30.760  19.135   0.390  1.00  0.00     0.186 HD
HETATM    4  C8  UNL     1      30.004  19.549  -1.459  1.00  0.00     0.681 A 
HETATM    5  N6  UNL     1      30.145  20.288  -2.573  1.00  0.00    -0.174 N 
ATOM      6  H6  UNL     1      29.484  20.174  -3.342  1.00  0.00     0.186 HD
HETATM    7  C11 UNL     1      31.151  21.180  -2.688  1.00  0.00     0.158 A 
HETATM    8  C12 UNL     1      32.030  21.321  -1.647  1.00  0.00     0.128 A 
HETATM    9  N7  UNL     1      32.937  22.250  -1.976  1.00  0.00    -0.297 N 
HETATM   10  C13 UNL     1      34.045  22.714  -1.175  1.00  0.00     0.161 C 
HETATM   11  C14 UNL     1      32.610  22.681  -3.225  1.00  0.00     0.330 A 
HETATM   12  O3  UNL     1      33.273  23.561  -3.825  1.00  0.00    -0.246 OA
HETATM   13  N8  UNL     1      31.524  22.031  -3.659  1.00  0.00    -0.281 N 
ENDROOT
BRANCH   1  14
HETATM   14  N3  UNL     1      32.726  20.703   0.482  1.00  0.00    -0.368 N 
ATOM     15  H3  UNL     1      32.681  21.568   1.021  1.00  0.00     0.161 HD
BRANCH  14  16
HETATM   16  C6  UNL     1      33.694  19.736   0.881  1.00  0.00     0.180 C 
BRANCH  16  17
HETATM   17  C5  UNL     1      33.405  19.167   2.235  1.00  0.00     0.050 A 
HETATM   18  N1  UNL     1      32.841  17.964   2.495  1.00  0.00    -0.293 N 
HETATM   19  N2  UNL     1      32.738  17.795   3.796  1.00  0.00    -0.278 N 
HETATM   20  C3  UNL     1      33.227  18.877   4.435  1.00  0.00     0.156 A 
ATOM     21  H2  UNL     1      32.347  16.970   4.252  1.00  0.00     0.189 HD
HETATM   22  C4  UNL     1      33.653  19.752   3.438  1.00  0.00     0.085 A 
BRANCH  18  23
HETATM   23  C2  UNL     1      32.421  17.016   1.492  1.00  0.00     0.144 C 
HETATM   24  C1  UNL     1      32.090  15.668   2.124  1.00  0.00     0.028 C 
ENDBRANCH  18  23
BRANCH  20  25
HETATM   25  O1  UNL     1      33.301  19.092   5.800  1.00  0.00    -0.345 OA
ATOM     26  H1  UNL     1      33.689  19.833   6.251  1.00  0.00     0.219 HD
ENDBRANCH  20  25
ENDBRANCH  16  17
ENDBRANCH  14  16
ENDBRANCH   1  14
BRANCH   4  27
HETATM   27  N5  UNL     1      29.061  18.692  -1.316  1.00  0.00    -0.224 N 
ATOM     28  H5  UNL     1      28.917  18.305  -0.383  1.00  0.00     0.177 HD
BRANCH  27  29
HETATM   29  C9  UNL     1      28.193  18.234  -2.358  1.00  0.00     0.164 C 
BRANCH  29  30
HETATM   30  C10 UNL     1      28.321  16.717  -2.544  1.00  0.00     0.184 C 
BRANCH  30  31
HETATM   31  O2  UNL     1      27.038  16.162  -2.495  1.00  0.00    -0.399 OA
ATOM     32  H2  UNL     1      26.737  16.032  -3.387  1.00  0.00     0.209 HD
ENDBRANCH  30  31
ENDBRANCH  29  30
ENDBRANCH  27  29
ENDBRANCH   4  27
BRANCH  13  33
HETATM   33  C15 UNL     1      30.872  22.202  -4.927  1.00  0.00     0.161 C 
BRANCH  33  34
HETATM   34  C16 UNL     1      29.427  22.604  -4.792  1.00  0.00     0.184 C 
BRANCH  34  35
HETATM   35  O4  UNL     1      28.642  21.484  -5.075  1.00  0.00    -0.399 OA
ATOM     36  H4  UNL     1      28.678  20.904  -4.324  1.00  0.00     0.209 HD
ENDBRANCH  34  35
ENDBRANCH  33  34
ENDBRANCH  13  33
TORSDOF 12
ENDMDL
MODEL 5
REMARK VINA RESULT: -6.921637130      6.633      9.868
REMARK  12 active torsions:
REMARK  status: ('A' for Active; 'I' for Inactive)
REMARK    1  A    between atoms: C2_2  and  N1_3 
REMARK    2  A    between atoms: C3_6  and  O1_7 
REMARK    3  A    between atoms: C5_10  and  C6_11 
REMARK    4  A    between atoms: C6_11  and  N3_12 
REMARK    5  A    between atoms: N3_12  and  C7_14 
REMARK    6  A    between atoms: C8_17  and  N5_18 
REMARK    7  A    between atoms: N5_18  and  C9_20 
REMARK    8  A    between atoms: C9_20  and  C10_21 
REMARK    9  A    between atoms: C10_21  and  O2_22 
REMARK   10  A    between atoms: N8_32  and  C15_33 
REMARK   11  A    between atoms: C15_33  and  C16_34 
REMARK   12  A    between atoms: C16_34  and  O4_35 
ROOT
HETATM    1  C7  UNL     1      29.132  24.220  -5.624  1.00  0.00     0.148 A 
HETATM    2  N4  UNL     1      28.640  23.453  -4.622  1.00  0.00    -0.175 N 
ATOM      3  H4  UNL     1      28.104  23.907  -3.881  1.00  0.00     0.186 HD
HETATM    4  C8  UNL     1      28.823  22.120  -4.557  1.00  0.00     0.681 A 
HETATM    5  N6  UNL     1      29.527  21.504  -5.523  1.00  0.00    -0.174 N 
ATOM      6  H6  UNL     1      29.668  20.495  -5.478  1.00  0.00     0.186 HD
HETATM    7  C11 UNL     1      30.048  22.204  -6.552  1.00  0.00     0.158 A 
HETATM    8  C12 UNL     1      29.849  23.558  -6.598  1.00  0.00     0.128 A 
HETATM    9  N7  UNL     1      30.449  24.041  -7.693  1.00  0.00    -0.297 N 
HETATM   10  C13 UNL     1      30.491  25.416  -8.133  1.00  0.00     0.161 C 
HETATM   11  C14 UNL     1      31.017  22.977  -8.322  1.00  0.00     0.330 A 
HETATM   12  O3  UNL     1      31.662  23.097  -9.391  1.00  0.00    -0.246 OA
HETATM   13  N8  UNL     1      30.775  21.859  -7.629  1.00  0.00    -0.281 N 
ENDROOT
BRANCH   1  14
HETATM   14  N3  UNL     1      28.942  25.480  -5.658  1.00  0.00    -0.368 N 
ATOM     15  H3  UNL     1      28.901  25.921  -6.577  1.00  0.00     0.161 HD
BRANCH  14  16
HETATM   16  C6  UNL     1      28.783  26.324  -4.521  1.00  0.00     0.180 C 
BRANCH  16  17
HETATM   17  C5  UNL     1      27.444  26.995  -4.495  1.00  0.00     0.050 A 
HETATM   18  N1  UNL     1      27.213  28.313  -4.288  1.00  0.00    -0.293 N 
HETATM   19  N2  UNL     1      25.918  28.548  -4.332  1.00  0.00    -0.278 N 
HETATM   20  C3  UNL     1      25.256  27.397  -4.567  1.00  0.00     0.156 A 
ATOM     21  H2  UNL     1      25.483  29.461  -4.207  1.00  0.00     0.189 HD
HETATM   22  C4  UNL     1      26.231  26.407  -4.671  1.00  0.00     0.085 A 
BRANCH  18  23
HETATM   23  C2  UNL     1      28.235  29.304  -4.056  1.00  0.00     0.144 C 
HETATM   24  C1  UNL     1      27.622  30.692  -3.909  1.00  0.00     0.028 C 
ENDBRANCH  18  23
BRANCH  20  25
HETATM   25  O1  UNL     1      23.889  27.217  -4.686  1.00  0.00    -0.345 OA
ATOM     26  H1  UNL     1      23.340  27.416  -5.435  1.00  0.00     0.219 HD
ENDBRANCH  20  25
ENDBRANCH  16  17
ENDBRANCH  14  16
ENDBRANCH   1  14
BRANCH   4  27
HETATM   27  N5  UNL     1      28.314  21.487  -3.565  1.00  0.00    -0.224 N 
ATOM     28  H5  UNL     1      27.313  21.294  -3.597  1.00  0.00     0.177 HD
BRANCH  27  29
HETATM   29  C9  UNL     1      29.036  21.030  -2.416  1.00  0.00     0.164 C 
BRANCH  29  30
HETATM   30  C10 UNL     1      28.653  19.585  -2.074  1.00  0.00     0.184 C 
BRANCH  30  31
HETATM   31  O2  UNL     1      27.898  19.601  -0.897  1.00  0.00    -0.399 OA
ATOM     32  H2  UNL     1      27.175  20.206  -1.017  1.00  0.00     0.209 HD
ENDBRANCH  30  31
ENDBRANCH  29  30
ENDBRANCH  27  29
ENDBRANCH   4  27
BRANCH  13  33
HETATM   33  C15 UNL     1      31.207  20.531  -7.965  1.00  0.00     0.161 C 
BRANCH  33  34
HETATM   34  C16 UNL     1      30.418  19.927  -9.095  1.00  0.00     0.184 C 
BRANCH  34  35
HETATM   35  O4  UNL     1      29.067  19.957  -8.740  1.00  0.00    -0.399 OA
ATOM     36  H4  UNL     1      28.940  19.347  -8.023  1.00  0.00     0.209 HD
ENDBRANCH  34  35
ENDBRANCH  33  34
ENDBRANCH  13  33
TORSDOF 12
ENDMDL
