MODEL 1
REMARK VINA RESULT: -7.506744850      0.000      0.000
REMARK  10 active torsions:
REMARK  status: ('A' for Active; 'I' for Inactive)
REMARK    1  A    between atoms: O1_2  and  C2_3 
REMARK    2  A    between atoms: C2_3  and  C3_4 
REMARK    3  A    between atoms: C3_4  and  O3_6 
REMARK    4  A    between atoms: O3_6  and  C4_7 
REMARK    5  A    between atoms: C4_7  and  N1_8 
REMARK    6  A    between atoms: C5_9  and  C6_10 
REMARK       I    between atoms: C6_10  and  N2_12 
REMARK    7  A    between atoms: N2_12  and  N3_14 
REMARK    8  A    between atoms: C7_16  and  C8_17 
REMARK    9  A    between atoms: C11_20  and  N4_21 
REMARK   10  A    between atoms: C12_26  and  O5_27 
ROOT
HETATM    1  C6  UNL     1      33.105  18.224   2.120  1.00  0.00     0.287 C 
HETATM    2  O4  UNL     1      32.203  17.462   1.605  1.00  0.00    -0.264 OA
HETATM    3  N2  UNL     1      33.024  19.574   1.799  1.00  0.00    -0.265 N 
ATOM      4  H2  UNL     1      33.713  20.233   2.161  1.00  0.00     0.190 HD
ENDROOT
BRANCH   1   5
HETATM    5  C5  UNL     1      34.085  17.555   2.957  1.00  0.00     0.115 A 
HETATM    6  N1  UNL     1      34.462  17.981   4.127  1.00  0.00    -0.272 N 
HETATM    7  C15 UNL     1      35.522  17.349   4.741  1.00  0.00     0.331 A 
HETATM    8  N6  UNL     1      36.180  16.319   4.207  1.00  0.00    -0.275 N 
HETATM    9  O7  UNL     1      35.909  17.749   5.873  1.00  0.00    -0.246 OA
HETATM   10  C14 UNL     1      35.786  15.881   3.010  1.00  0.00     0.251 A 
ATOM     11  H6  UNL     1      36.960  15.880   4.697  1.00  0.00     0.173 HD
HETATM   12  C13 UNL     1      34.747  16.454   2.333  1.00  0.00     0.110 A 
HETATM   13  O6  UNL     1      36.406  14.909   2.508  1.00  0.00    -0.268 OA
BRANCH   6  14
HETATM   14  C4  UNL     1      33.823  18.951   4.976  1.00  0.00     0.314 C 
BRANCH  14  15
HETATM   15  O3  UNL     1      34.067  20.273   4.622  1.00  0.00    -0.299 OA
BRANCH  15  16
HETATM   16  C3  UNL     1      35.183  20.982   4.624  1.00  0.00     0.284 C 
HETATM   17  O2  UNL     1      35.727  21.328   5.702  1.00  0.00    -0.263 OA
BRANCH  16  18
HETATM   18  C2  UNL     1      35.917  21.449   3.401  1.00  0.00     0.278 C 
BRANCH  18  19
HETATM   19  O1  UNL     1      35.221  21.401   2.242  1.00  0.00    -0.386 OA
HETATM   20  C1  UNL     1      35.042  22.552   1.536  1.00  0.00     0.202 C 
ENDBRANCH  18  19
ENDBRANCH  16  18
ENDBRANCH  15  16
ENDBRANCH  14  15
ENDBRANCH   6  14
ENDBRANCH   1   5
BRANCH   3  21
HETATM   21  N3  UNL     1      31.976  20.020   0.967  1.00  0.00    -0.308 N 
HETATM   22  C7  UNL     1      32.198  20.482  -0.211  1.00  0.00     0.122 C 
ATOM     23  H3  UNL     1      31.017  19.975   1.310  1.00  0.00     0.186 HD
BRANCH  22  24
HETATM   24  C8  UNL     1      31.078  20.926  -1.019  1.00  0.00     0.032 A 
HETATM   25  C9  UNL     1      30.999  22.243  -1.462  1.00  0.00     0.021 A 
HETATM   26  C10 UNL     1      29.927  22.660  -2.233  1.00  0.00     0.049 A 
HETATM   27  C11 UNL     1      28.940  21.765  -2.558  1.00  0.00     0.100 A 
HETATM   28  N5  UNL     1      29.016  20.486  -2.129  1.00  0.00    -0.323 N 
HETATM   29  C12 UNL     1      30.054  20.093  -1.386  1.00  0.00     0.153 A 
ATOM     30  H5  UNL     1      28.282  19.821  -2.372  1.00  0.00     0.169 HD
BRANCH  27  31
HETATM   31  N4  UNL     1      27.924  22.094  -3.269  1.00  0.00    -0.385 N 
ATOM     32  H42 UNL     1      27.583  23.052  -3.191  1.00  0.00     0.157 HD
ATOM     33  H41 UNL     1      27.461  21.436  -3.895  1.00  0.00     0.157 HD
ENDBRANCH  27  31
BRANCH  29  34
HETATM   34  O5  UNL     1      30.140  18.762  -0.935  1.00  0.00    -0.345 OA
ATOM     35  H5  UNL     1      29.337  18.256  -0.964  1.00  0.00     0.219 HD
ENDBRANCH  29  34
ENDBRANCH  22  24
ENDBRANCH   3  21
TORSDOF 10
ENDMDL
MODEL 2
REMARK VINA RESULT: -7.496108950      0.714      1.339
REMARK  10 active torsions:
REMARK  status: ('A' for Active; 'I' for Inactive)
REMARK    1  A    between atoms: O1_2  and  C2_3 
REMARK    2  A    between atoms: C2_3  and  C3_4 
REMARK    3  A    between atoms: C3_4  and  O3_6 
REMARK    4  A    between atoms: O3_6  and  C4_7 
REMARK    5  A    between atoms: C4_7  and  N1_8 
REMARK    6  A    between atoms: C5_9  and  C6_10 
REMARK       I    between atoms: C6_10  and  N2_12 
REMARK    7  A    between atoms: N2_12  and  N3_14 
REMARK    8  A    between atoms: C7_16  and  C8_17 
REMARK    9  A    between atoms: C11_20  and  N4_21 
REMARK   10  A    between atoms: C12_26  and  O5_27 
ROOT
HETATM    1  C6  UNL     1      33.101  18.221   2.081  1.00  0.00     0.287 C 
HETATM    2  O4  UNL     1      32.193  17.455   1.581  1.00  0.00    -0.264 OA
HETATM    3  N2  UNL     1      33.019  19.567   1.745  1.00  0.00    -0.265 N 
ATOM      4  H2  UNL     1      33.711  20.230   2.093  1.00  0.00     0.190 HD
ENDROOT
BRANCH   1   5
HETATM    5  C5  UNL     1      34.085  17.561   2.919  1.00  0.00     0.115 A 
HETATM    6  N1  UNL     1      34.439  17.977   4.100  1.00  0.00    -0.272 N 
HETATM    7  C15 UNL     1      35.505  17.358   4.716  1.00  0.00     0.331 A 
HETATM    8  N6  UNL     1      36.192  16.351   4.174  1.00  0.00    -0.275 N 
HETATM    9  O7  UNL     1      35.870  17.749   5.860  1.00  0.00    -0.246 OA
HETATM   10  C14 UNL     1      35.822  15.924   2.967  1.00  0.00     0.251 A 
ATOM     11  H6  UNL     1      36.976  15.922   4.667  1.00  0.00     0.173 HD
HETATM   12  C13 UNL     1      34.778  16.485   2.286  1.00  0.00     0.110 A 
HETATM   13  O6  UNL     1      36.468  14.973   2.457  1.00  0.00    -0.268 OA
BRANCH   6  14
HETATM   14  C4  UNL     1      33.769  18.918   4.956  1.00  0.00     0.314 C 
BRANCH  14  15
HETATM   15  O3  UNL     1      34.031  20.252   4.660  1.00  0.00    -0.299 OA
BRANCH  15  16
HETATM   16  C3  UNL     1      35.147  20.858   4.294  1.00  0.00     0.284 C 
HETATM   17  O2  UNL     1      35.313  21.248   3.111  1.00  0.00    -0.263 OA
BRANCH  16  18
HETATM   18  C2  UNL     1      36.313  21.148   5.194  1.00  0.00     0.278 C 
BRANCH  18  19
HETATM   19  O1  UNL     1      36.170  22.212   6.018  1.00  0.00    -0.386 OA
HETATM   20  C1  UNL     1      37.066  23.234   5.931  1.00  0.00     0.202 C 
ENDBRANCH  18  19
ENDBRANCH  16  18
ENDBRANCH  15  16
ENDBRANCH  14  15
ENDBRANCH   6  14
ENDBRANCH   1   5
BRANCH   3  21
HETATM   21  N3  UNL     1      31.966  20.005   0.915  1.00  0.00    -0.308 N 
HETATM   22  C7  UNL     1      32.187  20.536  -0.235  1.00  0.00     0.122 C 
ATOM     23  H3  UNL     1      31.004  19.898   1.235  1.00  0.00     0.186 HD
BRANCH  22  24
HETATM   24  C8  UNL     1      31.061  20.966  -1.043  1.00  0.00     0.032 A 
HETATM   25  C9  UNL     1      30.972  22.280  -1.494  1.00  0.00     0.021 A 
HETATM   26  C10 UNL     1      29.895  22.685  -2.264  1.00  0.00     0.049 A 
HETATM   27  C11 UNL     1      28.914  21.781  -2.581  1.00  0.00     0.100 A 
HETATM   28  N5  UNL     1      29.000  20.505  -2.144  1.00  0.00    -0.323 N 
HETATM   29  C12 UNL     1      30.042  20.124  -1.401  1.00  0.00     0.153 A 
ATOM     30  H5  UNL     1      28.270  19.834  -2.381  1.00  0.00     0.169 HD
BRANCH  27  31
HETATM   31  N4  UNL     1      27.893  22.099  -3.291  1.00  0.00    -0.385 N 
ATOM     32  H42 UNL     1      28.062  22.590  -4.169  1.00  0.00     0.157 HD
ATOM     33  H41 UNL     1      26.940  21.877  -3.005  1.00  0.00     0.157 HD
ENDBRANCH  27  31
BRANCH  29  34
HETATM   34  O5  UNL     1      30.139  18.797  -0.942  1.00  0.00    -0.345 OA
ATOM     35  H5  UNL     1      29.322  18.373  -0.708  1.00  0.00     0.219 HD
ENDBRANCH  29  34
ENDBRANCH  22  24
ENDBRANCH   3  21
TORSDOF 10
ENDMDL
MODEL 3
REMARK VINA RESULT: -7.202663231      1.796      4.033
REMARK  10 active torsions:
REMARK  status: ('A' for Active; 'I' for Inactive)
REMARK    1  A    between atoms: O1_2  and  C2_3 
REMARK    2  A    between atoms: C2_3  and  C3_4 
REMARK    3  A    between atoms: C3_4  and  O3_6 
REMARK    4  A    between atoms: O3_6  and  C4_7 
REMARK    5  A    between atoms: C4_7  and  N1_8 
REMARK    6  A    between atoms: C5_9  and  C6_10 
REMARK       I    between atoms: C6_10  and  N2_12 
REMARK    7  A    between atoms: N2_12  and  N3_14 
REMARK    8  A    between atoms: C7_16  and  C8_17 
REMARK    9  A    between atoms: C11_20  and  N4_21 
REMARK   10  A    between atoms: C12_26  and  O5_27 
ROOT
HETATM    1  C6  UNL     1      33.722  21.121   2.232  1.00  0.00     0.287 C 
HETATM    2  O4  UNL     1      34.159  21.944   1.342  1.00  0.00    -0.264 OA
HETATM    3  N2  UNL     1      32.411  20.689   2.075  1.00  0.00    -0.265 N 
ATOM      4  H2  UNL     1      31.994  20.047   2.749  1.00  0.00     0.190 HD
ENDROOT
BRANCH   1   5
HETATM    5  C5  UNL     1      34.666  20.771   3.278  1.00  0.00     0.115 A 
HETATM    6  N1  UNL     1      34.429  19.905   4.219  1.00  0.00    -0.272 N 
HETATM    7  C15 UNL     1      35.342  19.792   5.246  1.00  0.00     0.331 A 
HETATM    8  N6  UNL     1      36.459  20.516   5.328  1.00  0.00    -0.275 N 
HETATM    9  O7  UNL     1      35.129  18.962   6.173  1.00  0.00    -0.246 OA
HETATM   10  C14 UNL     1      36.700  21.399   4.358  1.00  0.00     0.251 A 
ATOM     11  H6  UNL     1      37.107  20.400   6.108  1.00  0.00     0.173 HD
HETATM   12  C13 UNL     1      35.846  21.575   3.307  1.00  0.00     0.110 A 
HETATM   13  O6  UNL     1      37.755  22.080   4.435  1.00  0.00    -0.268 OA
BRANCH   6  14
HETATM   14  C4  UNL     1      33.398  18.903   4.276  1.00  0.00     0.314 C 
BRANCH  14  15
HETATM   15  O3  UNL     1      33.575  17.846   3.391  1.00  0.00    -0.299 OA
BRANCH  15  16
HETATM   16  C3  UNL     1      32.750  17.300   2.514  1.00  0.00     0.284 C 
HETATM   17  O2  UNL     1      32.482  17.879   1.432  1.00  0.00    -0.263 OA
BRANCH  16  18
HETATM   18  C2  UNL     1      32.054  15.981   2.680  1.00  0.00     0.278 C 
BRANCH  18  19
HETATM   19  O1  UNL     1      32.687  14.909   2.149  1.00  0.00    -0.386 OA
HETATM   20  C1  UNL     1      32.032  13.716   2.105  1.00  0.00     0.202 C 
ENDBRANCH  18  19
ENDBRANCH  16  18
ENDBRANCH  15  16
ENDBRANCH  14  15
ENDBRANCH   6  14
ENDBRANCH   1   5
BRANCH   3  21
HETATM   21  N3  UNL     1      31.663  21.150   0.972  1.00  0.00    -0.308 N 
HETATM   22  C7  UNL     1      31.661  20.525  -0.152  1.00  0.00     0.122 C 
ATOM     23  H3  UNL     1      31.110  22.001   1.068  1.00  0.00     0.186 HD
BRANCH  22  24
HETATM   24  C8  UNL     1      30.871  21.050  -1.250  1.00  0.00     0.032 A 
HETATM   25  C9  UNL     1      31.083  22.341  -1.724  1.00  0.00     0.021 A 
HETATM   26  C10 UNL     1      30.326  22.836  -2.772  1.00  0.00     0.049 A 
HETATM   27  C11 UNL     1      29.362  22.044  -3.342  1.00  0.00     0.100 A 
HETATM   28  N5  UNL     1      29.155  20.790  -2.882  1.00  0.00    -0.323 N 
HETATM   29  C12 UNL     1      29.890  20.322  -1.871  1.00  0.00     0.153 A 
ATOM     30  H5  UNL     1      28.439  20.202  -3.307  1.00  0.00     0.169 HD
BRANCH  27  31
HETATM   31  N4  UNL     1      28.630  22.449  -4.316  1.00  0.00    -0.385 N 
ATOM     32  H42 UNL     1      28.644  23.444  -4.536  1.00  0.00     0.157 HD
ATOM     33  H41 UNL     1      28.049  21.813  -4.861  1.00  0.00     0.157 HD
ENDBRANCH  27  31
BRANCH  29  34
HETATM   34  O5  UNL     1      29.680  19.017  -1.386  1.00  0.00    -0.345 OA
ATOM     35  H5  UNL     1      29.733  18.905  -0.445  1.00  0.00     0.219 HD
ENDBRANCH  29  34
ENDBRANCH  22  24
ENDBRANCH   3  21
TORSDOF 10
ENDMDL
MODEL 4
REMARK VINA RESULT: -7.078303793      2.728      8.626
REMARK  10 active torsions:
REMARK  status: ('A' for Active; 'I' for Inactive)
REMARK    1  A    between atoms: O1_2  and  C2_3 
REMARK    2  A    between atoms: C2_3  and  C3_4 
REMARK    3  A    between atoms: C3_4  and  O3_6 
REMARK    4  A    between atoms: O3_6  and  C4_7 
REMARK    5  A    between atoms: C4_7  and  N1_8 
REMARK    6  A    between atoms: C5_9  and  C6_10 
REMARK       I    between atoms: C6_10  and  N2_12 
REMARK    7  A    between atoms: N2_12  and  N3_14 
REMARK    8  A    between atoms: C7_16  and  C8_17 
REMARK    9  A    between atoms: C11_20  and  N4_21 
REMARK   10  A    between atoms: C12_26  and  O5_27 
ROOT
HETATM    1  C6  UNL     1      31.604  20.604  -0.338  1.00  0.00     0.287 C 
HETATM    2  O4  UNL     1      32.717  20.134  -0.786  1.00  0.00    -0.264 OA
HETATM    3  N2  UNL     1      31.607  21.026   0.986  1.00  0.00    -0.265 N 
ATOM      4  H2  UNL     1      30.758  21.397   1.412  1.00  0.00     0.190 HD
ENDROOT
BRANCH   1   5
HETATM    5  C5  UNL     1      30.503  20.617  -1.284  1.00  0.00     0.115 A 
HETATM    6  N1  UNL     1      30.163  21.649  -1.999  1.00  0.00    -0.272 N 
HETATM    7  C15 UNL     1      28.997  21.580  -2.730  1.00  0.00     0.331 A 
HETATM    8  N6  UNL     1      28.196  20.513  -2.750  1.00  0.00    -0.275 N 
HETATM    9  O7  UNL     1      28.644  22.572  -3.426  1.00  0.00    -0.246 OA
HETATM   10  C14 UNL     1      28.552  19.455  -2.020  1.00  0.00     0.251 A 
ATOM     11  H6  UNL     1      27.341  20.506  -3.306  1.00  0.00     0.173 HD
HETATM   12  C13 UNL     1      29.691  19.442  -1.266  1.00  0.00     0.110 A 
HETATM   13  O6  UNL     1      27.799  18.448  -2.042  1.00  0.00    -0.268 OA
BRANCH   6  14
HETATM   14  C4  UNL     1      30.924  22.838  -2.273  1.00  0.00     0.314 C 
BRANCH  14  15
HETATM   15  O3  UNL     1      32.009  22.644  -3.122  1.00  0.00    -0.299 OA
BRANCH  15  16
HETATM   16  C3  UNL     1      32.152  21.873  -4.186  1.00  0.00     0.284 C 
HETATM   17  O2  UNL     1      32.765  20.778  -4.113  1.00  0.00    -0.263 OA
BRANCH  16  18
HETATM   18  C2  UNL     1      31.631  22.182  -5.559  1.00  0.00     0.278 C 
BRANCH  18  19
HETATM   19  O1  UNL     1      30.553  21.465  -5.955  1.00  0.00    -0.386 OA
HETATM   20  C1  UNL     1      29.669  22.034  -6.821  1.00  0.00     0.202 C 
ENDBRANCH  18  19
ENDBRANCH  16  18
ENDBRANCH  15  16
ENDBRANCH  14  15
ENDBRANCH   6  14
ENDBRANCH   1   5
BRANCH   3  21
HETATM   21  N3  UNL     1      32.800  20.934   1.734  1.00  0.00    -0.308 N 
HETATM   22  C7  UNL     1      32.798  20.578   2.969  1.00  0.00     0.122 C 
ATOM     23  H3  UNL     1      33.687  21.157   1.283  1.00  0.00     0.186 HD
BRANCH  22  24
HETATM   24  C8  UNL     1      34.058  20.502   3.684  1.00  0.00     0.032 A 
HETATM   25  C9  UNL     1      35.180  21.182   3.220  1.00  0.00     0.021 A 
HETATM   26  C10 UNL     1      36.379  21.106   3.907  1.00  0.00     0.049 A 
HETATM   27  C11 UNL     1      36.456  20.354   5.052  1.00  0.00     0.100 A 
HETATM   28  N5  UNL     1      35.366  19.694   5.503  1.00  0.00    -0.323 N 
HETATM   29  C12 UNL     1      34.215  19.773   4.833  1.00  0.00     0.153 A 
ATOM     30  H5  UNL     1      35.424  19.136   6.354  1.00  0.00     0.169 HD
BRANCH  27  31
HETATM   31  N4  UNL     1      37.540  20.247   5.730  1.00  0.00    -0.385 N 
ATOM     32  H42 UNL     1      38.252  20.965   5.600  1.00  0.00     0.157 HD
ATOM     33  H41 UNL     1      37.702  19.478   6.380  1.00  0.00     0.157 HD
ENDBRANCH  27  31
BRANCH  29  34
HETATM   34  O5  UNL     1      33.076  19.088   5.297  1.00  0.00    -0.345 OA
ATOM     35  H5  UNL     1      32.738  19.358   6.142  1.00  0.00     0.219 HD
ENDBRANCH  29  34
ENDBRANCH  22  24
ENDBRANCH   3  21
TORSDOF 10
ENDMDL
MODEL 5
REMARK VINA RESULT: -6.973081564      1.572      3.460
REMARK  10 active torsions:
REMARK  status: ('A' for Active; 'I' for Inactive)
REMARK    1  A    between atoms: O1_2  and  C2_3 
REMARK    2  A    between atoms: C2_3  and  C3_4 
REMARK    3  A    between atoms: C3_4  and  O3_6 
REMARK    4  A    between atoms: O3_6  and  C4_7 
REMARK    5  A    between atoms: C4_7  and  N1_8 
REMARK    6  A    between atoms: C5_9  and  C6_10 
REMARK       I    between atoms: C6_10  and  N2_12 
REMARK    7  A    between atoms: N2_12  and  N3_14 
REMARK    8  A    between atoms: C7_16  and  C8_17 
REMARK    9  A    between atoms: C11_20  and  N4_21 
REMARK   10  A    between atoms: C12_26  and  O5_27 
ROOT
HETATM    1  C6  UNL     1      34.186  21.373   2.076  1.00  0.00     0.287 C 
HETATM    2  O4  UNL     1      34.215  22.450   1.370  1.00  0.00    -0.264 OA
HETATM    3  N2  UNL     1      33.058  20.574   1.929  1.00  0.00    -0.265 N 
ATOM      4  H2  UNL     1      32.961  19.713   2.466  1.00  0.00     0.190 HD
ENDROOT
BRANCH   1   5
HETATM    5  C5  UNL     1      35.338  21.155   2.932  1.00  0.00     0.115 A 
HETATM    6  N1  UNL     1      35.267  20.759   4.169  1.00  0.00    -0.272 N 
HETATM    7  C15 UNL     1      36.423  20.757   4.920  1.00  0.00     0.331 A 
HETATM    8  N6  UNL     1      37.614  21.133   4.450  1.00  0.00    -0.275 N 
HETATM    9  O7  UNL     1      36.376  20.382   6.125  1.00  0.00    -0.246 OA
HETATM   10  C14 UNL     1      37.682  21.532   3.180  1.00  0.00     0.251 A 
ATOM     11  H6  UNL     1      38.443  21.115   5.043  1.00  0.00     0.173 HD
HETATM   12  C13 UNL     1      36.584  21.567   2.368  1.00  0.00     0.110 A 
HETATM   13  O6  UNL     1      38.805  21.884   2.736  1.00  0.00    -0.268 OA
BRANCH   6  14
HETATM   14  C4  UNL     1      34.155  20.157   4.855  1.00  0.00     0.314 C 
BRANCH  14  15
HETATM   15  O3  UNL     1      33.837  18.875   4.420  1.00  0.00    -0.299 OA
BRANCH  15  16
HETATM   16  C3  UNL     1      34.607  17.874   4.030  1.00  0.00     0.284 C 
HETATM   17  O2  UNL     1      35.456  17.371   4.808  1.00  0.00    -0.263 OA
BRANCH  16  18
HETATM   18  C2  UNL     1      34.578  17.233   2.674  1.00  0.00     0.278 C 
BRANCH  18  19
HETATM   19  O1  UNL     1      33.603  17.663   1.840  1.00  0.00    -0.386 OA
HETATM   20  C1  UNL     1      32.424  16.982   1.803  1.00  0.00     0.202 C 
ENDBRANCH  18  19
ENDBRANCH  16  18
ENDBRANCH  15  16
ENDBRANCH  14  15
ENDBRANCH   6  14
ENDBRANCH   1   5
BRANCH   3  21
HETATM   21  N3  UNL     1      32.049  20.970   1.027  1.00  0.00    -0.308 N 
HETATM   22  C7  UNL     1      31.888  20.386  -0.107  1.00  0.00     0.122 C 
ATOM     23  H3  UNL     1      31.431  21.741   1.280  1.00  0.00     0.186 HD
BRANCH  22  24
HETATM   24  C8  UNL     1      30.831  20.840  -0.992  1.00  0.00     0.032 A 
HETATM   25  C9  UNL     1      30.749  22.176  -1.373  1.00  0.00     0.021 A 
HETATM   26  C10 UNL     1      29.738  22.603  -2.217  1.00  0.00     0.049 A 
HETATM   27  C11 UNL     1      28.815  21.699  -2.677  1.00  0.00     0.100 A 
HETATM   28  N5  UNL     1      28.895  20.401  -2.307  1.00  0.00    -0.323 N 
HETATM   29  C12 UNL     1      29.873  19.999  -1.493  1.00  0.00     0.153 A 
ATOM     30  H5  UNL     1      28.208  19.730  -2.650  1.00  0.00     0.169 HD
BRANCH  27  31
HETATM   31  N4  UNL     1      27.857  22.037  -3.462  1.00  0.00    -0.385 N 
ATOM     32  H42 UNL     1      28.024  22.807  -4.107  1.00  0.00     0.157 HD
ATOM     33  H41 UNL     1      26.954  21.563  -3.454  1.00  0.00     0.157 HD
ENDBRANCH  27  31
BRANCH  29  34
HETATM   34  O5  UNL     1      29.962  18.650  -1.103  1.00  0.00    -0.345 OA
ATOM     35  H5  UNL     1      30.147  18.488  -0.186  1.00  0.00     0.219 HD
ENDBRANCH  29  34
ENDBRANCH  22  24
ENDBRANCH   3  21
TORSDOF 10
ENDMDL
