MODEL 1
REMARK VINA RESULT: -6.752009498      0.000      0.000
REMARK  9 active torsions:
REMARK  status: ('A' for Active; 'I' for Inactive)
REMARK    1  A    between atoms: N1_1  and  C1_4 
REMARK    2  A    between atoms: C7_14  and  S1_15 
REMARK    3  A    between atoms: S1_15  and  C8_18 
REMARK    4  A    between atoms: C8_18  and  O4_19 
REMARK    5  A    between atoms: O4_19  and  C9_20 
REMARK    6  A    between atoms: C9_20  and  C10_21 
REMARK    7  A    between atoms: C10_21  and  O5_22 
REMARK    8  A    between atoms: O5_22  and  S2_23 
REMARK    9  A    between atoms: S2_23  and  N4_24 
ROOT
HETATM    1  C1  UNL     1      32.402  20.843   0.799  1.00  0.00     0.679 A 
HETATM    2  N2  UNL     1      32.953  21.835   0.062  1.00  0.00    -0.156 N 
ATOM      3  H2  UNL     1      32.526  22.167  -0.802  1.00  0.00     0.187 HD
HETATM    4  C2  UNL     1      34.099  22.357   0.539  1.00  0.00     0.274 A 
HETATM    5  O1  UNL     1      34.644  23.279  -0.112  1.00  0.00    -0.267 OA
HETATM    6  C3  UNL     1      34.695  21.922   1.711  1.00  0.00     0.085 A 
HETATM    7  C4  UNL     1      35.870  22.469   2.184  1.00  0.00     0.064 A 
HETATM    8  N3  UNL     1      36.514  23.516   1.471  1.00  0.00    -0.101 NA
HETATM    9  C5  UNL     1      36.450  22.023   3.353  1.00  0.00     0.029 A 
HETATM   10  C6  UNL     1      35.873  21.010   4.090  1.00  0.00     0.028 A 
HETATM   11  C7  UNL     1      34.686  20.454   3.615  1.00  0.00     0.089 A 
HETATM   12  C11 UNL     1      34.103  20.899   2.447  1.00  0.00     0.088 A 
HETATM   13  N5  UNL     1      32.962  20.403   1.939  1.00  0.00    -0.189 N 
ATOM     14  H5  UNL     1      32.495  19.651   2.446  1.00  0.00     0.184 HD
ENDROOT
BRANCH  11  15
HETATM   15  S1  UNL     1      33.920  19.190   4.494  1.00  0.00     0.199 S 
HETATM   16  O2  UNL     1      32.556  19.569   5.024  1.00  0.00    -0.220 OA
HETATM   17  O3  UNL     1      33.722  18.009   3.584  1.00  0.00    -0.220 OA
BRANCH  15  18
HETATM   18  C8  UNL     1      34.875  18.608   5.870  1.00  0.00     0.313 C 
BRANCH  18  19
HETATM   19  O4  UNL     1      35.626  17.509   5.582  1.00  0.00    -0.374 OA
BRANCH  19  20
HETATM   20  C9  UNL     1      36.952  17.663   5.864  1.00  0.00     0.196 C 
BRANCH  20  21
HETATM   21  C10 UNL     1      37.788  16.447   5.550  1.00  0.00     0.218 C 
BRANCH  21  22
HETATM   22  O5  UNL     1      37.866  16.410   4.134  1.00  0.00    -0.258 OA
BRANCH  22  23
HETATM   23  S2  UNL     1      36.971  15.070   3.653  1.00  0.00     0.355 S 
HETATM   24  O6  UNL     1      36.932  14.073   4.757  1.00  0.00    -0.176 OA
HETATM   25  O7  UNL     1      37.666  14.503   2.433  1.00  0.00    -0.176 OA
BRANCH  23  26
HETATM   26  N4  UNL     1      35.415  15.618   3.192  1.00  0.00    -0.306 N 
ATOM     27  H42 UNL     1      34.980  15.463   2.282  1.00  0.00     0.171 HD
ATOM     28  H41 UNL     1      35.013  16.119   3.986  1.00  0.00     0.171 HD
ENDBRANCH  23  26
ENDBRANCH  22  23
ENDBRANCH  21  22
ENDBRANCH  20  21
ENDBRANCH  19  20
ENDBRANCH  18  19
ENDBRANCH  15  18
ENDBRANCH  11  15
BRANCH   1  29
HETATM   29  N1  UNL     1      31.305  20.335   0.352  1.00  0.00    -0.234 N 
ATOM     30  H12 UNL     1      30.579  20.002   0.987  1.00  0.00     0.174 HD
ATOM     31  H11 UNL     1      31.205  20.285  -0.662  1.00  0.00     0.174 HD
ENDBRANCH   1  29
TORSDOF 9
ENDMDL
MODEL 2
REMARK VINA RESULT: -6.734129856      3.334      4.829
REMARK  9 active torsions:
REMARK  status: ('A' for Active; 'I' for Inactive)
REMARK    1  A    between atoms: N1_1  and  C1_4 
REMARK    2  A    between atoms: C7_14  and  S1_15 
REMARK    3  A    between atoms: S1_15  and  C8_18 
REMARK    4  A    between atoms: C8_18  and  O4_19 
REMARK    5  A    between atoms: O4_19  and  C9_20 
REMARK    6  A    between atoms: C9_20  and  C10_21 
REMARK    7  A    between atoms: C10_21  and  O5_22 
REMARK    8  A    between atoms: O5_22  and  S2_23 
REMARK    9  A    between atoms: S2_23  and  N4_24 
ROOT
HETATM    1  C1  UNL     1      32.621  16.997   2.836  1.00  0.00     0.679 A 
HETATM    2  N2  UNL     1      32.186  17.583   1.697  1.00  0.00    -0.156 N 
ATOM      3  H2  UNL     1      31.446  17.174   1.127  1.00  0.00     0.187 HD
HETATM    4  C2  UNL     1      32.790  18.739   1.361  1.00  0.00     0.274 A 
HETATM    5  O1  UNL     1      32.419  19.317   0.312  1.00  0.00    -0.267 OA
HETATM    6  C3  UNL     1      33.797  19.311   2.120  1.00  0.00     0.085 A 
HETATM    7  C4  UNL     1      34.405  20.496   1.760  1.00  0.00     0.064 A 
HETATM    8  N3  UNL     1      34.008  21.178   0.578  1.00  0.00    -0.101 NA
HETATM    9  C5  UNL     1      35.406  21.052   2.529  1.00  0.00     0.029 A 
HETATM   10  C6  UNL     1      35.836  20.439   3.687  1.00  0.00     0.028 A 
HETATM   11  C7  UNL     1      35.224  19.241   4.055  1.00  0.00     0.089 A 
HETATM   12  C11 UNL     1      34.222  18.683   3.289  1.00  0.00     0.088 A 
HETATM   13  N5  UNL     1      33.596  17.532   3.590  1.00  0.00    -0.189 N 
ATOM     14  H5  UNL     1      33.877  17.038   4.437  1.00  0.00     0.184 HD
ENDROOT
BRANCH  11  15
HETATM   15  S1  UNL     1      35.716  18.432   5.490  1.00  0.00     0.199 S 
HETATM   16  O2  UNL     1      34.643  18.390   6.553  1.00  0.00    -0.220 OA
HETATM   17  O3  UNL     1      36.059  17.006   5.158  1.00  0.00    -0.220 OA
BRANCH  15  18
HETATM   18  C8  UNL     1      37.164  19.135   6.234  1.00  0.00     0.313 C 
BRANCH  18  19
HETATM   19  O4  UNL     1      38.326  18.586   5.784  1.00  0.00    -0.374 OA
BRANCH  19  20
HETATM   20  C9  UNL     1      39.138  19.474   5.139  1.00  0.00     0.196 C 
BRANCH  20  21
HETATM   21  C10 UNL     1      39.486  20.689   5.963  1.00  0.00     0.218 C 
BRANCH  21  22
HETATM   22  O5  UNL     1      38.959  21.789   5.236  1.00  0.00    -0.258 OA
BRANCH  22  23
HETATM   23  S2  UNL     1      38.339  22.851   6.383  1.00  0.00     0.355 S 
HETATM   24  O6  UNL     1      39.000  22.611   7.694  1.00  0.00    -0.176 OA
HETATM   25  O7  UNL     1      36.853  22.575   6.466  1.00  0.00    -0.176 OA
BRANCH  23  26
HETATM   26  N4  UNL     1      38.570  24.445   5.799  1.00  0.00    -0.306 N 
ATOM     27  H42 UNL     1      38.993  24.690   4.904  1.00  0.00     0.171 HD
ATOM     28  H41 UNL     1      38.210  25.090   6.503  1.00  0.00     0.171 HD
ENDBRANCH  23  26
ENDBRANCH  22  23
ENDBRANCH  21  22
ENDBRANCH  20  21
ENDBRANCH  19  20
ENDBRANCH  18  19
ENDBRANCH  15  18
ENDBRANCH  11  15
BRANCH   1  29
HETATM   29  N1  UNL     1      32.050  15.889   3.167  1.00  0.00    -0.234 N 
ATOM     30  H12 UNL     1      31.078  15.700   2.921  1.00  0.00     0.174 HD
ATOM     31  H11 UNL     1      32.619  15.220   3.685  1.00  0.00     0.174 HD
ENDBRANCH   1  29
TORSDOF 9
ENDMDL
MODEL 3
REMARK VINA RESULT: -6.703939739      3.543      5.199
REMARK  9 active torsions:
REMARK  status: ('A' for Active; 'I' for Inactive)
REMARK    1  A    between atoms: N1_1  and  C1_4 
REMARK    2  A    between atoms: C7_14  and  S1_15 
REMARK    3  A    between atoms: S1_15  and  C8_18 
REMARK    4  A    between atoms: C8_18  and  O4_19 
REMARK    5  A    between atoms: O4_19  and  C9_20 
REMARK    6  A    between atoms: C9_20  and  C10_21 
REMARK    7  A    between atoms: C10_21  and  O5_22 
REMARK    8  A    between atoms: O5_22  and  S2_23 
REMARK    9  A    between atoms: S2_23  and  N4_24 
ROOT
HETATM    1  C1  UNL     1      36.676  22.749   2.423  1.00  0.00     0.679 A 
HETATM    2  N2  UNL     1      37.060  23.627   1.468  1.00  0.00    -0.156 N 
ATOM      3  H2  UNL     1      36.647  23.626   0.536  1.00  0.00     0.187 HD
HETATM    4  C2  UNL     1      38.021  24.501   1.823  1.00  0.00     0.274 A 
HETATM    5  O1  UNL     1      38.408  25.333   0.969  1.00  0.00    -0.267 OA
HETATM    6  C3  UNL     1      38.595  24.519   3.084  1.00  0.00     0.085 A 
HETATM    7  C4  UNL     1      39.578  25.423   3.429  1.00  0.00     0.064 A 
HETATM    8  N3  UNL     1      40.040  26.379   2.485  1.00  0.00    -0.101 NA
HETATM    9  C5  UNL     1      40.138  25.426   4.690  1.00  0.00     0.029 A 
HETATM   10  C6  UNL     1      39.733  24.523   5.650  1.00  0.00     0.028 A 
HETATM   11  C7  UNL     1      38.739  23.608   5.304  1.00  0.00     0.089 A 
HETATM   12  C11 UNL     1      38.177  23.602   4.045  1.00  0.00     0.088 A 
HETATM   13  N5  UNL     1      37.217  22.747   3.653  1.00  0.00    -0.189 N 
ATOM     14  H5  UNL     1      36.882  22.057   4.326  1.00  0.00     0.184 HD
ENDROOT
BRANCH  11  15
HETATM   15  S1  UNL     1      38.192  22.460   6.461  1.00  0.00     0.199 S 
HETATM   16  O2  UNL     1      38.835  22.624   7.819  1.00  0.00    -0.220 OA
HETATM   17  O3  UNL     1      36.710  22.627   6.656  1.00  0.00    -0.220 OA
BRANCH  15  18
HETATM   18  C8  UNL     1      38.446  20.778   5.960  1.00  0.00     0.313 C 
BRANCH  18  19
HETATM   19  O4  UNL     1      37.499  20.322   5.093  1.00  0.00    -0.374 OA
BRANCH  19  20
HETATM   20  C9  UNL     1      36.852  19.202   5.530  1.00  0.00     0.196 C 
BRANCH  20  21
HETATM   21  C10 UNL     1      35.353  19.355   5.603  1.00  0.00     0.218 C 
BRANCH  21  22
HETATM   22  O5  UNL     1      35.045  20.404   4.698  1.00  0.00    -0.258 OA
BRANCH  22  23
HETATM   23  S2  UNL     1      33.777  19.842   3.749  1.00  0.00     0.355 S 
HETATM   24  O6  UNL     1      34.315  19.031   2.624  1.00  0.00    -0.176 OA
HETATM   25  O7  UNL     1      33.048  21.066   3.235  1.00  0.00    -0.176 OA
BRANCH  23  26
HETATM   26  N4  UNL     1      32.715  18.958   4.763  1.00  0.00    -0.306 N 
ATOM     27  H42 UNL     1      32.357  19.277   5.663  1.00  0.00     0.171 HD
ATOM     28  H41 UNL     1      32.514  18.069   4.304  1.00  0.00     0.171 HD
ENDBRANCH  23  26
ENDBRANCH  22  23
ENDBRANCH  21  22
ENDBRANCH  20  21
ENDBRANCH  19  20
ENDBRANCH  18  19
ENDBRANCH  15  18
ENDBRANCH  11  15
BRANCH   1  29
HETATM   29  N1  UNL     1      35.756  21.906   2.094  1.00  0.00    -0.234 N 
ATOM     30  H12 UNL     1      35.140  22.078   1.299  1.00  0.00     0.174 HD
ATOM     31  H11 UNL     1      35.681  21.067   2.668  1.00  0.00     0.174 HD
ENDBRANCH   1  29
TORSDOF 9
ENDMDL
MODEL 4
REMARK VINA RESULT: -6.671599201      8.691     11.580
REMARK  9 active torsions:
REMARK  status: ('A' for Active; 'I' for Inactive)
REMARK    1  A    between atoms: N1_1  and  C1_4 
REMARK    2  A    between atoms: C7_14  and  S1_15 
REMARK    3  A    between atoms: S1_15  and  C8_18 
REMARK    4  A    between atoms: C8_18  and  O4_19 
REMARK    5  A    between atoms: O4_19  and  C9_20 
REMARK    6  A    between atoms: C9_20  and  C10_21 
REMARK    7  A    between atoms: C10_21  and  O5_22 
REMARK    8  A    between atoms: O5_22  and  S2_23 
REMARK    9  A    between atoms: S2_23  and  N4_24 
ROOT
HETATM    1  C1  UNL     1      25.904  27.834  -4.447  1.00  0.00     0.679 A 
HETATM    2  N2  UNL     1      26.019  29.164  -4.229  1.00  0.00    -0.156 N 
ATOM      3  H2  UNL     1      25.203  29.767  -4.124  1.00  0.00     0.187 HD
HETATM    4  C2  UNL     1      27.275  29.644  -4.159  1.00  0.00     0.274 A 
HETATM    5  O1  UNL     1      27.428  30.872  -3.959  1.00  0.00    -0.267 OA
HETATM    6  C3  UNL     1      28.397  28.844  -4.298  1.00  0.00     0.085 A 
HETATM    7  C4  UNL     1      29.676  29.354  -4.223  1.00  0.00     0.064 A 
HETATM    8  N3  UNL     1      29.885  30.740  -3.996  1.00  0.00    -0.101 NA
HETATM    9  C5  UNL     1      30.782  28.541  -4.364  1.00  0.00     0.029 A 
HETATM   10  C6  UNL     1      30.644  27.187  -4.586  1.00  0.00     0.028 A 
HETATM   11  C7  UNL     1      29.352  26.667  -4.662  1.00  0.00     0.089 A 
HETATM   12  C11 UNL     1      28.245  27.477  -4.521  1.00  0.00     0.088 A 
HETATM   13  N5  UNL     1      26.977  27.036  -4.585  1.00  0.00    -0.189 N 
ATOM     14  H5  UNL     1      26.820  26.041  -4.749  1.00  0.00     0.184 HD
ENDROOT
BRANCH  11  15
HETATM   15  S1  UNL     1      29.119  24.985  -4.935  1.00  0.00     0.199 S 
HETATM   16  O2  UNL     1      28.154  24.349  -3.962  1.00  0.00    -0.220 OA
HETATM   17  O3  UNL     1      28.548  24.786  -6.312  1.00  0.00    -0.220 OA
BRANCH  15  18
HETATM   18  C8  UNL     1      30.622  24.046  -4.874  1.00  0.00     0.313 C 
BRANCH  18  19
HETATM   19  O4  UNL     1      31.069  23.820  -3.606  1.00  0.00    -0.374 OA
BRANCH  19  20
HETATM   20  C9  UNL     1      31.968  22.798  -3.518  1.00  0.00     0.196 C 
BRANCH  20  21
HETATM   21  C10 UNL     1      31.397  21.451  -3.886  1.00  0.00     0.218 C 
BRANCH  21  22
HETATM   22  O5  UNL     1      30.958  20.889  -2.659  1.00  0.00    -0.258 OA
BRANCH  22  23
HETATM   23  S2  UNL     1      29.279  20.974  -2.682  1.00  0.00     0.355 S 
HETATM   24  O6  UNL     1      28.709  19.746  -2.065  1.00  0.00    -0.176 OA
HETATM   25  O7  UNL     1      28.875  21.088  -4.137  1.00  0.00    -0.176 OA
BRANCH  23  26
HETATM   26  N4  UNL     1      28.816  22.409  -1.870  1.00  0.00    -0.306 N 
ATOM     27  H42 UNL     1      29.284  23.311  -1.953  1.00  0.00     0.171 HD
ATOM     28  H41 UNL     1      27.998  22.193  -1.298  1.00  0.00     0.171 HD
ENDBRANCH  23  26
ENDBRANCH  22  23
ENDBRANCH  21  22
ENDBRANCH  20  21
ENDBRANCH  19  20
ENDBRANCH  18  19
ENDBRANCH  15  18
ENDBRANCH  11  15
BRANCH   1  29
HETATM   29  N1  UNL     1      24.706  27.363  -4.516  1.00  0.00    -0.234 N 
ATOM     30  H12 UNL     1      23.899  27.925  -4.244  1.00  0.00     0.174 HD
ATOM     31  H11 UNL     1      24.611  26.406  -4.856  1.00  0.00     0.174 HD
ENDBRANCH   1  29
TORSDOF 9
ENDMDL
MODEL 5
REMARK VINA RESULT: -6.602257770      3.658      7.116
REMARK  9 active torsions:
REMARK  status: ('A' for Active; 'I' for Inactive)
REMARK    1  A    between atoms: N1_1  and  C1_4 
REMARK    2  A    between atoms: C7_14  and  S1_15 
REMARK    3  A    between atoms: S1_15  and  C8_18 
REMARK    4  A    between atoms: C8_18  and  O4_19 
REMARK    5  A    between atoms: O4_19  and  C9_20 
REMARK    6  A    between atoms: C9_20  and  C10_21 
REMARK    7  A    between atoms: C10_21  and  O5_22 
REMARK    8  A    between atoms: O5_22  and  S2_23 
REMARK    9  A    between atoms: S2_23  and  N4_24 
ROOT
HETATM    1  C1  UNL     1      33.055  18.416   3.620  1.00  0.00     0.679 A 
HETATM    2  N2  UNL     1      33.776  18.449   4.764  1.00  0.00    -0.156 N 
ATOM      3  H2  UNL     1      33.624  17.779   5.518  1.00  0.00     0.187 HD
HETATM    4  C2  UNL     1      34.706  19.418   4.847  1.00  0.00     0.274 A 
HETATM    5  O1  UNL     1      35.398  19.487   5.891  1.00  0.00    -0.267 OA
HETATM    6  C3  UNL     1      34.930  20.338   3.836  1.00  0.00     0.085 A 
HETATM    7  C4  UNL     1      35.888  21.325   3.939  1.00  0.00     0.064 A 
HETATM    8  N3  UNL     1      36.689  21.430   5.107  1.00  0.00    -0.101 NA
HETATM    9  C5  UNL     1      36.096  22.232   2.921  1.00  0.00     0.029 A 
HETATM   10  C6  UNL     1      35.350  22.183   1.762  1.00  0.00     0.028 A 
HETATM   11  C7  UNL     1      34.381  21.186   1.654  1.00  0.00     0.089 A 
HETATM   12  C11 UNL     1      34.170  20.278   2.669  1.00  0.00     0.088 A 
HETATM   13  N5  UNL     1      33.252  19.297   2.624  1.00  0.00    -0.189 N 
ATOM     14  H5  UNL     1      32.673  19.217   1.788  1.00  0.00     0.184 HD
ENDROOT
BRANCH  11  15
HETATM   15  S1  UNL     1      33.422  21.074   0.231  1.00  0.00     0.199 S 
HETATM   16  O2  UNL     1      33.373  19.680  -0.351  1.00  0.00    -0.220 OA
HETATM   17  O3  UNL     1      32.007  21.461   0.560  1.00  0.00    -0.220 OA
BRANCH  15  18
HETATM   18  C8  UNL     1      33.951  22.164  -1.064  1.00  0.00     0.313 C 
BRANCH  18  19
HETATM   19  O4  UNL     1      32.921  22.699  -1.777  1.00  0.00    -0.374 OA
BRANCH  19  20
HETATM   20  C9  UNL     1      32.995  22.449  -3.117  1.00  0.00     0.196 C 
BRANCH  20  21
HETATM   21  C10 UNL     1      31.740  21.840  -3.693  1.00  0.00     0.218 C 
BRANCH  21  22
HETATM   22  O5  UNL     1      31.577  20.611  -3.003  1.00  0.00    -0.258 OA
BRANCH  22  23
HETATM   23  S2  UNL     1      30.059  20.678  -2.284  1.00  0.00     0.355 S 
HETATM   24  O6  UNL     1      29.855  19.475  -1.434  1.00  0.00    -0.176 OA
HETATM   25  O7  UNL     1      29.050  20.723  -3.413  1.00  0.00    -0.176 OA
BRANCH  23  26
HETATM   26  N4  UNL     1      29.962  22.144  -1.403  1.00  0.00    -0.306 N 
ATOM     27  H42 UNL     1      29.644  23.038  -1.779  1.00  0.00     0.171 HD
ATOM     28  H41 UNL     1      30.275  21.956  -0.450  1.00  0.00     0.171 HD
ENDBRANCH  23  26
ENDBRANCH  22  23
ENDBRANCH  21  22
ENDBRANCH  20  21
ENDBRANCH  19  20
ENDBRANCH  18  19
ENDBRANCH  15  18
ENDBRANCH  11  15
BRANCH   1  29
HETATM   29  N1  UNL     1      32.161  17.492   3.529  1.00  0.00    -0.234 N 
ATOM     30  H12 UNL     1      31.504  17.314   4.289  1.00  0.00     0.174 HD
ATOM     31  H11 UNL     1      32.147  16.954   2.663  1.00  0.00     0.174 HD
ENDBRANCH   1  29
TORSDOF 9
ENDMDL
