MODEL 1
REMARK VINA RESULT: -6.781631588      0.000      0.000
REMARK  12 active torsions:
REMARK  status: ('A' for Active; 'I' for Inactive)
REMARK    1  A    between atoms: N1_2  and  C2_4 
REMARK    2  A    between atoms: C3_7  and  O1_8 
REMARK    3  A    between atoms: O1_8  and  C4_9 
REMARK    4  A    between atoms: C4_9  and  C5_10 
REMARK    5  A    between atoms: C5_10  and  O2_11 
REMARK    6  A    between atoms: C9_15  and  N3_16 
REMARK    7  A    between atoms: C10_18  and  C11_19 
REMARK    8  A    between atoms: C12_20  and  O3_21 
REMARK    9  A    between atoms: O3_21  and  C13_22 
REMARK   10  A    between atoms: C13_22  and  C14_23 
REMARK   11  A    between atoms: C14_23  and  O4_24 
REMARK   12  A    between atoms: O4_24  and  C15_25 
ROOT
HETATM    1  C11 UNL     1      50.747  31.447  36.294  1.00  0.00     0.098 A 
HETATM    2  C12 UNL     1      49.498  32.083  36.267  1.00  0.00     0.163 A 
HETATM    3  N4  UNL     1      48.441  31.322  35.991  1.00  0.00    -0.288 N 
ATOM      4  H4  UNL     1      47.515  31.750  35.962  1.00  0.00     0.172 HD
HETATM    5  C22 UNL     1      48.561  29.982  35.746  1.00  0.00     0.329 A 
HETATM    6  O5  UNL     1      47.546  29.286  35.488  1.00  0.00    -0.247 OA
HETATM    7  N5  UNL     1      49.746  29.352  35.767  1.00  0.00    -0.275 N 
ATOM      8  H5  UNL     1      49.817  28.352  35.581  1.00  0.00     0.173 HD
HETATM    9  C23 UNL     1      50.841  30.094  36.043  1.00  0.00     0.265 A 
HETATM   10  O6  UNL     1      51.940  29.486  36.061  1.00  0.00    -0.267 OA
ENDROOT
BRANCH   1  11
HETATM   11  C10 UNL     1      51.908  32.256  36.611  1.00  0.00     0.110 C 
HETATM   12  N3  UNL     1      52.404  33.106  35.768  1.00  0.00    -0.362 N 
ATOM     13  H3  UNL     1      51.973  33.222  34.851  1.00  0.00     0.165 HD
BRANCH  12  14
HETATM   14  C9  UNL     1      53.555  33.883  36.118  1.00  0.00     0.076 A 
HETATM   15  C2  UNL     1      53.421  35.155  36.576  1.00  0.00     0.130 A 
HETATM   16  N2  UNL     1      54.547  35.861  36.902  1.00  0.00    -0.322 N 
HETATM   17  C3  UNL     1      55.800  35.374  36.798  1.00  0.00     0.143 A 
ATOM     18  H2  UNL     1      54.432  36.815  37.246  1.00  0.00     0.169 HD
HETATM   19  C7  UNL     1      55.907  34.082  36.331  1.00  0.00     0.058 A 
HETATM   20  C8  UNL     1      54.819  33.329  35.990  1.00  0.00     0.038 A 
BRANCH  15  21
HETATM   21  N1  UNL     1      52.326  35.791  36.744  1.00  0.00    -0.379 N 
HETATM   22  C1  UNL     1      51.573  36.531  35.817  1.00  0.00     0.147 C 
ATOM     23  H1  UNL     1      51.942  35.757  37.689  1.00  0.00     0.160 HD
ENDBRANCH  15  21
BRANCH  17  24
HETATM   24  O1  UNL     1      56.875  36.173  37.150  1.00  0.00    -0.334 OA
BRANCH  24  25
HETATM   25  C4  UNL     1      56.858  37.465  37.586  1.00  0.00     0.203 C 
BRANCH  25  26
HETATM   26  C5  UNL     1      57.615  37.803  38.822  1.00  0.00     0.193 C 
BRANCH  26  27
HETATM   27  O2  UNL     1      57.209  38.882  39.552  1.00  0.00    -0.394 OA
HETATM   28  C6  UNL     1      58.123  39.841  39.843  1.00  0.00     0.201 C 
ENDBRANCH  26  27
ENDBRANCH  25  26
ENDBRANCH  24  25
ENDBRANCH  17  24
ENDBRANCH  12  14
ENDBRANCH   1  11
BRANCH   2  29
HETATM   29  O3  UNL     1      49.412  33.407  36.514  1.00  0.00    -0.333 OA
BRANCH  29  30
HETATM   30  C13 UNL     1      48.339  34.111  37.057  1.00  0.00     0.204 C 
BRANCH  30  31
HETATM   31  C14 UNL     1      48.500  34.523  38.480  1.00  0.00     0.202 C 
BRANCH  31  32
HETATM   32  O4  UNL     1      48.765  33.469  39.359  1.00  0.00    -0.348 OA
BRANCH  32  33
HETATM   33  C15 UNL     1      50.094  33.193  39.658  1.00  0.00     0.074 A 
HETATM   34  C16 UNL     1      51.059  34.177  39.734  1.00  0.00     0.037 A 
HETATM   35  C17 UNL     1      52.374  33.871  40.032  1.00  0.00     0.003 A 
HETATM   36  C18 UNL     1      52.769  32.577  40.265  1.00  0.00     0.001 A 
HETATM   37  C19 UNL     1      51.820  31.571  40.195  1.00  0.00     0.009 A 
HETATM   38  C20 UNL     1      50.511  31.883  39.896  1.00  0.00    -0.029 A 
HETATM   39  C21 UNL     1      49.479  30.836  39.815  1.00  0.00     0.051 C 
ENDBRANCH  32  33
ENDBRANCH  31  32
ENDBRANCH  30  31
ENDBRANCH  29  30
ENDBRANCH   2  29
TORSDOF 12
ENDMDL
MODEL 2
REMARK VINA RESULT: -6.583750564      3.746      7.822
REMARK  12 active torsions:
REMARK  status: ('A' for Active; 'I' for Inactive)
REMARK    1  A    between atoms: N1_2  and  C2_4 
REMARK    2  A    between atoms: C3_7  and  O1_8 
REMARK    3  A    between atoms: O1_8  and  C4_9 
REMARK    4  A    between atoms: C4_9  and  C5_10 
REMARK    5  A    between atoms: C5_10  and  O2_11 
REMARK    6  A    between atoms: C9_15  and  N3_16 
REMARK    7  A    between atoms: C10_18  and  C11_19 
REMARK    8  A    between atoms: C12_20  and  O3_21 
REMARK    9  A    between atoms: O3_21  and  C13_22 
REMARK   10  A    between atoms: C13_22  and  C14_23 
REMARK   11  A    between atoms: C14_23  and  O4_24 
REMARK   12  A    between atoms: O4_24  and  C15_25 
ROOT
HETATM    1  C11 UNL     1      48.304  31.596  37.490  1.00  0.00     0.098 A 
HETATM    2  C12 UNL     1      49.199  31.439  38.559  1.00  0.00     0.163 A 
HETATM    3  N4  UNL     1      49.716  30.225  38.737  1.00  0.00    -0.288 N 
ATOM      4  H4  UNL     1      50.370  30.073  39.505  1.00  0.00     0.172 HD
HETATM    5  C22 UNL     1      49.393  29.177  37.921  1.00  0.00     0.329 A 
HETATM    6  O5  UNL     1      49.896  28.039  38.112  1.00  0.00    -0.247 OA
HETATM    7  N5  UNL     1      48.540  29.303  36.893  1.00  0.00    -0.275 N 
ATOM      8  H5  UNL     1      48.311  28.510  36.295  1.00  0.00     0.173 HD
HETATM    9  C23 UNL     1      47.996  30.522  36.682  1.00  0.00     0.265 A 
HETATM   10  O6  UNL     1      47.202  30.621  35.714  1.00  0.00    -0.267 OA
ENDROOT
BRANCH   1  11
HETATM   11  C10 UNL     1      47.746  32.915  37.268  1.00  0.00     0.110 C 
HETATM   12  N3  UNL     1      46.470  33.112  37.153  1.00  0.00    -0.362 N 
ATOM     13  H3  UNL     1      45.827  32.323  37.222  1.00  0.00     0.165 HD
BRANCH  12  14
HETATM   14  C9  UNL     1      45.958  34.430  36.929  1.00  0.00     0.076 A 
HETATM   15  C2  UNL     1      45.695  34.869  35.671  1.00  0.00     0.130 A 
HETATM   16  N2  UNL     1      45.203  36.135  35.502  1.00  0.00    -0.322 N 
HETATM   17  C3  UNL     1      44.957  36.990  36.515  1.00  0.00     0.143 A 
ATOM     18  H2  UNL     1      45.010  36.451  34.552  1.00  0.00     0.169 HD
HETATM   19  C7  UNL     1      45.231  36.519  37.780  1.00  0.00     0.058 A 
HETATM   20  C8  UNL     1      45.724  35.265  38.011  1.00  0.00     0.038 A 
BRANCH  15  21
HETATM   21  N1  UNL     1      45.861  34.213  34.587  1.00  0.00    -0.379 N 
HETATM   22  C1  UNL     1      45.993  34.684  33.270  1.00  0.00     0.147 C 
ATOM     23  H1  UNL     1      45.903  33.199  34.693  1.00  0.00     0.160 HD
ENDBRANCH  15  21
BRANCH  17  24
HETATM   24  O1  UNL     1      44.463  38.254  36.238  1.00  0.00    -0.334 OA
BRANCH  24  25
HETATM   25  C4  UNL     1      43.182  38.610  35.934  1.00  0.00     0.203 C 
BRANCH  25  26
HETATM   26  C5  UNL     1      42.647  38.245  34.594  1.00  0.00     0.193 C 
BRANCH  26  27
HETATM   27  O2  UNL     1      42.378  36.931  34.342  1.00  0.00    -0.394 OA
HETATM   28  C6  UNL     1      42.522  36.477  33.073  1.00  0.00     0.201 C 
ENDBRANCH  26  27
ENDBRANCH  25  26
ENDBRANCH  24  25
ENDBRANCH  17  24
ENDBRANCH  12  14
ENDBRANCH   1  11
BRANCH   2  29
HETATM   29  O3  UNL     1      49.497  32.494  39.346  1.00  0.00    -0.333 OA
BRANCH  29  30
HETATM   30  C13 UNL     1      50.506  32.592  40.302  1.00  0.00     0.204 C 
BRANCH  30  31
HETATM   31  C14 UNL     1      51.730  33.323  39.866  1.00  0.00     0.202 C 
BRANCH  31  32
HETATM   32  O4  UNL     1      51.824  33.518  38.485  1.00  0.00    -0.348 OA
BRANCH  32  33
HETATM   33  C15 UNL     1      53.094  33.591  37.926  1.00  0.00     0.074 A 
HETATM   34  C16 UNL     1      53.966  34.627  38.192  1.00  0.00     0.037 A 
HETATM   35  C17 UNL     1      55.224  34.672  37.619  1.00  0.00     0.003 A 
HETATM   36  C18 UNL     1      55.653  33.686  36.764  1.00  0.00     0.001 A 
HETATM   37  C19 UNL     1      54.797  32.636  36.481  1.00  0.00     0.009 A 
HETATM   38  C20 UNL     1      53.544  32.598  37.055  1.00  0.00    -0.029 A 
HETATM   39  C21 UNL     1      52.612  31.493  36.774  1.00  0.00     0.051 C 
ENDBRANCH  32  33
ENDBRANCH  31  32
ENDBRANCH  30  31
ENDBRANCH  29  30
ENDBRANCH   2  29
TORSDOF 12
ENDMDL
MODEL 3
REMARK VINA RESULT: -6.553625435      3.667      7.945
REMARK  12 active torsions:
REMARK  status: ('A' for Active; 'I' for Inactive)
REMARK    1  A    between atoms: N1_2  and  C2_4 
REMARK    2  A    between atoms: C3_7  and  O1_8 
REMARK    3  A    between atoms: O1_8  and  C4_9 
REMARK    4  A    between atoms: C4_9  and  C5_10 
REMARK    5  A    between atoms: C5_10  and  O2_11 
REMARK    6  A    between atoms: C9_15  and  N3_16 
REMARK    7  A    between atoms: C10_18  and  C11_19 
REMARK    8  A    between atoms: C12_20  and  O3_21 
REMARK    9  A    between atoms: O3_21  and  C13_22 
REMARK   10  A    between atoms: C13_22  and  C14_23 
REMARK   11  A    between atoms: C14_23  and  O4_24 
REMARK   12  A    between atoms: O4_24  and  C15_25 
ROOT
HETATM    1  C11 UNL     1      49.598  32.406  38.518  1.00  0.00     0.098 A 
HETATM    2  C12 UNL     1      50.649  31.632  38.005  1.00  0.00     0.163 A 
HETATM    3  N4  UNL     1      51.590  31.250  38.867  1.00  0.00    -0.288 N 
ATOM      4  H4  UNL     1      52.371  30.686  38.530  1.00  0.00     0.172 HD
HETATM    5  C22 UNL     1      51.540  31.593  40.189  1.00  0.00     0.329 A 
HETATM    6  O5  UNL     1      52.443  31.219  40.981  1.00  0.00    -0.247 OA
HETATM    7  N5  UNL     1      50.545  32.333  40.701  1.00  0.00    -0.275 N 
ATOM      8  H5  UNL     1      50.524  32.580  41.690  1.00  0.00     0.173 HD
HETATM    9  C23 UNL     1      49.572  32.738  39.857  1.00  0.00     0.265 A 
HETATM   10  O6  UNL     1      48.647  33.428  40.355  1.00  0.00    -0.267 OA
ENDROOT
BRANCH   1  11
HETATM   11  C10 UNL     1      48.554  32.815  37.599  1.00  0.00     0.110 C 
HETATM   12  N3  UNL     1      48.198  34.055  37.470  1.00  0.00    -0.362 N 
ATOM     13  H3  UNL     1      48.662  34.776  38.023  1.00  0.00     0.165 HD
BRANCH  12  14
HETATM   14  C9  UNL     1      47.159  34.418  36.555  1.00  0.00     0.076 A 
HETATM   15  C2  UNL     1      46.209  35.324  36.907  1.00  0.00     0.130 A 
HETATM   16  N2  UNL     1      45.235  35.645  36.000  1.00  0.00    -0.322 N 
HETATM   17  C3  UNL     1      45.152  35.116  34.763  1.00  0.00     0.143 A 
ATOM     18  H2  UNL     1      44.529  36.327  36.277  1.00  0.00     0.169 HD
HETATM   19  C7  UNL     1      46.128  34.201  34.432  1.00  0.00     0.058 A 
HETATM   20  C8  UNL     1      47.125  33.840  35.295  1.00  0.00     0.038 A 
BRANCH  15  21
HETATM   21  N1  UNL     1      46.116  35.932  38.027  1.00  0.00    -0.379 N 
HETATM   22  C1  UNL     1      44.984  36.481  38.653  1.00  0.00     0.147 C 
ATOM     23  H1  UNL     1      46.992  36.034  38.541  1.00  0.00     0.160 HD
ENDBRANCH  15  21
BRANCH  17  24
HETATM   24  O1  UNL     1      44.123  35.504  33.921  1.00  0.00    -0.334 OA
BRANCH  24  25
HETATM   25  C4  UNL     1      43.839  36.756  33.460  1.00  0.00     0.203 C 
BRANCH  25  26
HETATM   26  C5  UNL     1      42.925  37.613  34.263  1.00  0.00     0.193 C 
BRANCH  26  27
HETATM   27  O2  UNL     1      43.326  37.992  35.511  1.00  0.00    -0.394 OA
HETATM   28  C6  UNL     1      44.165  39.052  35.621  1.00  0.00     0.201 C 
ENDBRANCH  26  27
ENDBRANCH  25  26
ENDBRANCH  24  25
ENDBRANCH  17  24
ENDBRANCH  12  14
ENDBRANCH   1  11
BRANCH   2  29
HETATM   29  O3  UNL     1      50.669  31.309  36.695  1.00  0.00    -0.333 OA
BRANCH  29  30
HETATM   30  C13 UNL     1      51.719  30.755  35.965  1.00  0.00     0.204 C 
BRANCH  30  31
HETATM   31  C14 UNL     1      52.847  31.683  35.665  1.00  0.00     0.202 C 
BRANCH  31  32
HETATM   32  O4  UNL     1      53.631  32.015  36.773  1.00  0.00    -0.348 OA
BRANCH  32  33
HETATM   33  C15 UNL     1      54.523  33.072  36.643  1.00  0.00     0.074 A 
HETATM   34  C16 UNL     1      55.458  33.136  35.630  1.00  0.00     0.037 A 
HETATM   35  C17 UNL     1      56.334  34.200  35.526  1.00  0.00     0.003 A 
HETATM   36  C18 UNL     1      56.306  35.236  36.428  1.00  0.00     0.001 A 
HETATM   37  C19 UNL     1      55.377  35.197  37.453  1.00  0.00     0.009 A 
HETATM   38  C20 UNL     1      54.508  34.131  37.551  1.00  0.00    -0.029 A 
HETATM   39  C21 UNL     1      53.509  34.061  38.631  1.00  0.00     0.051 C 
ENDBRANCH  32  33
ENDBRANCH  31  32
ENDBRANCH  30  31
ENDBRANCH  29  30
ENDBRANCH   2  29
TORSDOF 12
ENDMDL
MODEL 4
REMARK VINA RESULT: -6.551356328      2.953      4.569
REMARK  12 active torsions:
REMARK  status: ('A' for Active; 'I' for Inactive)
REMARK    1  A    between atoms: N1_2  and  C2_4 
REMARK    2  A    between atoms: C3_7  and  O1_8 
REMARK    3  A    between atoms: O1_8  and  C4_9 
REMARK    4  A    between atoms: C4_9  and  C5_10 
REMARK    5  A    between atoms: C5_10  and  O2_11 
REMARK    6  A    between atoms: C9_15  and  N3_16 
REMARK    7  A    between atoms: C10_18  and  C11_19 
REMARK    8  A    between atoms: C12_20  and  O3_21 
REMARK    9  A    between atoms: O3_21  and  C13_22 
REMARK   10  A    between atoms: C13_22  and  C14_23 
REMARK   11  A    between atoms: C14_23  and  O4_24 
REMARK   12  A    between atoms: O4_24  and  C15_25 
ROOT
HETATM    1  C11 UNL     1      48.227  33.741  36.962  1.00  0.00     0.098 A 
HETATM    2  C12 UNL     1      48.046  33.635  38.348  1.00  0.00     0.163 A 
HETATM    3  N4  UNL     1      46.913  33.071  38.764  1.00  0.00    -0.288 N 
ATOM      4  H4  UNL     1      46.746  32.977  39.766  1.00  0.00     0.172 HD
HETATM    5  C22 UNL     1      45.970  32.615  37.887  1.00  0.00     0.329 A 
HETATM    6  O5  UNL     1      44.908  32.086  38.308  1.00  0.00    -0.247 OA
HETATM    7  N5  UNL     1      46.122  32.706  36.557  1.00  0.00    -0.275 N 
ATOM      8  H5  UNL     1      45.407  32.360  35.917  1.00  0.00     0.173 HD
HETATM    9  C23 UNL     1      47.259  33.272  36.098  1.00  0.00     0.265 A 
HETATM   10  O6  UNL     1      47.385  33.346  34.850  1.00  0.00    -0.267 OA
ENDROOT
BRANCH   1  11
HETATM   11  C10 UNL     1      49.463  34.335  36.489  1.00  0.00     0.110 C 
HETATM   12  N3  UNL     1      50.144  33.821  35.513  1.00  0.00    -0.362 N 
ATOM     13  H3  UNL     1      49.810  32.974  35.052  1.00  0.00     0.165 HD
BRANCH  12  14
HETATM   14  C9  UNL     1      51.362  34.435  35.079  1.00  0.00     0.076 A 
HETATM   15  C2  UNL     1      52.059  33.929  34.028  1.00  0.00     0.130 A 
HETATM   16  N2  UNL     1      53.217  34.550  33.644  1.00  0.00    -0.322 N 
HETATM   17  C3  UNL     1      53.721  35.646  34.245  1.00  0.00     0.143 A 
ATOM     18  H2  UNL     1      53.730  34.159  32.853  1.00  0.00     0.169 HD
HETATM   19  C7  UNL     1      52.993  36.139  35.306  1.00  0.00     0.058 A 
HETATM   20  C8  UNL     1      51.831  35.562  35.736  1.00  0.00     0.038 A 
BRANCH  15  21
HETATM   21  N1  UNL     1      51.748  32.902  33.334  1.00  0.00    -0.379 N 
HETATM   22  C1  UNL     1      52.506  31.753  33.052  1.00  0.00     0.147 C 
ATOM     23  H1  UNL     1      50.814  32.920  32.923  1.00  0.00     0.160 HD
ENDBRANCH  15  21
BRANCH  17  24
HETATM   24  O1  UNL     1      54.904  36.196  33.781  1.00  0.00    -0.334 OA
BRANCH  24  25
HETATM   25  C4  UNL     1      55.850  35.615  32.988  1.00  0.00     0.203 C 
BRANCH  25  26
HETATM   26  C5  UNL     1      56.618  34.463  33.535  1.00  0.00     0.193 C 
BRANCH  26  27
HETATM   27  O2  UNL     1      56.130  33.206  33.326  1.00  0.00    -0.394 OA
HETATM   28  C6  UNL     1      55.967  32.784  32.048  1.00  0.00     0.201 C 
ENDBRANCH  26  27
ENDBRANCH  25  26
ENDBRANCH  24  25
ENDBRANCH  17  24
ENDBRANCH  12  14
ENDBRANCH   1  11
BRANCH   2  29
HETATM   29  O3  UNL     1      48.996  34.094  39.188  1.00  0.00    -0.333 OA
BRANCH  29  30
HETATM   30  C13 UNL     1      49.761  33.367  40.098  1.00  0.00     0.204 C 
BRANCH  30  31
HETATM   31  C14 UNL     1      51.233  33.398  39.865  1.00  0.00     0.202 C 
BRANCH  31  32
HETATM   32  O4  UNL     1      51.654  32.680  38.743  1.00  0.00    -0.348 OA
BRANCH  32  33
HETATM   33  C15 UNL     1      52.869  33.030  38.168  1.00  0.00     0.074 A 
HETATM   34  C16 UNL     1      53.613  34.110  38.599  1.00  0.00     0.037 A 
HETATM   35  C17 UNL     1      54.818  34.436  38.006  1.00  0.00     0.003 A 
HETATM   36  C18 UNL     1      55.323  33.695  36.965  1.00  0.00     0.001 A 
HETATM   37  C19 UNL     1      54.597  32.607  36.513  1.00  0.00     0.009 A 
HETATM   38  C20 UNL     1      53.395  32.289  37.109  1.00  0.00    -0.029 A 
HETATM   39  C21 UNL     1      52.600  31.137  36.651  1.00  0.00     0.051 C 
ENDBRANCH  32  33
ENDBRANCH  31  32
ENDBRANCH  30  31
ENDBRANCH  29  30
ENDBRANCH   2  29
TORSDOF 12
ENDMDL
MODEL 5
REMARK VINA RESULT: -6.499511529      3.443      6.870
REMARK  12 active torsions:
REMARK  status: ('A' for Active; 'I' for Inactive)
REMARK    1  A    between atoms: N1_2  and  C2_4 
REMARK    2  A    between atoms: C3_7  and  O1_8 
REMARK    3  A    between atoms: O1_8  and  C4_9 
REMARK    4  A    between atoms: C4_9  and  C5_10 
REMARK    5  A    between atoms: C5_10  and  O2_11 
REMARK    6  A    between atoms: C9_15  and  N3_16 
REMARK    7  A    between atoms: C10_18  and  C11_19 
REMARK    8  A    between atoms: C12_20  and  O3_21 
REMARK    9  A    between atoms: O3_21  and  C13_22 
REMARK   10  A    between atoms: C13_22  and  C14_23 
REMARK   11  A    between atoms: C14_23  and  O4_24 
REMARK   12  A    between atoms: O4_24  and  C15_25 
ROOT
HETATM    1  C11 UNL     1      48.979  31.358  37.535  1.00  0.00     0.098 A 
HETATM    2  C12 UNL     1      49.530  31.340  38.825  1.00  0.00     0.163 A 
HETATM    3  N4  UNL     1      49.762  30.144  39.363  1.00  0.00    -0.288 N 
ATOM      4  H4  UNL     1      50.161  30.092  40.300  1.00  0.00     0.172 HD
HETATM    5  C22 UNL     1      49.479  28.986  38.694  1.00  0.00     0.329 A 
HETATM    6  O5  UNL     1      49.708  27.869  39.226  1.00  0.00    -0.247 OA
HETATM    7  N5  UNL     1      48.953  28.979  37.460  1.00  0.00    -0.275 N 
ATOM      8  H5  UNL     1      48.748  28.105  36.977  1.00  0.00     0.173 HD
HETATM    9  C23 UNL     1      48.704  30.174  36.883  1.00  0.00     0.265 A 
HETATM   10  O6  UNL     1      48.214  30.147  35.726  1.00  0.00    -0.267 OA
ENDROOT
BRANCH   1  11
HETATM   11  C10 UNL     1      48.737  32.651  36.925  1.00  0.00     0.110 C 
HETATM   12  N3  UNL     1      47.550  33.033  36.571  1.00  0.00    -0.362 N 
ATOM     13  H3  UNL     1      46.752  32.417  36.724  1.00  0.00     0.165 HD
BRANCH  12  14
HETATM   14  C9  UNL     1      47.354  34.316  35.967  1.00  0.00     0.076 A 
HETATM   15  C2  UNL     1      46.520  35.229  36.531  1.00  0.00     0.130 A 
HETATM   16  N2  UNL     1      46.365  36.445  35.922  1.00  0.00    -0.322 N 
HETATM   17  C3  UNL     1      46.990  36.805  34.783  1.00  0.00     0.143 A 
ATOM     18  H2  UNL     1      45.736  37.121  36.357  1.00  0.00     0.169 HD
HETATM   19  C7  UNL     1      47.829  35.861  34.233  1.00  0.00     0.058 A 
HETATM   20  C8  UNL     1      48.025  34.630  34.795  1.00  0.00     0.038 A 
BRANCH  15  21
HETATM   21  N1  UNL     1      45.841  35.078  37.603  1.00  0.00    -0.379 N 
HETATM   22  C1  UNL     1      45.232  36.049  38.416  1.00  0.00     0.147 C 
ATOM     23  H1  UNL     1      45.725  34.113  37.913  1.00  0.00     0.160 HD
ENDBRANCH  15  21
BRANCH  17  24
HETATM   24  O1  UNL     1      46.759  38.060  34.244  1.00  0.00    -0.334 OA
BRANCH  24  25
HETATM   25  C4  UNL     1      45.573  38.600  33.843  1.00  0.00     0.203 C 
BRANCH  25  26
HETATM   26  C5  UNL     1      44.840  39.478  34.795  1.00  0.00     0.193 C 
BRANCH  26  27
HETATM   27  O2  UNL     1      44.515  38.972  36.020  1.00  0.00    -0.394 OA
HETATM   28  C6  UNL     1      43.213  38.687  36.272  1.00  0.00     0.201 C 
ENDBRANCH  26  27
ENDBRANCH  25  26
ENDBRANCH  24  25
ENDBRANCH  17  24
ENDBRANCH  12  14
ENDBRANCH   1  11
BRANCH   2  29
HETATM   29  O3  UNL     1      49.798  32.501  39.457  1.00  0.00    -0.333 OA
BRANCH  29  30
HETATM   30  C13 UNL     1      50.786  32.752  40.408  1.00  0.00     0.204 C 
BRANCH  30  31
HETATM   31  C14 UNL     1      52.031  33.383  39.884  1.00  0.00     0.202 C 
BRANCH  31  32
HETATM   32  O4  UNL     1      52.053  33.549  38.496  1.00  0.00    -0.348 OA
BRANCH  32  33
HETATM   33  C15 UNL     1      53.291  33.651  37.876  1.00  0.00     0.074 A 
HETATM   34  C16 UNL     1      54.166  34.689  38.125  1.00  0.00     0.037 A 
HETATM   35  C17 UNL     1      55.392  34.765  37.491  1.00  0.00     0.003 A 
HETATM   36  C18 UNL     1      55.786  33.808  36.588  1.00  0.00     0.001 A 
HETATM   37  C19 UNL     1      54.928  32.755  36.320  1.00  0.00     0.009 A 
HETATM   38  C20 UNL     1      53.706  32.688  36.956  1.00  0.00    -0.029 A 
HETATM   39  C21 UNL     1      52.772  31.581  36.691  1.00  0.00     0.051 C 
ENDBRANCH  32  33
ENDBRANCH  31  32
ENDBRANCH  30  31
ENDBRANCH  29  30
ENDBRANCH   2  29
TORSDOF 12
ENDMDL
