MODEL 1
REMARK VINA RESULT: -7.037990972      0.000      0.000
REMARK  15 active torsions:
REMARK  status: ('A' for Active; 'I' for Inactive)
REMARK    1  A    between atoms: C3_3  and  O1_6 
REMARK    2  A    between atoms: O1_6  and  C6_7 
REMARK    3  A    between atoms: C6_7  and  C7_8 
REMARK    4  A    between atoms: C7_8  and  O2_9 
REMARK    5  A    between atoms: O2_9  and  C8_10 
REMARK    6  A    between atoms: C10_12  and  O3_13 
REMARK    7  A    between atoms: O3_13  and  C11_14 
REMARK    8  A    between atoms: C11_14  and  C12_16 
REMARK    9  A    between atoms: C12_16  and  N1_17 
REMARK   10  A    between atoms: C12_16  and  C13_21 
REMARK   11  A    between atoms: C13_21  and  C14_22 
REMARK   12  A    between atoms: C14_22  and  O5_23 
REMARK   13  A    between atoms: O5_23  and  N2_24 
REMARK   14  A    between atoms: C18_31  and  N5_32 
REMARK   15  A    between atoms: N5_32  and  C19_34 
ROOT
HETATM    1  C1  UNL     1      49.415  32.340  35.595  1.00  0.00     0.015 C 
HETATM    2  C2  UNL     1      49.026  31.319  36.098  1.00  0.00    -0.080 C 
HETATM    3  C3  UNL     1      48.577  30.083  36.709  1.00  0.00     0.115 C 
HETATM    4  C4  UNL     1      49.477  28.966  36.173  1.00  0.00     0.060 C 
HETATM    5  C5  UNL     1      47.165  29.794  36.205  1.00  0.00     0.060 C 
ENDROOT
BRANCH   3   6
HETATM    6  O1  UNL     1      48.668  30.057  38.073  1.00  0.00    -0.366 OA
BRANCH   6   7
HETATM    7  C6  UNL     1      49.934  29.959  38.583  1.00  0.00     0.196 C 
BRANCH   7   8
HETATM    8  C7  UNL     1      49.919  30.516  39.991  1.00  0.00     0.202 C 
BRANCH   8   9
HETATM    9  O2  UNL     1      50.683  31.702  40.090  1.00  0.00    -0.347 OA
BRANCH   9  10
HETATM   10  C8  UNL     1      50.239  32.828  39.412  1.00  0.00     0.098 A 
HETATM   11  C9  UNL     1      48.891  33.137  39.342  1.00  0.00     0.076 A 
HETATM   12  C10 UNL     1      48.482  34.263  38.659  1.00  0.00     0.082 A 
HETATM   13  C16 UNL     1      49.434  35.061  38.061  1.00  0.00     0.040 A 
HETATM   14  C17 UNL     1      50.788  34.741  38.137  1.00  0.00     0.035 A 
HETATM   15  C18 UNL     1      51.200  33.618  38.817  1.00  0.00     0.067 A 
BRANCH  12  16
HETATM   16  O3  UNL     1      47.159  34.643  38.541  1.00  0.00    -0.277 OA
BRANCH  16  17
HETATM   17  C11 UNL     1      46.146  33.711  38.641  1.00  0.00     0.294 C 
HETATM   18  O4  UNL     1      45.589  33.550  39.753  1.00  0.00    -0.263 OA
BRANCH  17  19
HETATM   19  C12 UNL     1      45.759  32.943  37.444  1.00  0.00     0.284 C 
BRANCH  19  20
HETATM   20  N1  UNL     1      44.640  32.089  37.783  1.00  0.00    -0.066 N 
ATOM     21  H13 UNL     1      44.705  31.718  38.731  1.00  0.00     0.275 HD
ATOM     22  H12 UNL     1      43.771  32.610  37.895  1.00  0.00     0.275 HD
ATOM     23  H11 UNL     1      44.567  31.353  37.081  1.00  0.00     0.275 HD
ENDBRANCH  19  20
BRANCH  19  24
HETATM   24  C13 UNL     1      45.233  33.957  36.428  1.00  0.00     0.072 C 
BRANCH  24  25
HETATM   25  C14 UNL     1      46.382  34.396  35.533  1.00  0.00     0.203 C 
BRANCH  25  26
HETATM   26  O5  UNL     1      46.410  35.807  35.507  1.00  0.00    -0.278 OA
BRANCH  26  27
HETATM   27  N2  UNL     1      45.719  36.506  36.453  1.00  0.00    -0.241 N 
HETATM   28  C15 UNL     1      44.895  37.464  36.193  1.00  0.00     0.221 C 
HETATM   29  N3  UNL     1      44.248  38.099  37.289  1.00  0.00    -0.065 NA
HETATM   30  N4  UNL     1      44.590  37.926  34.897  1.00  0.00    -0.065 NA
ATOM     31  H2  UNL     1      45.862  36.254  37.431  1.00  0.00     0.196 HD
ENDBRANCH  26  27
ENDBRANCH  25  26
ENDBRANCH  24  25
ENDBRANCH  19  24
ENDBRANCH  17  19
ENDBRANCH  16  17
ENDBRANCH  12  16
BRANCH  15  32
HETATM   32  N5  UNL     1      52.574  33.265  38.914  1.00  0.00    -0.340 N 
ATOM     33  H5  UNL     1      52.975  33.091  39.836  1.00  0.00     0.167 HD
BRANCH  32  34
HETATM   34  C19 UNL     1      53.333  33.158  37.871  1.00  0.00     0.105 A 
HETATM   35  C20 UNL     1      54.500  33.877  37.844  1.00  0.00     0.048 A 
HETATM   36  C21 UNL     1      55.355  33.819  36.779  1.00  0.00     0.005 A 
HETATM   37  C22 UNL     1      55.019  33.009  35.711  1.00  0.00     0.017 A 
HETATM   38  C23 UNL     1      53.838  32.301  35.771  1.00  0.00     0.089 A 
HETATM   39  N6  UNL     1      53.022  32.379  36.829  1.00  0.00    -0.352 N 
ATOM     40  H6  UNL     1      52.156  31.841  36.841  1.00  0.00     0.166 HD
ENDBRANCH  32  34
ENDBRANCH  15  32
ENDBRANCH   9  10
ENDBRANCH   8   9
ENDBRANCH   7   8
ENDBRANCH   6   7
ENDBRANCH   3   6
TORSDOF 15
ENDMDL
MODEL 2
REMARK VINA RESULT: -6.855344947      1.796      2.877
REMARK  15 active torsions:
REMARK  status: ('A' for Active; 'I' for Inactive)
REMARK    1  A    between atoms: C3_3  and  O1_6 
REMARK    2  A    between atoms: O1_6  and  C6_7 
REMARK    3  A    between atoms: C6_7  and  C7_8 
REMARK    4  A    between atoms: C7_8  and  O2_9 
REMARK    5  A    between atoms: O2_9  and  C8_10 
REMARK    6  A    between atoms: C10_12  and  O3_13 
REMARK    7  A    between atoms: O3_13  and  C11_14 
REMARK    8  A    between atoms: C11_14  and  C12_16 
REMARK    9  A    between atoms: C12_16  and  N1_17 
REMARK   10  A    between atoms: C12_16  and  C13_21 
REMARK   11  A    between atoms: C13_21  and  C14_22 
REMARK   12  A    between atoms: C14_22  and  O5_23 
REMARK   13  A    between atoms: O5_23  and  N2_24 
REMARK   14  A    between atoms: C18_31  and  N5_32 
REMARK   15  A    between atoms: N5_32  and  C19_34 
ROOT
HETATM    1  C1  UNL     1      50.588  31.951  35.746  1.00  0.00     0.015 C 
HETATM    2  C2  UNL     1      49.789  31.389  36.449  1.00  0.00    -0.080 C 
HETATM    3  C3  UNL     1      48.843  30.705  37.309  1.00  0.00     0.115 C 
HETATM    4  C4  UNL     1      49.434  29.327  37.618  1.00  0.00     0.060 C 
HETATM    5  C5  UNL     1      47.564  30.471  36.509  1.00  0.00     0.060 C 
ENDROOT
BRANCH   3   6
HETATM    6  O1  UNL     1      48.613  31.325  38.505  1.00  0.00    -0.366 OA
BRANCH   6   7
HETATM    7  C6  UNL     1      49.693  31.432  39.338  1.00  0.00     0.196 C 
BRANCH   7   8
HETATM    8  C7  UNL     1      49.583  32.742  40.089  1.00  0.00     0.202 C 
BRANCH   8   9
HETATM    9  O2  UNL     1      50.639  33.623  39.757  1.00  0.00    -0.347 OA
BRANCH   9  10
HETATM   10  C8  UNL     1      50.519  34.388  38.606  1.00  0.00     0.098 A 
HETATM   11  C9  UNL     1      49.280  34.799  38.145  1.00  0.00     0.076 A 
HETATM   12  C10 UNL     1      49.195  35.559  36.997  1.00  0.00     0.082 A 
HETATM   13  C16 UNL     1      50.357  35.892  36.332  1.00  0.00     0.040 A 
HETATM   14  C17 UNL     1      51.598  35.473  36.804  1.00  0.00     0.035 A 
HETATM   15  C18 UNL     1      51.687  34.715  37.949  1.00  0.00     0.067 A 
BRANCH  12  16
HETATM   16  O3  UNL     1      48.001  36.010  36.470  1.00  0.00    -0.277 OA
BRANCH  16  17
HETATM   17  C11 UNL     1      47.856  36.199  35.110  1.00  0.00     0.294 C 
HETATM   18  O4  UNL     1      48.092  37.337  34.636  1.00  0.00    -0.263 OA
BRANCH  17  19
HETATM   19  C12 UNL     1      47.433  35.065  34.270  1.00  0.00     0.284 C 
BRANCH  19  20
HETATM   20  N1  UNL     1      48.555  34.646  33.457  1.00  0.00    -0.066 N 
ATOM     21  H13 UNL     1      48.270  34.327  32.531  1.00  0.00     0.275 HD
ATOM     22  H12 UNL     1      49.139  35.429  33.163  1.00  0.00     0.275 HD
ATOM     23  H11 UNL     1      49.082  33.938  33.968  1.00  0.00     0.275 HD
ENDBRANCH  19  20
BRANCH  19  24
HETATM   24  C13 UNL     1      47.136  33.905  35.222  1.00  0.00     0.072 C 
BRANCH  24  25
HETATM   25  C14 UNL     1      45.630  33.694  35.281  1.00  0.00     0.203 C 
BRANCH  25  26
HETATM   26  O5  UNL     1      45.224  33.775  36.631  1.00  0.00    -0.278 OA
BRANCH  26  27
HETATM   27  N2  UNL     1      45.228  34.986  37.258  1.00  0.00    -0.241 N 
HETATM   28  C15 UNL     1      45.410  35.149  38.525  1.00  0.00     0.221 C 
HETATM   29  N3  UNL     1      45.387  36.478  39.033  1.00  0.00    -0.065 NA
HETATM   30  N4  UNL     1      45.630  34.102  39.442  1.00  0.00    -0.065 NA
ATOM     31  H2  UNL     1      45.078  35.818  36.688  1.00  0.00     0.196 HD
ENDBRANCH  26  27
ENDBRANCH  25  26
ENDBRANCH  24  25
ENDBRANCH  19  24
ENDBRANCH  17  19
ENDBRANCH  16  17
ENDBRANCH  12  16
BRANCH  15  32
HETATM   32  N5  UNL     1      52.939  34.272  38.457  1.00  0.00    -0.340 N 
ATOM     33  H5  UNL     1      52.990  33.933  39.419  1.00  0.00     0.167 HD
BRANCH  32  34
HETATM   34  C19 UNL     1      54.016  34.285  37.740  1.00  0.00     0.105 A 
HETATM   35  C20 UNL     1      54.311  33.172  36.996  1.00  0.00     0.048 A 
HETATM   36  C21 UNL     1      55.430  33.107  36.214  1.00  0.00     0.005 A 
HETATM   37  C22 UNL     1      56.274  34.199  36.183  1.00  0.00     0.017 A 
HETATM   38  C23 UNL     1      55.949  35.302  36.944  1.00  0.00     0.089 A 
HETATM   39  N6  UNL     1      54.845  35.335  37.700  1.00  0.00    -0.352 N 
ATOM     40  H6  UNL     1      54.633  36.167  38.250  1.00  0.00     0.166 HD
ENDBRANCH  32  34
ENDBRANCH  15  32
ENDBRANCH   9  10
ENDBRANCH   8   9
ENDBRANCH   7   8
ENDBRANCH   6   7
ENDBRANCH   3   6
TORSDOF 15
ENDMDL
MODEL 3
REMARK VINA RESULT: -6.675052291      1.634      2.036
REMARK  15 active torsions:
REMARK  status: ('A' for Active; 'I' for Inactive)
REMARK    1  A    between atoms: C3_3  and  O1_6 
REMARK    2  A    between atoms: O1_6  and  C6_7 
REMARK    3  A    between atoms: C6_7  and  C7_8 
REMARK    4  A    between atoms: C7_8  and  O2_9 
REMARK    5  A    between atoms: O2_9  and  C8_10 
REMARK    6  A    between atoms: C10_12  and  O3_13 
REMARK    7  A    between atoms: O3_13  and  C11_14 
REMARK    8  A    between atoms: C11_14  and  C12_16 
REMARK    9  A    between atoms: C12_16  and  N1_17 
REMARK   10  A    between atoms: C12_16  and  C13_21 
REMARK   11  A    between atoms: C13_21  and  C14_22 
REMARK   12  A    between atoms: C14_22  and  O5_23 
REMARK   13  A    between atoms: O5_23  and  N2_24 
REMARK   14  A    between atoms: C18_31  and  N5_32 
REMARK   15  A    between atoms: N5_32  and  C19_34 
ROOT
HETATM    1  C1  UNL     1      49.506  32.294  35.469  1.00  0.00     0.015 C 
HETATM    2  C2  UNL     1      49.082  31.327  36.046  1.00  0.00    -0.080 C 
HETATM    3  C3  UNL     1      48.591  30.155  36.744  1.00  0.00     0.115 C 
HETATM    4  C4  UNL     1      49.466  28.976  36.312  1.00  0.00     0.060 C 
HETATM    5  C5  UNL     1      47.177  29.867  36.243  1.00  0.00     0.060 C 
ENDROOT
BRANCH   3   6
HETATM    6  O1  UNL     1      48.663  30.235  38.107  1.00  0.00    -0.366 OA
BRANCH   6   7
HETATM    7  C6  UNL     1      49.861  29.876  38.662  1.00  0.00     0.196 C 
BRANCH   7   8
HETATM    8  C7  UNL     1      49.987  30.570  40.002  1.00  0.00     0.202 C 
BRANCH   8   9
HETATM    9  O2  UNL     1      50.837  31.697  39.927  1.00  0.00    -0.347 OA
BRANCH   9  10
HETATM   10  C8  UNL     1      50.368  32.832  39.280  1.00  0.00     0.098 A 
HETATM   11  C9  UNL     1      49.018  33.136  39.257  1.00  0.00     0.076 A 
HETATM   12  C10 UNL     1      48.584  34.272  38.605  1.00  0.00     0.082 A 
HETATM   13  C16 UNL     1      49.514  35.081  37.988  1.00  0.00     0.040 A 
HETATM   14  C17 UNL     1      50.870  34.765  38.017  1.00  0.00     0.035 A 
HETATM   15  C18 UNL     1      51.307  33.633  38.666  1.00  0.00     0.067 A 
BRANCH  12  16
HETATM   16  O3  UNL     1      47.257  34.649  38.536  1.00  0.00    -0.277 OA
BRANCH  16  17
HETATM   17  C11 UNL     1      46.250  33.712  38.654  1.00  0.00     0.294 C 
HETATM   18  O4  UNL     1      45.738  33.524  39.784  1.00  0.00    -0.263 OA
BRANCH  17  19
HETATM   19  C12 UNL     1      45.817  32.970  37.457  1.00  0.00     0.284 C 
BRANCH  19  20
HETATM   20  N1  UNL     1      44.583  32.277  37.762  1.00  0.00    -0.066 N 
ATOM     21  H13 UNL     1      44.549  31.945  38.726  1.00  0.00     0.275 HD
ATOM     22  H12 UNL     1      43.781  32.906  37.802  1.00  0.00     0.275 HD
ATOM     23  H11 UNL     1      44.455  31.524  37.086  1.00  0.00     0.275 HD
ENDBRANCH  19  20
BRANCH  19  24
HETATM   24  C13 UNL     1      45.471  34.016  36.397  1.00  0.00     0.072 C 
BRANCH  24  25
HETATM   25  C14 UNL     1      45.942  33.514  35.041  1.00  0.00     0.203 C 
BRANCH  25  26
HETATM   26  O5  UNL     1      46.241  34.632  34.233  1.00  0.00    -0.278 OA
BRANCH  26  27
HETATM   27  N2  UNL     1      47.543  34.913  33.936  1.00  0.00    -0.241 N 
HETATM   28  C15 UNL     1      48.127  34.579  32.836  1.00  0.00     0.221 C 
HETATM   29  N3  UNL     1      49.493  34.943  32.672  1.00  0.00    -0.065 NA
HETATM   30  N4  UNL     1      47.506  33.879  31.781  1.00  0.00    -0.065 NA
ATOM     31  H2  UNL     1      48.091  35.420  34.631  1.00  0.00     0.196 HD
ENDBRANCH  26  27
ENDBRANCH  25  26
ENDBRANCH  24  25
ENDBRANCH  19  24
ENDBRANCH  17  19
ENDBRANCH  16  17
ENDBRANCH  12  16
BRANCH  15  32
HETATM   32  N5  UNL     1      52.685  33.284  38.714  1.00  0.00    -0.340 N 
ATOM     33  H5  UNL     1      53.125  33.135  39.622  1.00  0.00     0.167 HD
BRANCH  32  34
HETATM   34  C19 UNL     1      53.398  33.148  37.643  1.00  0.00     0.105 A 
HETATM   35  C20 UNL     1      54.645  33.717  37.620  1.00  0.00     0.048 A 
HETATM   36  C21 UNL     1      55.460  33.619  36.527  1.00  0.00     0.005 A 
HETATM   37  C22 UNL     1      54.999  32.925  35.425  1.00  0.00     0.017 A 
HETATM   38  C23 UNL     1      53.740  32.366  35.481  1.00  0.00     0.089 A 
HETATM   39  N6  UNL     1      52.967  32.480  36.567  1.00  0.00    -0.352 N 
ATOM     40  H6  UNL     1      52.040  32.053  36.576  1.00  0.00     0.166 HD
ENDBRANCH  32  34
ENDBRANCH  15  32
ENDBRANCH   9  10
ENDBRANCH   8   9
ENDBRANCH   7   8
ENDBRANCH   6   7
ENDBRANCH   3   6
TORSDOF 15
ENDMDL
MODEL 4
REMARK VINA RESULT: -6.471318307      1.981      2.736
REMARK  15 active torsions:
REMARK  status: ('A' for Active; 'I' for Inactive)
REMARK    1  A    between atoms: C3_3  and  O1_6 
REMARK    2  A    between atoms: O1_6  and  C6_7 
REMARK    3  A    between atoms: C6_7  and  C7_8 
REMARK    4  A    between atoms: C7_8  and  O2_9 
REMARK    5  A    between atoms: O2_9  and  C8_10 
REMARK    6  A    between atoms: C10_12  and  O3_13 
REMARK    7  A    between atoms: O3_13  and  C11_14 
REMARK    8  A    between atoms: C11_14  and  C12_16 
REMARK    9  A    between atoms: C12_16  and  N1_17 
REMARK   10  A    between atoms: C12_16  and  C13_21 
REMARK   11  A    between atoms: C13_21  and  C14_22 
REMARK   12  A    between atoms: C14_22  and  O5_23 
REMARK   13  A    between atoms: O5_23  and  N2_24 
REMARK   14  A    between atoms: C18_31  and  N5_32 
REMARK   15  A    between atoms: N5_32  and  C19_34 
ROOT
HETATM    1  C1  UNL     1      51.522  30.844  36.168  1.00  0.00     0.015 C 
HETATM    2  C2  UNL     1      50.524  30.594  36.792  1.00  0.00    -0.080 C 
HETATM    3  C3  UNL     1      49.333  30.281  37.558  1.00  0.00     0.115 C 
HETATM    4  C4  UNL     1      49.370  28.779  37.850  1.00  0.00     0.060 C 
HETATM    5  C5  UNL     1      48.120  30.529  36.663  1.00  0.00     0.060 C 
ENDROOT
BRANCH   3   6
HETATM    6  O1  UNL     1      49.245  30.927  38.759  1.00  0.00    -0.366 OA
BRANCH   6   7
HETATM    7  C6  UNL     1      50.278  30.708  39.630  1.00  0.00     0.196 C 
BRANCH   7   8
HETATM    8  C7  UNL     1      50.307  31.849  40.624  1.00  0.00     0.202 C 
BRANCH   8   9
HETATM    9  O2  UNL     1      51.242  32.842  40.251  1.00  0.00    -0.347 OA
BRANCH   9  10
HETATM   10  C8  UNL     1      50.875  33.757  39.275  1.00  0.00     0.098 A 
HETATM   11  C9  UNL     1      49.649  34.399  39.320  1.00  0.00     0.076 A 
HETATM   12  C10 UNL     1      49.314  35.303  38.333  1.00  0.00     0.082 A 
HETATM   13  C16 UNL     1      50.218  35.548  37.320  1.00  0.00     0.040 A 
HETATM   14  C17 UNL     1      51.448  34.896  37.285  1.00  0.00     0.035 A 
HETATM   15  C18 UNL     1      51.786  33.993  38.266  1.00  0.00     0.067 A 
BRANCH  12  16
HETATM   16  O3  UNL     1      48.114  35.986  38.303  1.00  0.00    -0.277 OA
BRANCH  16  17
HETATM   17  C11 UNL     1      47.182  35.731  37.318  1.00  0.00     0.294 C 
HETATM   18  O4  UNL     1      47.158  36.478  36.310  1.00  0.00    -0.263 OA
BRANCH  17  19
HETATM   19  C12 UNL     1      46.255  34.598  37.484  1.00  0.00     0.284 C 
BRANCH  19  20
HETATM   20  N1  UNL     1      45.295  34.932  38.516  1.00  0.00    -0.066 N 
ATOM     21  H13 UNL     1      45.686  34.850  39.455  1.00  0.00     0.275 HD
ATOM     22  H12 UNL     1      45.079  35.929  38.541  1.00  0.00     0.275 HD
ATOM     23  H11 UNL     1      44.464  34.355  38.389  1.00  0.00     0.275 HD
ENDBRANCH  19  20
BRANCH  19  24
HETATM   24  C13 UNL     1      45.462  34.488  36.181  1.00  0.00     0.072 C 
BRANCH  24  25
HETATM   25  C14 UNL     1      45.893  33.225  35.451  1.00  0.00     0.203 C 
BRANCH  25  26
HETATM   26  O5  UNL     1      46.314  33.585  34.152  1.00  0.00    -0.278 OA
BRANCH  26  27
HETATM   27  N2  UNL     1      47.300  34.516  34.004  1.00  0.00    -0.241 N 
HETATM   28  C15 UNL     1      48.560  34.242  33.963  1.00  0.00     0.221 C 
HETATM   29  N3  UNL     1      49.470  35.324  33.803  1.00  0.00    -0.065 NA
HETATM   30  N4  UNL     1      49.099  32.944  34.066  1.00  0.00    -0.065 NA
ATOM     31  H2  UNL     1      47.023  35.494  33.918  1.00  0.00     0.196 HD
ENDBRANCH  26  27
ENDBRANCH  25  26
ENDBRANCH  24  25
ENDBRANCH  19  24
ENDBRANCH  17  19
ENDBRANCH  16  17
ENDBRANCH  12  16
BRANCH  15  32
HETATM   32  N5  UNL     1      53.034  33.313  38.259  1.00  0.00    -0.340 N 
ATOM     33  H5  UNL     1      53.123  32.437  38.774  1.00  0.00     0.167 HD
BRANCH  32  34
HETATM   34  C19 UNL     1      54.063  33.769  37.619  1.00  0.00     0.105 A 
HETATM   35  C20 UNL     1      54.573  33.016  36.594  1.00  0.00     0.048 A 
HETATM   36  C21 UNL     1      55.657  33.427  35.870  1.00  0.00     0.005 A 
HETATM   37  C22 UNL     1      56.242  34.636  36.194  1.00  0.00     0.017 A 
HETATM   38  C23 UNL     1      55.704  35.369  37.231  1.00  0.00     0.089 A 
HETATM   39  N6  UNL     1      54.641  34.937  37.920  1.00  0.00    -0.352 N 
ATOM     40  H6  UNL     1      54.268  35.505  38.682  1.00  0.00     0.166 HD
ENDBRANCH  32  34
ENDBRANCH  15  32
ENDBRANCH   9  10
ENDBRANCH   8   9
ENDBRANCH   7   8
ENDBRANCH   6   7
ENDBRANCH   3   6
TORSDOF 15
ENDMDL
MODEL 5
REMARK VINA RESULT: -6.466953542      2.185      3.353
REMARK  15 active torsions:
REMARK  status: ('A' for Active; 'I' for Inactive)
REMARK    1  A    between atoms: C3_3  and  O1_6 
REMARK    2  A    between atoms: O1_6  and  C6_7 
REMARK    3  A    between atoms: C6_7  and  C7_8 
REMARK    4  A    between atoms: C7_8  and  O2_9 
REMARK    5  A    between atoms: O2_9  and  C8_10 
REMARK    6  A    between atoms: C10_12  and  O3_13 
REMARK    7  A    between atoms: O3_13  and  C11_14 
REMARK    8  A    between atoms: C11_14  and  C12_16 
REMARK    9  A    between atoms: C12_16  and  N1_17 
REMARK   10  A    between atoms: C12_16  and  C13_21 
REMARK   11  A    between atoms: C13_21  and  C14_22 
REMARK   12  A    between atoms: C14_22  and  O5_23 
REMARK   13  A    between atoms: O5_23  and  N2_24 
REMARK   14  A    between atoms: C18_31  and  N5_32 
REMARK   15  A    between atoms: N5_32  and  C19_34 
ROOT
HETATM    1  C1  UNL     1      50.546  31.310  32.122  1.00  0.00     0.015 C 
HETATM    2  C2  UNL     1      51.137  31.923  32.971  1.00  0.00    -0.080 C 
HETATM    3  C3  UNL     1      51.858  32.677  33.980  1.00  0.00     0.115 C 
HETATM    4  C4  UNL     1      53.247  32.975  33.409  1.00  0.00     0.060 C 
HETATM    5  C5  UNL     1      52.061  31.768  35.190  1.00  0.00     0.060 C 
ENDROOT
BRANCH   3   6
HETATM    6  O1  UNL     1      51.288  33.875  34.308  1.00  0.00    -0.366 OA
BRANCH   6   7
HETATM    7  C6  UNL     1      52.114  34.779  34.919  1.00  0.00     0.196 C 
BRANCH   7   8
HETATM    8  C7  UNL     1      51.283  35.601  35.881  1.00  0.00     0.202 C 
BRANCH   8   9
HETATM    9  O2  UNL     1      51.698  35.414  37.220  1.00  0.00    -0.347 OA
BRANCH   9  10
HETATM   10  C8  UNL     1      51.338  34.237  37.861  1.00  0.00     0.098 A 
HETATM   11  C9  UNL     1      50.073  33.697  37.708  1.00  0.00     0.076 A 
HETATM   12  C10 UNL     1      49.746  32.526  38.360  1.00  0.00     0.082 A 
HETATM   13  C16 UNL     1      50.696  31.919  39.153  1.00  0.00     0.040 A 
HETATM   14  C17 UNL     1      51.966  32.471  39.301  1.00  0.00     0.035 A 
HETATM   15  C18 UNL     1      52.296  33.639  38.653  1.00  0.00     0.067 A 
BRANCH  12  16
HETATM   16  O3  UNL     1      48.508  31.920  38.260  1.00  0.00    -0.277 OA
BRANCH  16  17
HETATM   17  C11 UNL     1      47.349  32.655  38.408  1.00  0.00     0.294 C 
HETATM   18  O4  UNL     1      47.269  33.459  39.368  1.00  0.00    -0.263 OA
BRANCH  17  19
HETATM   19  C12 UNL     1      46.255  32.470  37.439  1.00  0.00     0.284 C 
BRANCH  19  20
HETATM   20  N1  UNL     1      45.101  33.219  37.893  1.00  0.00    -0.066 N 
ATOM     21  H13 UNL     1      44.770  32.909  38.807  1.00  0.00     0.275 HD
ATOM     22  H12 UNL     1      45.334  34.179  38.147  1.00  0.00     0.275 HD
ATOM     23  H11 UNL     1      44.377  33.168  37.178  1.00  0.00     0.275 HD
ENDBRANCH  19  20
BRANCH  19  24
HETATM   24  C13 UNL     1      46.709  33.131  36.137  1.00  0.00     0.072 C 
BRANCH  24  25
HETATM   25  C14 UNL     1      45.728  34.238  35.781  1.00  0.00     0.203 C 
BRANCH  25  26
HETATM   26  O5  UNL     1      46.233  35.457  36.282  1.00  0.00    -0.278 OA
BRANCH  26  27
HETATM   27  N2  UNL     1      45.379  36.500  36.487  1.00  0.00    -0.241 N 
HETATM   28  C15 UNL     1      44.974  36.892  37.648  1.00  0.00     0.221 C 
HETATM   29  N3  UNL     1      44.081  37.998  37.701  1.00  0.00    -0.065 NA
HETATM   30  N4  UNL     1      45.356  36.300  38.869  1.00  0.00    -0.065 NA
ATOM     31  H2  UNL     1      45.038  37.005  35.669  1.00  0.00     0.196 HD
ENDBRANCH  26  27
ENDBRANCH  25  26
ENDBRANCH  24  25
ENDBRANCH  19  24
ENDBRANCH  17  19
ENDBRANCH  16  17
ENDBRANCH  12  16
BRANCH  15  32
HETATM   32  N5  UNL     1      53.584  34.228  38.782  1.00  0.00    -0.340 N 
ATOM     33  H5  UNL     1      53.878  34.577  39.695  1.00  0.00     0.167 HD
BRANCH  32  34
HETATM   34  C19 UNL     1      54.396  34.335  37.780  1.00  0.00     0.105 A 
HETATM   35  C20 UNL     1      54.821  33.185  37.166  1.00  0.00     0.048 A 
HETATM   36  C21 UNL     1      55.678  33.213  36.102  1.00  0.00     0.005 A 
HETATM   37  C22 UNL     1      56.118  34.441  35.646  1.00  0.00     0.017 A 
HETATM   38  C23 UNL     1      55.672  35.577  36.287  1.00  0.00     0.089 A 
HETATM   39  N6  UNL     1      54.832  35.515  37.327  1.00  0.00    -0.352 N 
ATOM     40  H6  UNL     1      54.521  36.376  37.778  1.00  0.00     0.166 HD
ENDBRANCH  32  34
ENDBRANCH  15  32
ENDBRANCH   9  10
ENDBRANCH   8   9
ENDBRANCH   7   8
ENDBRANCH   6   7
ENDBRANCH   3   6
TORSDOF 15
ENDMDL
