MODEL 1
REMARK VINA RESULT: -6.996113574      0.000      0.000
REMARK  13 active torsions:
REMARK  status: ('A' for Active; 'I' for Inactive)
REMARK    1  A    between atoms: C2_2  and  O1_3 
REMARK    2  A    between atoms: O1_3  and  C3_4 
REMARK    3  A    between atoms: C3_4  and  C4_5 
REMARK    4  A    between atoms: C4_5  and  N1_6 
REMARK    5  A    between atoms: N1_6  and  C6_8 
REMARK    6  A    between atoms: C9_11  and  O2_12 
REMARK    7  A    between atoms: C11_14  and  N2_15 
REMARK    8  A    between atoms: N2_15  and  C12_17 
REMARK    9  A    between atoms: C13_20  and  N4_21 
REMARK   10  A    between atoms: C16_28  and  O3_29 
REMARK   11  A    between atoms: O3_29  and  C17_30 
REMARK   12  A    between atoms: C17_30  and  C18_31 
REMARK   13  A    between atoms: C19_34  and  O5_35 
ROOT
HETATM    1  C12 UNL     1      49.830  30.548  37.052  1.00  0.00     0.134 A 
HETATM    2  N3  UNL     1      49.558  29.420  36.371  1.00  0.00    -0.176 N 
ATOM      3  H3  UNL     1      50.301  28.743  36.199  1.00  0.00     0.186 HD
HETATM    4  C13 UNL     1      48.314  29.177  35.914  1.00  0.00     0.677 A 
HETATM    5  N5  UNL     1      47.343  30.081  36.150  1.00  0.00    -0.191 N 
ATOM      6  H5  UNL     1      46.402  29.894  35.803  1.00  0.00     0.184 HD
HETATM    7  C14 UNL     1      47.572  31.224  36.826  1.00  0.00     0.066 A 
HETATM    8  C15 UNL     1      46.570  32.150  37.063  1.00  0.00     0.070 A 
HETATM    9  C16 UNL     1      46.771  33.328  37.749  1.00  0.00     0.104 A 
HETATM   10  C19 UNL     1      48.066  33.567  38.216  1.00  0.00     0.102 A 
HETATM   11  C21 UNL     1      49.084  32.661  37.996  1.00  0.00     0.057 A 
HETATM   12  C22 UNL     1      48.833  31.496  37.303  1.00  0.00     0.039 A 
ENDROOT
BRANCH   1  13
HETATM   13  N2  UNL     1      50.974  30.817  37.506  1.00  0.00    -0.339 N 
ATOM     14  H2  UNL     1      51.117  30.572  38.486  1.00  0.00     0.167 HD
BRANCH  13  15
HETATM   15  C11 UNL     1      52.083  31.403  36.873  1.00  0.00     0.069 A 
HETATM   16  C9  UNL     1      52.929  32.141  37.712  1.00  0.00     0.095 A 
HETATM   17  C8  UNL     1      54.037  32.736  37.170  1.00  0.00     0.041 A 
HETATM   18  C7  UNL     1      54.339  32.623  35.805  1.00  0.00     0.032 A 
HETATM   19  C6  UNL     1      53.496  31.895  35.002  1.00  0.00     0.032 A 
HETATM   20  C23 UNL     1      52.361  31.282  35.541  1.00  0.00     0.061 A 
BRANCH  16  21
HETATM   21  O2  UNL     1      52.647  32.266  39.071  1.00  0.00    -0.354 OA
HETATM   22  C10 UNL     1      52.454  33.559  39.612  1.00  0.00     0.210 C 
ENDBRANCH  16  21
BRANCH  19  23
HETATM   23  N1  UNL     1      53.769  31.755  33.612  1.00  0.00    -0.383 N 
HETATM   24  C5  UNL     1      54.874  32.564  33.049  1.00  0.00     0.150 C 
BRANCH  23  25
HETATM   25  C4  UNL     1      53.041  30.856  32.792  1.00  0.00     0.148 C 
BRANCH  25  26
HETATM   26  C3  UNL     1      53.925  29.831  32.110  1.00  0.00     0.187 C 
BRANCH  26  27
HETATM   27  O1  UNL     1      54.095  28.672  32.820  1.00  0.00    -0.390 OA
BRANCH  27  28
HETATM   28  C2  UNL     1      54.884  27.798  32.096  1.00  0.00     0.163 C 
HETATM   29  C1  UNL     1      55.230  26.549  32.869  1.00  0.00     0.033 C 
ENDBRANCH  27  28
ENDBRANCH  26  27
ENDBRANCH  25  26
ENDBRANCH  23  25
ENDBRANCH  19  23
ENDBRANCH  13  15
ENDBRANCH   1  13
BRANCH   4  30
HETATM   30  N4  UNL     1      48.102  28.087  35.271  1.00  0.00    -0.234 N 
ATOM     31  H42 UNL     1      48.786  27.331  35.232  1.00  0.00     0.174 HD
ATOM     32  H41 UNL     1      47.214  27.978  34.781  1.00  0.00     0.174 HD
ENDBRANCH   4  30
BRANCH  10  33
HETATM   33  O5  UNL     1      48.250  34.756  38.903  1.00  0.00    -0.353 OA
HETATM   34  C20 UNL     1      49.006  35.772  38.273  1.00  0.00     0.210 C 
ENDBRANCH  10  33
BRANCH   9  35
HETATM   35  O3  UNL     1      45.752  34.249  37.978  1.00  0.00    -0.340 OA
BRANCH  35  36
HETATM   36  C17 UNL     1      45.588  35.315  37.073  1.00  0.00     0.275 C 
BRANCH  36  37
HETATM   37  C18 UNL     1      45.233  36.577  37.760  1.00  0.00     0.255 C 
HETATM   38  N6  UNL     1      44.528  37.631  37.146  1.00  0.00    -0.060 NA
HETATM   39  O4  UNL     1      45.584  36.714  38.963  1.00  0.00    -0.274 OA
ENDBRANCH  36  37
ENDBRANCH  35  36
ENDBRANCH   9  35
TORSDOF 13
ENDMDL
MODEL 2
REMARK VINA RESULT: -6.871788476      1.584      2.756
REMARK  13 active torsions:
REMARK  status: ('A' for Active; 'I' for Inactive)
REMARK    1  A    between atoms: C2_2  and  O1_3 
REMARK    2  A    between atoms: O1_3  and  C3_4 
REMARK    3  A    between atoms: C3_4  and  C4_5 
REMARK    4  A    between atoms: C4_5  and  N1_6 
REMARK    5  A    between atoms: N1_6  and  C6_8 
REMARK    6  A    between atoms: C9_11  and  O2_12 
REMARK    7  A    between atoms: C11_14  and  N2_15 
REMARK    8  A    between atoms: N2_15  and  C12_17 
REMARK    9  A    between atoms: C13_20  and  N4_21 
REMARK   10  A    between atoms: C16_28  and  O3_29 
REMARK   11  A    between atoms: O3_29  and  C17_30 
REMARK   12  A    between atoms: C17_30  and  C18_31 
REMARK   13  A    between atoms: C19_34  and  O5_35 
ROOT
HETATM    1  C12 UNL     1      49.726  30.466  37.041  1.00  0.00     0.134 A 
HETATM    2  N3  UNL     1      49.432  29.353  36.346  1.00  0.00    -0.176 N 
ATOM      3  H3  UNL     1      50.160  28.662  36.169  1.00  0.00     0.186 HD
HETATM    4  C13 UNL     1      48.184  29.142  35.884  1.00  0.00     0.677 A 
HETATM    5  N5  UNL     1      47.233  30.065  36.127  1.00  0.00    -0.191 N 
ATOM      6  H5  UNL     1      46.289  29.902  35.776  1.00  0.00     0.184 HD
HETATM    7  C14 UNL     1      47.485  31.194  36.817  1.00  0.00     0.066 A 
HETATM    8  C15 UNL     1      46.503  32.139  37.062  1.00  0.00     0.070 A 
HETATM    9  C16 UNL     1      46.728  33.305  37.762  1.00  0.00     0.104 A 
HETATM   10  C19 UNL     1      48.026  33.509  38.235  1.00  0.00     0.102 A 
HETATM   11  C21 UNL     1      49.024  32.585  38.007  1.00  0.00     0.057 A 
HETATM   12  C22 UNL     1      48.750  31.433  37.300  1.00  0.00     0.039 A 
ENDROOT
BRANCH   1  13
HETATM   13  N2  UNL     1      50.875  30.705  37.501  1.00  0.00    -0.339 N 
ATOM     14  H2  UNL     1      51.018  30.421  38.471  1.00  0.00     0.167 HD
BRANCH  13  15
HETATM   15  C11 UNL     1      51.988  31.302  36.888  1.00  0.00     0.069 A 
HETATM   16  C9  UNL     1      52.952  31.815  37.767  1.00  0.00     0.095 A 
HETATM   17  C8  UNL     1      54.072  32.405  37.244  1.00  0.00     0.041 A 
HETATM   18  C7  UNL     1      54.272  32.506  35.859  1.00  0.00     0.032 A 
HETATM   19  C6  UNL     1      53.314  31.996  35.016  1.00  0.00     0.032 A 
HETATM   20  C23 UNL     1      52.166  31.391  35.536  1.00  0.00     0.061 A 
BRANCH  16  21
HETATM   21  O2  UNL     1      52.773  31.725  39.146  1.00  0.00    -0.354 OA
HETATM   22  C10 UNL     1      52.450  32.897  39.870  1.00  0.00     0.210 C 
ENDBRANCH  16  21
BRANCH  19  23
HETATM   23  N1  UNL     1      53.482  32.077  33.606  1.00  0.00    -0.383 N 
HETATM   24  C5  UNL     1      53.528  30.806  32.849  1.00  0.00     0.150 C 
BRANCH  23  25
HETATM   25  C4  UNL     1      53.570  33.322  32.932  1.00  0.00     0.148 C 
BRANCH  25  26
HETATM   26  C3  UNL     1      52.332  34.178  33.107  1.00  0.00     0.187 C 
BRANCH  26  27
HETATM   27  O1  UNL     1      52.502  35.249  33.945  1.00  0.00    -0.390 OA
BRANCH  27  28
HETATM   28  C2  UNL     1      51.529  35.226  34.927  1.00  0.00     0.163 C 
HETATM   29  C1  UNL     1      52.088  35.479  36.306  1.00  0.00     0.033 C 
ENDBRANCH  27  28
ENDBRANCH  26  27
ENDBRANCH  25  26
ENDBRANCH  23  25
ENDBRANCH  19  23
ENDBRANCH  13  15
ENDBRANCH   1  13
BRANCH   4  30
HETATM   30  N4  UNL     1      47.951  28.065  35.228  1.00  0.00    -0.234 N 
ATOM     31  H42 UNL     1      48.687  27.408  34.968  1.00  0.00     0.174 HD
ATOM     32  H41 UNL     1      46.988  27.861  34.957  1.00  0.00     0.174 HD
ENDBRANCH   4  30
BRANCH  10  33
HETATM   33  O5  UNL     1      48.234  34.687  38.935  1.00  0.00    -0.353 OA
HETATM   34  C20 UNL     1      48.915  35.736  38.276  1.00  0.00     0.210 C 
ENDBRANCH  10  33
BRANCH   9  35
HETATM   35  O3  UNL     1      45.729  34.246  37.998  1.00  0.00    -0.340 OA
BRANCH  35  36
HETATM   36  C17 UNL     1      45.534  35.276  37.059  1.00  0.00     0.275 C 
BRANCH  36  37
HETATM   37  C18 UNL     1      45.224  36.569  37.709  1.00  0.00     0.255 C 
HETATM   38  N6  UNL     1      44.607  37.650  37.049  1.00  0.00    -0.060 NA
HETATM   39  O4  UNL     1      45.531  36.708  38.924  1.00  0.00    -0.274 OA
ENDBRANCH  36  37
ENDBRANCH  35  36
ENDBRANCH   9  35
TORSDOF 13
ENDMDL
MODEL 3
REMARK VINA RESULT: -6.766468760      1.175      1.599
REMARK  13 active torsions:
REMARK  status: ('A' for Active; 'I' for Inactive)
REMARK    1  A    between atoms: C2_2  and  O1_3 
REMARK    2  A    between atoms: O1_3  and  C3_4 
REMARK    3  A    between atoms: C3_4  and  C4_5 
REMARK    4  A    between atoms: C4_5  and  N1_6 
REMARK    5  A    between atoms: N1_6  and  C6_8 
REMARK    6  A    between atoms: C9_11  and  O2_12 
REMARK    7  A    between atoms: C11_14  and  N2_15 
REMARK    8  A    between atoms: N2_15  and  C12_17 
REMARK    9  A    between atoms: C13_20  and  N4_21 
REMARK   10  A    between atoms: C16_28  and  O3_29 
REMARK   11  A    between atoms: O3_29  and  C17_30 
REMARK   12  A    between atoms: C17_30  and  C18_31 
REMARK   13  A    between atoms: C19_34  and  O5_35 
ROOT
HETATM    1  C12 UNL     1      49.707  30.440  37.032  1.00  0.00     0.134 A 
HETATM    2  N3  UNL     1      49.403  29.329  36.338  1.00  0.00    -0.176 N 
ATOM      3  H3  UNL     1      50.127  28.634  36.156  1.00  0.00     0.186 HD
HETATM    4  C13 UNL     1      48.152  29.126  35.881  1.00  0.00     0.677 A 
HETATM    5  N5  UNL     1      47.207  30.053  36.130  1.00  0.00    -0.191 N 
ATOM      6  H5  UNL     1      46.260  29.897  35.783  1.00  0.00     0.184 HD
HETATM    7  C14 UNL     1      47.469  31.181  36.820  1.00  0.00     0.066 A 
HETATM    8  C15 UNL     1      46.493  32.131  37.070  1.00  0.00     0.070 A 
HETATM    9  C16 UNL     1      46.728  33.295  37.771  1.00  0.00     0.104 A 
HETATM   10  C19 UNL     1      48.029  33.491  38.237  1.00  0.00     0.102 A 
HETATM   11  C21 UNL     1      49.021  32.561  38.004  1.00  0.00     0.057 A 
HETATM   12  C22 UNL     1      48.737  31.412  37.298  1.00  0.00     0.039 A 
ENDROOT
BRANCH   1  13
HETATM   13  N2  UNL     1      50.859  30.672  37.487  1.00  0.00    -0.339 N 
ATOM     14  H2  UNL     1      51.006  30.385  38.455  1.00  0.00     0.167 HD
BRANCH  13  15
HETATM   15  C11 UNL     1      51.973  31.264  36.870  1.00  0.00     0.069 A 
HETATM   16  C9  UNL     1      52.920  31.813  37.745  1.00  0.00     0.095 A 
HETATM   17  C8  UNL     1      54.039  32.402  37.218  1.00  0.00     0.041 A 
HETATM   18  C7  UNL     1      54.253  32.467  35.833  1.00  0.00     0.032 A 
HETATM   19  C6  UNL     1      53.311  31.923  34.995  1.00  0.00     0.032 A 
HETATM   20  C23 UNL     1      52.165  31.319  35.518  1.00  0.00     0.061 A 
BRANCH  16  21
HETATM   21  O2  UNL     1      52.727  31.759  39.124  1.00  0.00    -0.354 OA
HETATM   22  C10 UNL     1      52.399  32.949  39.814  1.00  0.00     0.210 C 
ENDBRANCH  16  21
BRANCH  19  23
HETATM   23  N1  UNL     1      53.493  31.967  33.584  1.00  0.00    -0.383 N 
HETATM   24  C5  UNL     1      53.636  33.300  32.955  1.00  0.00     0.150 C 
BRANCH  23  25
HETATM   25  C4  UNL     1      53.570  30.787  32.801  1.00  0.00     0.148 C 
BRANCH  25  26
HETATM   26  C3  UNL     1      52.505  30.722  31.725  1.00  0.00     0.187 C 
BRANCH  26  27
HETATM   27  O1  UNL     1      51.381  30.027  32.089  1.00  0.00    -0.390 OA
BRANCH  27  28
HETATM   28  C2  UNL     1      50.360  30.303  31.197  1.00  0.00     0.163 C 
HETATM   29  C1  UNL     1      49.535  29.084  30.863  1.00  0.00     0.033 C 
ENDBRANCH  27  28
ENDBRANCH  26  27
ENDBRANCH  25  26
ENDBRANCH  23  25
ENDBRANCH  19  23
ENDBRANCH  13  15
ENDBRANCH   1  13
BRANCH   4  30
HETATM   30  N4  UNL     1      47.909  28.050  35.225  1.00  0.00    -0.234 N 
ATOM     31  H42 UNL     1      47.643  28.055  34.240  1.00  0.00     0.174 HD
ATOM     32  H41 UNL     1      47.986  27.157  35.713  1.00  0.00     0.174 HD
ENDBRANCH   4  30
BRANCH  10  33
HETATM   33  O5  UNL     1      48.248  34.667  38.939  1.00  0.00    -0.353 OA
HETATM   34  C20 UNL     1      48.967  35.698  38.291  1.00  0.00     0.210 C 
ENDBRANCH  10  33
BRANCH   9  35
HETATM   35  O3  UNL     1      45.735  34.241  38.013  1.00  0.00    -0.340 OA
BRANCH  35  36
HETATM   36  C17 UNL     1      45.551  35.281  37.083  1.00  0.00     0.275 C 
BRANCH  36  37
HETATM   37  C18 UNL     1      45.234  36.567  37.743  1.00  0.00     0.255 C 
HETATM   38  N6  UNL     1      44.565  37.631  37.106  1.00  0.00    -0.060 NA
HETATM   39  O4  UNL     1      45.583  36.715  38.946  1.00  0.00    -0.274 OA
ENDBRANCH  36  37
ENDBRANCH  35  36
ENDBRANCH   9  35
TORSDOF 13
ENDMDL
MODEL 4
REMARK VINA RESULT: -6.671226496      1.455      2.221
REMARK  13 active torsions:
REMARK  status: ('A' for Active; 'I' for Inactive)
REMARK    1  A    between atoms: C2_2  and  O1_3 
REMARK    2  A    between atoms: O1_3  and  C3_4 
REMARK    3  A    between atoms: C3_4  and  C4_5 
REMARK    4  A    between atoms: C4_5  and  N1_6 
REMARK    5  A    between atoms: N1_6  and  C6_8 
REMARK    6  A    between atoms: C9_11  and  O2_12 
REMARK    7  A    between atoms: C11_14  and  N2_15 
REMARK    8  A    between atoms: N2_15  and  C12_17 
REMARK    9  A    between atoms: C13_20  and  N4_21 
REMARK   10  A    between atoms: C16_28  and  O3_29 
REMARK   11  A    between atoms: O3_29  and  C17_30 
REMARK   12  A    between atoms: C17_30  and  C18_31 
REMARK   13  A    between atoms: C19_34  and  O5_35 
ROOT
HETATM    1  C12 UNL     1      49.703  30.433  37.040  1.00  0.00     0.134 A 
HETATM    2  N3  UNL     1      49.407  29.323  36.341  1.00  0.00    -0.176 N 
ATOM      3  H3  UNL     1      50.133  28.629  36.164  1.00  0.00     0.186 HD
HETATM    4  C13 UNL     1      48.160  29.120  35.871  1.00  0.00     0.677 A 
HETATM    5  N5  UNL     1      47.213  30.047  36.111  1.00  0.00    -0.191 N 
ATOM      6  H5  UNL     1      46.270  29.890  35.755  1.00  0.00     0.184 HD
HETATM    7  C14 UNL     1      47.466  31.173  36.807  1.00  0.00     0.066 A 
HETATM    8  C15 UNL     1      46.488  32.122  37.049  1.00  0.00     0.070 A 
HETATM    9  C16 UNL     1      46.715  33.285  37.754  1.00  0.00     0.104 A 
HETATM   10  C19 UNL     1      48.011  33.481  38.234  1.00  0.00     0.102 A 
HETATM   11  C21 UNL     1      49.006  32.552  38.008  1.00  0.00     0.057 A 
HETATM   12  C22 UNL     1      48.730  31.404  37.297  1.00  0.00     0.039 A 
ENDROOT
BRANCH   1  13
HETATM   13  N2  UNL     1      50.850  30.665  37.507  1.00  0.00    -0.339 N 
ATOM     14  H2  UNL     1      50.990  30.370  38.474  1.00  0.00     0.167 HD
BRANCH  13  15
HETATM   15  C11 UNL     1      51.967  31.267  36.904  1.00  0.00     0.069 A 
HETATM   16  C9  UNL     1      52.900  31.821  37.792  1.00  0.00     0.095 A 
HETATM   17  C8  UNL     1      54.021  32.419  37.280  1.00  0.00     0.041 A 
HETATM   18  C7  UNL     1      54.252  32.487  35.898  1.00  0.00     0.032 A 
HETATM   19  C6  UNL     1      53.324  31.938  35.047  1.00  0.00     0.032 A 
HETATM   20  C23 UNL     1      52.176  31.324  35.555  1.00  0.00     0.061 A 
BRANCH  16  21
HETATM   21  O2  UNL     1      52.689  31.764  39.168  1.00  0.00    -0.354 OA
HETATM   22  C10 UNL     1      52.418  32.963  39.867  1.00  0.00     0.210 C 
ENDBRANCH  16  21
BRANCH  19  23
HETATM   23  N1  UNL     1      53.524  31.985  33.639  1.00  0.00    -0.383 N 
HETATM   24  C5  UNL     1      53.572  30.696  32.912  1.00  0.00     0.150 C 
BRANCH  23  25
HETATM   25  C4  UNL     1      53.641  33.213  32.939  1.00  0.00     0.148 C 
BRANCH  25  26
HETATM   26  C3  UNL     1      55.054  33.492  32.467  1.00  0.00     0.187 C 
BRANCH  26  27
HETATM   27  O1  UNL     1      55.677  34.516  33.130  1.00  0.00    -0.390 OA
BRANCH  27  28
HETATM   28  C2  UNL     1      56.806  34.034  33.766  1.00  0.00     0.163 C 
HETATM   29  C1  UNL     1      57.914  33.686  32.801  1.00  0.00     0.033 C 
ENDBRANCH  27  28
ENDBRANCH  26  27
ENDBRANCH  25  26
ENDBRANCH  23  25
ENDBRANCH  19  23
ENDBRANCH  13  15
ENDBRANCH   1  13
BRANCH   4  30
HETATM   30  N4  UNL     1      47.925  28.046  35.210  1.00  0.00    -0.234 N 
ATOM     31  H42 UNL     1      48.624  27.603  34.613  1.00  0.00     0.174 HD
ATOM     32  H41 UNL     1      47.000  27.621  35.288  1.00  0.00     0.174 HD
ENDBRANCH   4  30
BRANCH  10  33
HETATM   33  O5  UNL     1      48.222  34.655  38.939  1.00  0.00    -0.353 OA
HETATM   34  C20 UNL     1      48.979  35.673  38.315  1.00  0.00     0.210 C 
ENDBRANCH  10  33
BRANCH   9  35
HETATM   35  O3  UNL     1      45.719  34.229  37.987  1.00  0.00    -0.340 OA
BRANCH  35  36
HETATM   36  C17 UNL     1      45.548  35.275  37.061  1.00  0.00     0.275 C 
BRANCH  36  37
HETATM   37  C18 UNL     1      45.239  36.561  37.726  1.00  0.00     0.255 C 
HETATM   38  N6  UNL     1      44.602  37.642  37.085  1.00  0.00    -0.060 NA
HETATM   39  O4  UNL     1      45.567  36.694  38.937  1.00  0.00    -0.274 OA
ENDBRANCH  36  37
ENDBRANCH  35  36
ENDBRANCH   9  35
TORSDOF 13
ENDMDL
MODEL 5
REMARK VINA RESULT: -6.558769254      3.512      5.582
REMARK  13 active torsions:
REMARK  status: ('A' for Active; 'I' for Inactive)
REMARK    1  A    between atoms: C2_2  and  O1_3 
REMARK    2  A    between atoms: O1_3  and  C3_4 
REMARK    3  A    between atoms: C3_4  and  C4_5 
REMARK    4  A    between atoms: C4_5  and  N1_6 
REMARK    5  A    between atoms: N1_6  and  C6_8 
REMARK    6  A    between atoms: C9_11  and  O2_12 
REMARK    7  A    between atoms: C11_14  and  N2_15 
REMARK    8  A    between atoms: N2_15  and  C12_17 
REMARK    9  A    between atoms: C13_20  and  N4_21 
REMARK   10  A    between atoms: C16_28  and  O3_29 
REMARK   11  A    between atoms: O3_29  and  C17_30 
REMARK   12  A    between atoms: C17_30  and  C18_31 
REMARK   13  A    between atoms: C19_34  and  O5_35 
ROOT
HETATM    1  C12 UNL     1      51.454  32.964  39.109  1.00  0.00     0.134 A 
HETATM    2  N3  UNL     1      51.225  31.753  39.646  1.00  0.00    -0.176 N 
ATOM      3  H3  UNL     1      51.989  31.245  40.092  1.00  0.00     0.186 HD
HETATM    4  C13 UNL     1      49.995  31.204  39.601  1.00  0.00     0.677 A 
HETATM    5  N5  UNL     1      48.996  31.887  39.009  1.00  0.00    -0.191 N 
ATOM      6  H5  UNL     1      48.066  31.469  38.977  1.00  0.00     0.184 HD
HETATM    7  C14 UNL     1      49.183  33.102  38.458  1.00  0.00     0.066 A 
HETATM    8  C15 UNL     1      48.152  33.798  37.849  1.00  0.00     0.070 A 
HETATM    9  C16 UNL     1      48.310  35.041  37.274  1.00  0.00     0.104 A 
HETATM   10  C19 UNL     1      49.590  35.596  37.328  1.00  0.00     0.102 A 
HETATM   11  C21 UNL     1      50.636  34.926  37.929  1.00  0.00     0.057 A 
HETATM   12  C22 UNL     1      50.428  33.684  38.491  1.00  0.00     0.039 A 
ENDROOT
BRANCH   1  13
HETATM   13  N2  UNL     1      52.584  33.523  39.132  1.00  0.00    -0.339 N 
ATOM     14  H2  UNL     1      52.856  33.907  40.038  1.00  0.00     0.167 HD
BRANCH  13  15
HETATM   15  C11 UNL     1      53.526  33.699  38.107  1.00  0.00     0.069 A 
HETATM   16  C9  UNL     1      53.721  32.588  37.275  1.00  0.00     0.095 A 
HETATM   17  C8  UNL     1      54.619  32.685  36.246  1.00  0.00     0.041 A 
HETATM   18  C7  UNL     1      55.343  33.864  36.010  1.00  0.00     0.032 A 
HETATM   19  C6  UNL     1      55.136  34.941  36.837  1.00  0.00     0.032 A 
HETATM   20  C23 UNL     1      54.222  34.855  37.892  1.00  0.00     0.061 A 
BRANCH  16  21
HETATM   21  O2  UNL     1      53.013  31.407  37.492  1.00  0.00    -0.354 OA
HETATM   22  C10 UNL     1      52.337  30.807  36.404  1.00  0.00     0.210 C 
ENDBRANCH  16  21
BRANCH  19  23
HETATM   23  N1  UNL     1      55.849  36.154  36.629  1.00  0.00    -0.383 N 
HETATM   24  C5  UNL     1      55.532  36.933  35.411  1.00  0.00     0.150 C 
BRANCH  23  25
HETATM   25  C4  UNL     1      56.806  36.630  37.561  1.00  0.00     0.148 C 
BRANCH  25  26
HETATM   26  C3  UNL     1      56.983  38.135  37.511  1.00  0.00     0.187 C 
BRANCH  26  27
HETATM   27  O1  UNL     1      57.025  38.738  38.740  1.00  0.00    -0.390 OA
BRANCH  27  28
HETATM   28  C2  UNL     1      57.117  40.108  38.579  1.00  0.00     0.163 C 
HETATM   29  C1  UNL     1      56.735  40.557  37.189  1.00  0.00     0.033 C 
ENDBRANCH  27  28
ENDBRANCH  26  27
ENDBRANCH  25  26
ENDBRANCH  23  25
ENDBRANCH  19  23
ENDBRANCH  13  15
ENDBRANCH   1  13
BRANCH   4  30
HETATM   30  N4  UNL     1      49.823  30.047  40.129  1.00  0.00    -0.234 N 
ATOM     31  H42 UNL     1      50.588  29.385  40.263  1.00  0.00     0.174 HD
ATOM     32  H41 UNL     1      48.883  29.783  40.423  1.00  0.00     0.174 HD
ENDBRANCH   4  30
BRANCH  10  33
HETATM   33  O5  UNL     1      49.730  36.845  36.744  1.00  0.00    -0.353 OA
HETATM   34  C20 UNL     1      50.998  37.190  36.220  1.00  0.00     0.210 C 
ENDBRANCH  10  33
BRANCH   9  35
HETATM   35  O3  UNL     1      47.262  35.726  36.664  1.00  0.00    -0.340 OA
BRANCH  35  36
HETATM   36  C17 UNL     1      45.941  35.397  37.019  1.00  0.00     0.275 C 
BRANCH  36  37
HETATM   37  C18 UNL     1      45.292  36.472  37.803  1.00  0.00     0.255 C 
HETATM   38  N6  UNL     1      45.172  36.455  39.207  1.00  0.00    -0.060 NA
HETATM   39  O4  UNL     1      44.819  37.458  37.175  1.00  0.00    -0.274 OA
ENDBRANCH  36  37
ENDBRANCH  35  36
ENDBRANCH   9  35
TORSDOF 13
ENDMDL
