MODEL 1
REMARK VINA RESULT: -7.475047807      0.000      0.000
REMARK  18 active torsions:
REMARK  status: ('A' for Active; 'I' for Inactive)
REMARK    1  A    between atoms: C2_2  and  C3_3 
REMARK    2  A    between atoms: C10_10  and  C11_11 
REMARK    3  A    between atoms: C11_11  and  C12_12 
REMARK    4  A    between atoms: C12_12  and  C13_13 
REMARK    5  A    between atoms: C15_15  and  N1_16 
REMARK       I    between atoms: N1_16  and  C16_18 
REMARK       I    between atoms: C16_18  and  N2_20 
REMARK    6  A    between atoms: N2_20  and  C17_22 
REMARK    7  A    between atoms: C17_22  and  C18_23 
REMARK    8  A    between atoms: C17_22  and  C22_27 
REMARK    9  A    between atoms: C18_23  and  C19_24 
REMARK   10  A    between atoms: C22_27  and  C23_29 
REMARK       I    between atoms: C23_29  and  N3_31 
REMARK   11  A    between atoms: N3_31  and  C24_33 
REMARK   12  A    between atoms: C24_33  and  C25_34 
REMARK   13  A    between atoms: C24_33  and  C29_38 
REMARK   14  A    between atoms: C25_34  and  C26_35 
REMARK   15  A    between atoms: C30_41  and  C31_42 
REMARK       I    between atoms: C31_42  and  N5_44 
REMARK   16  A    between atoms: N5_44  and  C32_46 
REMARK   17  A    between atoms: C32_46  and  C33_47 
REMARK   18  A    between atoms: C33_47  and  O6_48 
ROOT
HETATM    1  C3  UNL     1      36.623  28.272  21.127  1.00  0.00    -0.011 C 
HETATM    2  C4  UNL     1      35.804  29.512  20.745  1.00  0.00     0.021 C 
HETATM    3  C5  UNL     1      38.009  28.355  20.544  1.00  0.00     0.015 C 
HETATM    4  C6  UNL     1      37.766  28.526  19.073  1.00  0.00     0.010 C 
HETATM    5  C7  UNL     1      37.309  27.155  18.500  1.00  0.00    -0.043 C 
HETATM    6  C8  UNL     1      37.003  27.482  17.052  1.00  0.00     0.015 C 
HETATM    7  C9  UNL     1      38.597  26.355  18.490  1.00  0.00     0.015 C 
HETATM    8  C10 UNL     1      36.256  26.529  19.290  1.00  0.00     0.012 C 
HETATM    9  C35 UNL     1      35.953  27.053  20.663  1.00  0.00     0.109 C 
HETATM   10  C36 UNL     1      36.227  25.993  21.669  1.00  0.00     0.065 C 
HETATM   11  N6  UNL     1      36.448  25.146  22.443  1.00  0.00    -0.197 NA
ENDROOT
BRANCH   1  12
HETATM   12  C2  UNL     1      36.747  28.317  22.623  1.00  0.00    -0.026 C 
HETATM   13  C1  UNL     1      37.950  28.508  23.192  1.00  0.00     0.008 C 
ENDBRANCH   1  12
BRANCH   8  14
HETATM   14  C11 UNL     1      34.930  26.240  18.660  1.00  0.00     0.007 C 
BRANCH  14  15
HETATM   15  C12 UNL     1      33.848  27.241  18.671  1.00  0.00     0.012 C 
BRANCH  15  16
HETATM   16  C13 UNL     1      32.589  26.721  19.302  1.00  0.00    -0.009 A 
HETATM   17  C14 UNL     1      32.772  25.461  20.188  1.00  0.00     0.018 C 
HETATM   18  C15 UNL     1      31.227  26.995  18.870  1.00  0.00     0.109 A 
HETATM   19  C30 UNL     1      31.712  27.798  20.019  1.00  0.00     0.111 A 
BRANCH  18  20
HETATM   20  N1  UNL     1      30.168  26.023  19.183  1.00  0.00    -0.337 N 
HETATM   21  C16 UNL     1      28.962  25.928  18.471  1.00  0.00     0.317 C 
HETATM   22  O1  UNL     1      28.754  26.699  17.506  1.00  0.00    -0.247 OA
HETATM   23  N2  UNL     1      27.952  24.985  18.794  1.00  0.00    -0.331 N 
ATOM     24  H2  UNL     1      28.093  24.362  19.589  1.00  0.00     0.165 HD
ATOM     25  H1  UNL     1      30.318  25.381  19.962  1.00  0.00     0.164 HD
BRANCH  23  26
HETATM   26  C17 UNL     1      26.718  24.880  18.022  1.00  0.00     0.166 C 
BRANCH  26  27
HETATM   27  C18 UNL     1      26.375  23.515  17.575  1.00  0.00     0.037 C 
BRANCH  27  28
HETATM   28  C19 UNL     1      26.067  22.551  18.737  1.00  0.00    -0.020 C 
HETATM   29  C20 UNL     1      24.709  21.946  18.626  1.00  0.00     0.009 C 
HETATM   30  C21 UNL     1      27.172  21.607  19.018  1.00  0.00     0.009 C 
ENDBRANCH  27  28
ENDBRANCH  26  27
BRANCH  26  31
HETATM   31  C22 UNL     1      25.639  25.656  18.666  1.00  0.00     0.238 C 
HETATM   32  O2  UNL     1      24.618  25.847  17.919  1.00  0.00    -0.285 OA
BRANCH  31  33
HETATM   33  C23 UNL     1      25.618  26.200  20.003  1.00  0.00     0.290 C 
HETATM   34  O3  UNL     1      25.993  25.559  20.982  1.00  0.00    -0.264 OA
HETATM   35  N3  UNL     1      25.139  27.550  20.228  1.00  0.00    -0.342 N 
ATOM     36  H3  UNL     1      24.820  28.095  19.427  1.00  0.00     0.163 HD
BRANCH  35  37
HETATM   37  C24 UNL     1      25.094  28.153  21.533  1.00  0.00     0.174 C 
BRANCH  37  38
HETATM   38  C25 UNL     1      25.224  29.636  21.509  1.00  0.00     0.038 C 
BRANCH  38  39
HETATM   39  C26 UNL     1      25.141  30.329  22.824  1.00  0.00    -0.020 C 
HETATM   40  C27 UNL     1      23.966  31.322  22.723  1.00  0.00     0.009 C 
HETATM   41  C28 UNL     1      26.345  31.213  23.131  1.00  0.00     0.009 C 
ENDBRANCH  38  39
ENDBRANCH  37  38
BRANCH  37  42
HETATM   42  C29 UNL     1      24.001  27.628  22.366  1.00  0.00     0.254 C 
HETATM   43  N4  UNL     1      22.669  28.017  22.100  1.00  0.00    -0.060 NA
HETATM   44  O4  UNL     1      24.228  26.843  23.311  1.00  0.00    -0.275 OA
ENDBRANCH  37  42
ENDBRANCH  35  37
ENDBRANCH  31  33
ENDBRANCH  26  31
ENDBRANCH  23  26
ENDBRANCH  18  20
BRANCH  19  45
HETATM   45  C31 UNL     1      32.024  29.227  19.839  1.00  0.00     0.224 C 
HETATM   46  O5  UNL     1      32.649  29.897  20.684  1.00  0.00    -0.273 OA
HETATM   47  N5  UNL     1      31.594  29.873  18.648  1.00  0.00    -0.359 N 
ATOM     48  H5  UNL     1      31.083  29.305  17.972  1.00  0.00     0.162 HD
BRANCH  47  49
HETATM   49  C32 UNL     1      31.812  31.247  18.311  1.00  0.00     0.148 C 
BRANCH  49  50
HETATM   50  C33 UNL     1      32.800  31.396  17.185  1.00  0.00     0.186 C 
BRANCH  50  51
HETATM   51  O6  UNL     1      33.643  30.310  17.079  1.00  0.00    -0.394 OA
HETATM   52  C34 UNL     1      34.972  30.630  17.109  1.00  0.00     0.201 C 
ENDBRANCH  50  51
ENDBRANCH  49  50
ENDBRANCH  47  49
ENDBRANCH  19  45
ENDBRANCH  15  16
ENDBRANCH  14  15
ENDBRANCH   8  14
TORSDOF 18
ENDMDL
MODEL 2
REMARK VINA RESULT: -7.178934662      2.275      3.298
REMARK  18 active torsions:
REMARK  status: ('A' for Active; 'I' for Inactive)
REMARK    1  A    between atoms: C2_2  and  C3_3 
REMARK    2  A    between atoms: C10_10  and  C11_11 
REMARK    3  A    between atoms: C11_11  and  C12_12 
REMARK    4  A    between atoms: C12_12  and  C13_13 
REMARK    5  A    between atoms: C15_15  and  N1_16 
REMARK       I    between atoms: N1_16  and  C16_18 
REMARK       I    between atoms: C16_18  and  N2_20 
REMARK    6  A    between atoms: N2_20  and  C17_22 
REMARK    7  A    between atoms: C17_22  and  C18_23 
REMARK    8  A    between atoms: C17_22  and  C22_27 
REMARK    9  A    between atoms: C18_23  and  C19_24 
REMARK   10  A    between atoms: C22_27  and  C23_29 
REMARK       I    between atoms: C23_29  and  N3_31 
REMARK   11  A    between atoms: N3_31  and  C24_33 
REMARK   12  A    between atoms: C24_33  and  C25_34 
REMARK   13  A    between atoms: C24_33  and  C29_38 
REMARK   14  A    between atoms: C25_34  and  C26_35 
REMARK   15  A    between atoms: C30_41  and  C31_42 
REMARK       I    between atoms: C31_42  and  N5_44 
REMARK   16  A    between atoms: N5_44  and  C32_46 
REMARK   17  A    between atoms: C32_46  and  C33_47 
REMARK   18  A    between atoms: C33_47  and  O6_48 
ROOT
HETATM    1  C3  UNL     1      35.329  27.868  21.016  1.00  0.00    -0.011 C 
HETATM    2  C4  UNL     1      36.171  28.783  21.916  1.00  0.00     0.021 C 
HETATM    3  C5  UNL     1      36.188  27.239  19.952  1.00  0.00     0.015 C 
HETATM    4  C6  UNL     1      36.809  28.416  19.256  1.00  0.00     0.010 C 
HETATM    5  C7  UNL     1      35.718  29.081  18.371  1.00  0.00    -0.043 C 
HETATM    6  C8  UNL     1      36.434  30.295  17.812  1.00  0.00     0.015 C 
HETATM    7  C9  UNL     1      35.583  28.102  17.221  1.00  0.00     0.015 C 
HETATM    8  C10 UNL     1      34.464  29.301  19.081  1.00  0.00     0.012 C 
HETATM    9  C35 UNL     1      34.234  28.624  20.400  1.00  0.00     0.109 C 
HETATM   10  C36 UNL     1      33.074  27.700  20.287  1.00  0.00     0.065 C 
HETATM   11  N6  UNL     1      32.160  26.981  20.177  1.00  0.00    -0.197 NA
ENDROOT
BRANCH   1  12
HETATM   12  C2  UNL     1      34.828  26.773  21.913  1.00  0.00    -0.026 C 
HETATM   13  C1  UNL     1      35.208  26.733  23.202  1.00  0.00     0.008 C 
ENDBRANCH   1  12
BRANCH   8  14
HETATM   14  C11 UNL     1      33.936  30.692  19.238  1.00  0.00     0.007 C 
BRANCH  14  15
HETATM   15  C12 UNL     1      32.881  31.211  18.350  1.00  0.00     0.012 C 
BRANCH  15  16
HETATM   16  C13 UNL     1      31.537  30.605  18.638  1.00  0.00    -0.009 A 
HETATM   17  C14 UNL     1      31.040  30.779  20.098  1.00  0.00     0.018 C 
HETATM   18  C15 UNL     1      30.869  29.572  17.864  1.00  0.00     0.109 A 
HETATM   19  C30 UNL     1      30.414  30.961  17.609  1.00  0.00     0.111 A 
BRANCH  18  20
HETATM   20  N1  UNL     1      29.888  28.700  18.529  1.00  0.00    -0.337 N 
HETATM   21  C16 UNL     1      28.802  28.103  17.870  1.00  0.00     0.317 C 
HETATM   22  O1  UNL     1      28.640  28.301  16.644  1.00  0.00    -0.247 OA
HETATM   23  N2  UNL     1      27.866  27.268  18.534  1.00  0.00    -0.331 N 
ATOM     24  H2  UNL     1      27.968  27.110  19.536  1.00  0.00     0.165 HD
ATOM     25  H1  UNL     1      30.004  28.519  19.527  1.00  0.00     0.164 HD
BRANCH  23  26
HETATM   26  C17 UNL     1      26.761  26.631  17.826  1.00  0.00     0.166 C 
BRANCH  26  27
HETATM   27  C18 UNL     1      27.067  25.302  17.259  1.00  0.00     0.037 C 
BRANCH  27  28
HETATM   28  C19 UNL     1      27.627  24.309  18.296  1.00  0.00    -0.020 C 
HETATM   29  C20 UNL     1      26.636  23.258  18.667  1.00  0.00     0.009 C 
HETATM   30  C21 UNL     1      28.986  23.824  17.963  1.00  0.00     0.009 C 
ENDBRANCH  27  28
ENDBRANCH  26  27
BRANCH  26  31
HETATM   31  C22 UNL     1      25.513  26.745  18.606  1.00  0.00     0.238 C 
HETATM   32  O2  UNL     1      24.448  26.667  17.900  1.00  0.00    -0.285 OA
BRANCH  31  33
HETATM   33  C23 UNL     1      25.374  26.928  20.031  1.00  0.00     0.290 C 
HETATM   34  O3  UNL     1      25.699  26.063  20.842  1.00  0.00    -0.264 OA
HETATM   35  N3  UNL     1      24.833  28.167  20.553  1.00  0.00    -0.342 N 
ATOM     36  H3  UNL     1      24.555  28.895  19.895  1.00  0.00     0.163 HD
BRANCH  35  37
HETATM   37  C24 UNL     1      24.672  28.415  21.961  1.00  0.00     0.174 C 
BRANCH  37  38
HETATM   38  C25 UNL     1      25.167  29.751  22.392  1.00  0.00     0.038 C 
BRANCH  38  39
HETATM   39  C26 UNL     1      25.627  30.667  21.312  1.00  0.00    -0.020 C 
HETATM   40  C27 UNL     1      26.894  31.369  21.842  1.00  0.00     0.009 C 
HETATM   41  C28 UNL     1      24.665  31.813  21.024  1.00  0.00     0.009 C 
ENDBRANCH  38  39
ENDBRANCH  37  38
BRANCH  37  42
HETATM   42  C29 UNL     1      23.335  28.048  22.454  1.00  0.00     0.254 C 
HETATM   43  N4  UNL     1      22.185  28.513  21.777  1.00  0.00    -0.060 NA
HETATM   44  O4  UNL     1      23.195  27.330  23.467  1.00  0.00    -0.275 OA
ENDBRANCH  37  42
ENDBRANCH  35  37
ENDBRANCH  31  33
ENDBRANCH  26  31
ENDBRANCH  23  26
ENDBRANCH  18  20
BRANCH  19  45
HETATM   45  C31 UNL     1      30.772  31.633  16.348  1.00  0.00     0.224 C 
HETATM   46  O5  UNL     1      31.082  31.012  15.312  1.00  0.00    -0.273 OA
HETATM   47  N5  UNL     1      30.764  33.054  16.308  1.00  0.00    -0.359 N 
ATOM     48  H5  UNL     1      30.509  33.540  17.167  1.00  0.00     0.162 HD
BRANCH  47  49
HETATM   49  C32 UNL     1      31.081  33.865  15.171  1.00  0.00     0.148 C 
BRANCH  49  50
HETATM   50  C33 UNL     1      31.144  35.326  15.526  1.00  0.00     0.186 C 
BRANCH  50  51
HETATM   51  O6  UNL     1      29.897  35.914  15.555  1.00  0.00    -0.394 OA
HETATM   52  C34 UNL     1      29.173  35.743  14.407  1.00  0.00     0.201 C 
ENDBRANCH  50  51
ENDBRANCH  49  50
ENDBRANCH  47  49
ENDBRANCH  19  45
ENDBRANCH  15  16
ENDBRANCH  14  15
ENDBRANCH   8  14
TORSDOF 18
ENDMDL
MODEL 3
REMARK VINA RESULT: -7.154798651      5.840     11.965
REMARK  18 active torsions:
REMARK  status: ('A' for Active; 'I' for Inactive)
REMARK    1  A    between atoms: C2_2  and  C3_3 
REMARK    2  A    between atoms: C10_10  and  C11_11 
REMARK    3  A    between atoms: C11_11  and  C12_12 
REMARK    4  A    between atoms: C12_12  and  C13_13 
REMARK    5  A    between atoms: C15_15  and  N1_16 
REMARK       I    between atoms: N1_16  and  C16_18 
REMARK       I    between atoms: C16_18  and  N2_20 
REMARK    6  A    between atoms: N2_20  and  C17_22 
REMARK    7  A    between atoms: C17_22  and  C18_23 
REMARK    8  A    between atoms: C17_22  and  C22_27 
REMARK    9  A    between atoms: C18_23  and  C19_24 
REMARK   10  A    between atoms: C22_27  and  C23_29 
REMARK       I    between atoms: C23_29  and  N3_31 
REMARK   11  A    between atoms: N3_31  and  C24_33 
REMARK   12  A    between atoms: C24_33  and  C25_34 
REMARK   13  A    between atoms: C24_33  and  C29_38 
REMARK   14  A    between atoms: C25_34  and  C26_35 
REMARK   15  A    between atoms: C30_41  and  C31_42 
REMARK       I    between atoms: C31_42  and  N5_44 
REMARK   16  A    between atoms: N5_44  and  C32_46 
REMARK   17  A    between atoms: C32_46  and  C33_47 
REMARK   18  A    between atoms: C33_47  and  O6_48 
ROOT
HETATM    1  C3  UNL     1      32.756  29.745  19.975  1.00  0.00    -0.011 C 
HETATM    2  C4  UNL     1      31.799  29.855  21.170  1.00  0.00     0.021 C 
HETATM    3  C5  UNL     1      32.144  28.907  18.884  1.00  0.00     0.015 C 
HETATM    4  C6  UNL     1      31.831  27.607  19.568  1.00  0.00     0.010 C 
HETATM    5  C7  UNL     1      33.168  26.845  19.783  1.00  0.00    -0.043 C 
HETATM    6  C8  UNL     1      32.733  25.617  20.559  1.00  0.00     0.015 C 
HETATM    7  C9  UNL     1      33.503  26.363  18.384  1.00  0.00     0.015 C 
HETATM    8  C10 UNL     1      34.214  27.678  20.363  1.00  0.00     0.012 C 
HETATM    9  C35 UNL     1      34.036  29.168  20.397  1.00  0.00     0.109 C 
HETATM   10  C36 UNL     1      35.097  29.812  19.578  1.00  0.00     0.065 C 
HETATM   11  N6  UNL     1      35.940  30.297  18.930  1.00  0.00    -0.197 NA
ENDROOT
BRANCH   1  12
HETATM   12  C2  UNL     1      32.909  31.144  19.453  1.00  0.00    -0.026 C 
HETATM   13  C1  UNL     1      31.821  31.858  19.116  1.00  0.00     0.008 C 
ENDBRANCH   1  12
BRANCH   8  14
HETATM   14  C11 UNL     1      34.808  27.307  21.685  1.00  0.00     0.007 C 
BRANCH  14  15
HETATM   15  C12 UNL     1      36.035  26.494  21.767  1.00  0.00     0.012 C 
BRANCH  15  16
HETATM   16  C13 UNL     1      37.041  26.863  20.715  1.00  0.00    -0.009 A 
HETATM   17  C14 UNL     1      37.970  28.049  21.085  1.00  0.00     0.018 C 
HETATM   18  C15 UNL     1      36.978  26.529  19.301  1.00  0.00     0.109 A 
HETATM   19  C30 UNL     1      37.856  25.665  20.128  1.00  0.00     0.111 A 
BRANCH  18  20
HETATM   20  N1  UNL     1      37.673  27.390  18.331  1.00  0.00    -0.337 N 
HETATM   21  C16 UNL     1      37.193  27.653  17.039  1.00  0.00     0.317 C 
HETATM   22  O1  UNL     1      36.109  27.146  16.668  1.00  0.00    -0.247 OA
HETATM   23  N2  UNL     1      37.883  28.483  16.118  1.00  0.00    -0.331 N 
ATOM     24  H2  UNL     1      38.777  28.890  16.392  1.00  0.00     0.165 HD
ATOM     25  H1  UNL     1      38.555  27.818  18.613  1.00  0.00     0.164 HD
BRANCH  23  26
HETATM   26  C17 UNL     1      37.352  28.772  14.790  1.00  0.00     0.166 C 
BRANCH  26  27
HETATM   27  C18 UNL     1      37.152  30.205  14.495  1.00  0.00     0.037 C 
BRANCH  27  28
HETATM   28  C19 UNL     1      35.668  30.604  14.380  1.00  0.00    -0.020 C 
HETATM   29  C20 UNL     1      34.756  29.430  14.484  1.00  0.00     0.009 C 
HETATM   30  C21 UNL     1      35.314  31.771  15.220  1.00  0.00     0.009 C 
ENDBRANCH  27  28
ENDBRANCH  26  27
BRANCH  26  31
HETATM   31  C22 UNL     1      38.061  27.979  13.766  1.00  0.00     0.238 C 
HETATM   32  O2  UNL     1      37.467  26.893  13.443  1.00  0.00    -0.285 OA
BRANCH  31  33
HETATM   33  C23 UNL     1      39.312  28.292  13.116  1.00  0.00     0.290 C 
HETATM   34  O3  UNL     1      40.167  29.004  13.638  1.00  0.00    -0.264 OA
HETATM   35  N3  UNL     1      39.595  27.762  11.797  1.00  0.00    -0.342 N 
ATOM     36  H3  UNL     1      38.895  27.173  11.346  1.00  0.00     0.163 HD
BRANCH  35  37
HETATM   37  C24 UNL     1      40.821  28.032  11.095  1.00  0.00     0.174 C 
BRANCH  37  38
HETATM   38  C25 UNL     1      41.396  26.838  10.417  1.00  0.00     0.038 C 
BRANCH  38  39
HETATM   39  C26 UNL     1      41.183  25.528  11.091  1.00  0.00    -0.020 C 
HETATM   40  C27 UNL     1      42.546  24.807  11.088  1.00  0.00     0.009 C 
HETATM   41  C28 UNL     1      40.265  24.583  10.324  1.00  0.00     0.009 C 
ENDBRANCH  38  39
ENDBRANCH  37  38
BRANCH  37  42
HETATM   42  C29 UNL     1      40.750  29.251  10.274  1.00  0.00     0.254 C 
HETATM   43  N4  UNL     1      41.338  30.448  10.743  1.00  0.00    -0.060 NA
HETATM   44  O4  UNL     1      40.177  29.250   9.163  1.00  0.00    -0.275 OA
ENDBRANCH  37  42
ENDBRANCH  35  37
ENDBRANCH  31  33
ENDBRANCH  26  31
ENDBRANCH  23  26
ENDBRANCH  18  20
BRANCH  19  45
HETATM   45  C31 UNL     1      37.446  24.284  20.441  1.00  0.00     0.224 C 
HETATM   46  O5  UNL     1      37.842  23.671  21.450  1.00  0.00    -0.273 OA
HETATM   47  N5  UNL     1      36.558  23.620  19.551  1.00  0.00    -0.359 N 
ATOM     48  H5  UNL     1      36.248  24.141  18.730  1.00  0.00     0.162 HD
BRANCH  47  49
HETATM   49  C32 UNL     1      36.059  22.286  19.702  1.00  0.00     0.148 C 
BRANCH  49  50
HETATM   50  C33 UNL     1      34.621  22.274  20.146  1.00  0.00     0.186 C 
BRANCH  50  51
HETATM   51  O6  UNL     1      34.492  22.055  21.501  1.00  0.00    -0.394 OA
HETATM   52  C34 UNL     1      35.155  20.948  21.953  1.00  0.00     0.201 C 
ENDBRANCH  50  51
ENDBRANCH  49  50
ENDBRANCH  47  49
ENDBRANCH  19  45
ENDBRANCH  15  16
ENDBRANCH  14  15
ENDBRANCH   8  14
TORSDOF 18
ENDMDL
MODEL 4
REMARK VINA RESULT: -7.154491644      1.628      2.825
REMARK  18 active torsions:
REMARK  status: ('A' for Active; 'I' for Inactive)
REMARK    1  A    between atoms: C2_2  and  C3_3 
REMARK    2  A    between atoms: C10_10  and  C11_11 
REMARK    3  A    between atoms: C11_11  and  C12_12 
REMARK    4  A    between atoms: C12_12  and  C13_13 
REMARK    5  A    between atoms: C15_15  and  N1_16 
REMARK       I    between atoms: N1_16  and  C16_18 
REMARK       I    between atoms: C16_18  and  N2_20 
REMARK    6  A    between atoms: N2_20  and  C17_22 
REMARK    7  A    between atoms: C17_22  and  C18_23 
REMARK    8  A    between atoms: C17_22  and  C22_27 
REMARK    9  A    between atoms: C18_23  and  C19_24 
REMARK   10  A    between atoms: C22_27  and  C23_29 
REMARK       I    between atoms: C23_29  and  N3_31 
REMARK   11  A    between atoms: N3_31  and  C24_33 
REMARK   12  A    between atoms: C24_33  and  C25_34 
REMARK   13  A    between atoms: C24_33  and  C29_38 
REMARK   14  A    between atoms: C25_34  and  C26_35 
REMARK   15  A    between atoms: C30_41  and  C31_42 
REMARK       I    between atoms: C31_42  and  N5_44 
REMARK   16  A    between atoms: N5_44  and  C32_46 
REMARK   17  A    between atoms: C32_46  and  C33_47 
REMARK   18  A    between atoms: C33_47  and  O6_48 
ROOT
HETATM    1  C3  UNL     1      35.619  25.301  20.702  1.00  0.00    -0.011 C 
HETATM    2  C4  UNL     1      34.152  24.933  20.968  1.00  0.00     0.021 C 
HETATM    3  C5  UNL     1      36.344  25.550  21.998  1.00  0.00     0.015 C 
HETATM    4  C6  UNL     1      35.530  26.624  22.660  1.00  0.00     0.010 C 
HETATM    5  C7  UNL     1      35.815  27.963  21.924  1.00  0.00    -0.043 C 
HETATM    6  C8  UNL     1      34.871  28.931  22.612  1.00  0.00     0.015 C 
HETATM    7  C9  UNL     1      37.208  28.316  22.408  1.00  0.00     0.015 C 
HETATM    8  C10 UNL     1      35.728  27.848  20.474  1.00  0.00     0.012 C 
HETATM    9  C35 UNL     1      35.700  26.486  19.843  1.00  0.00     0.109 C 
HETATM   10  C36 UNL     1      36.898  26.317  18.978  1.00  0.00     0.065 C 
HETATM   11  N6  UNL     1      37.845  26.206  18.303  1.00  0.00    -0.197 NA
ENDROOT
BRANCH   1  12
HETATM   12  C2  UNL     1      36.227  24.089  20.058  1.00  0.00    -0.026 C 
HETATM   13  C1  UNL     1      36.623  23.052  20.816  1.00  0.00     0.008 C 
ENDBRANCH   1  12
BRANCH   8  14
HETATM   14  C11 UNL     1      34.725  28.666  19.724  1.00  0.00     0.007 C 
BRANCH  14  15
HETATM   15  C12 UNL     1      33.928  28.081  18.631  1.00  0.00     0.012 C 
BRANCH  15  16
HETATM   16  C13 UNL     1      32.504  27.823  19.031  1.00  0.00    -0.009 A 
HETATM   17  C14 UNL     1      32.190  28.071  20.530  1.00  0.00     0.018 C 
HETATM   18  C15 UNL     1      31.535  27.014  18.309  1.00  0.00     0.109 A 
HETATM   19  C30 UNL     1      31.426  28.479  18.108  1.00  0.00     0.111 A 
BRANCH  18  20
HETATM   20  N1  UNL     1      30.425  26.395  19.051  1.00  0.00    -0.337 N 
HETATM   21  C16 UNL     1      29.223  25.984  18.455  1.00  0.00     0.317 C 
HETATM   22  O1  UNL     1      29.063  26.135  17.222  1.00  0.00    -0.247 OA
HETATM   23  N2  UNL     1      28.163  25.394  19.192  1.00  0.00    -0.331 N 
ATOM     24  H2  UNL     1      28.265  25.281  20.200  1.00  0.00     0.165 HD
ATOM     25  H1  UNL     1      30.536  26.258  20.056  1.00  0.00     0.164 HD
BRANCH  23  26
HETATM   26  C17 UNL     1      26.933  24.944  18.549  1.00  0.00     0.166 C 
BRANCH  26  27
HETATM   27  C18 UNL     1      26.712  23.484  18.578  1.00  0.00     0.037 C 
BRANCH  27  28
HETATM   28  C19 UNL     1      27.951  22.669  18.159  1.00  0.00    -0.020 C 
HETATM   29  C20 UNL     1      27.985  21.321  18.795  1.00  0.00     0.009 C 
HETATM   30  C21 UNL     1      28.200  22.700  16.700  1.00  0.00     0.009 C 
ENDBRANCH  27  28
ENDBRANCH  26  27
BRANCH  26  31
HETATM   31  C22 UNL     1      25.797  25.793  18.958  1.00  0.00     0.238 C 
HETATM   32  O2  UNL     1      24.931  25.985  18.036  1.00  0.00    -0.285 OA
BRANCH  31  33
HETATM   33  C23 UNL     1      25.569  26.406  20.245  1.00  0.00     0.290 C 
HETATM   34  O3  UNL     1      25.749  25.805  21.303  1.00  0.00    -0.264 OA
HETATM   35  N3  UNL     1      25.107  27.777  20.324  1.00  0.00    -0.342 N 
ATOM     36  H3  UNL     1      24.948  28.289  19.456  1.00  0.00     0.163 HD
BRANCH  35  37
HETATM   37  C24 UNL     1      24.864  28.447  21.572  1.00  0.00     0.174 C 
BRANCH  37  38
HETATM   38  C25 UNL     1      25.227  29.891  21.555  1.00  0.00     0.038 C 
BRANCH  38  39
HETATM   39  C26 UNL     1      26.192  30.319  20.506  1.00  0.00    -0.020 C 
HETATM   40  C27 UNL     1      27.361  31.007  21.239  1.00  0.00     0.009 C 
HETATM   41  C28 UNL     1      25.652  31.400  19.576  1.00  0.00     0.009 C 
ENDBRANCH  38  39
ENDBRANCH  37  38
BRANCH  37  42
HETATM   42  C29 UNL     1      23.541  28.137  22.138  1.00  0.00     0.254 C 
HETATM   43  N4  UNL     1      23.448  27.399  23.340  1.00  0.00    -0.060 NA
HETATM   44  O4  UNL     1      22.492  28.512  21.572  1.00  0.00    -0.275 OA
ENDBRANCH  37  42
ENDBRANCH  35  37
ENDBRANCH  31  33
ENDBRANCH  26  31
ENDBRANCH  23  26
ENDBRANCH  18  20
BRANCH  19  45
HETATM   45  C31 UNL     1      31.836  29.078  16.825  1.00  0.00     0.224 C 
HETATM   46  O5  UNL     1      31.909  28.428  15.765  1.00  0.00    -0.273 OA
HETATM   47  N5  UNL     1      32.163  30.462  16.794  1.00  0.00    -0.359 N 
ATOM     48  H5  UNL     1      32.097  30.973  17.674  1.00  0.00     0.162 HD
BRANCH  47  49
HETATM   49  C32 UNL     1      32.576  31.202  15.640  1.00  0.00     0.148 C 
BRANCH  49  50
HETATM   50  C33 UNL     1      34.073  31.349  15.577  1.00  0.00     0.186 C 
BRANCH  50  51
HETATM   51  O6  UNL     1      34.685  31.011  16.765  1.00  0.00    -0.394 OA
HETATM   52  C34 UNL     1      35.980  30.595  16.628  1.00  0.00     0.201 C 
ENDBRANCH  50  51
ENDBRANCH  49  50
ENDBRANCH  47  49
ENDBRANCH  19  45
ENDBRANCH  15  16
ENDBRANCH  14  15
ENDBRANCH   8  14
TORSDOF 18
ENDMDL
MODEL 5
REMARK VINA RESULT: -7.080839984      3.172     12.065
REMARK  18 active torsions:
REMARK  status: ('A' for Active; 'I' for Inactive)
REMARK    1  A    between atoms: C2_2  and  C3_3 
REMARK    2  A    between atoms: C10_10  and  C11_11 
REMARK    3  A    between atoms: C11_11  and  C12_12 
REMARK    4  A    between atoms: C12_12  and  C13_13 
REMARK    5  A    between atoms: C15_15  and  N1_16 
REMARK       I    between atoms: N1_16  and  C16_18 
REMARK       I    between atoms: C16_18  and  N2_20 
REMARK    6  A    between atoms: N2_20  and  C17_22 
REMARK    7  A    between atoms: C17_22  and  C18_23 
REMARK    8  A    between atoms: C17_22  and  C22_27 
REMARK    9  A    between atoms: C18_23  and  C19_24 
REMARK   10  A    between atoms: C22_27  and  C23_29 
REMARK       I    between atoms: C23_29  and  N3_31 
REMARK   11  A    between atoms: N3_31  and  C24_33 
REMARK   12  A    between atoms: C24_33  and  C25_34 
REMARK   13  A    between atoms: C24_33  and  C29_38 
REMARK   14  A    between atoms: C25_34  and  C26_35 
REMARK   15  A    between atoms: C30_41  and  C31_42 
REMARK       I    between atoms: C31_42  and  N5_44 
REMARK   16  A    between atoms: N5_44  and  C32_46 
REMARK   17  A    between atoms: C32_46  and  C33_47 
REMARK   18  A    between atoms: C33_47  and  O6_48 
ROOT
HETATM    1  C3  UNL     1      20.922  29.910  22.447  1.00  0.00    -0.011 C 
HETATM    2  C4  UNL     1      20.639  30.070  20.947  1.00  0.00     0.021 C 
HETATM    3  C5  UNL     1      19.899  30.659  23.260  1.00  0.00     0.015 C 
HETATM    4  C6  UNL     1      19.995  32.065  22.742  1.00  0.00     0.010 C 
HETATM    5  C7  UNL     1      21.303  32.693  23.300  1.00  0.00    -0.043 C 
HETATM    6  C8  UNL     1      21.332  34.054  22.633  1.00  0.00     0.015 C 
HETATM    7  C9  UNL     1      20.956  32.943  24.755  1.00  0.00     0.015 C 
HETATM    8  C10 UNL     1      22.467  31.831  23.132  1.00  0.00     0.012 C 
HETATM    9  C35 UNL     1      22.270  30.389  22.767  1.00  0.00     0.109 C 
HETATM   10  C36 UNL     1      22.794  29.526  23.858  1.00  0.00     0.065 C 
HETATM   11  N6  UNL     1      23.213  28.866  24.727  1.00  0.00    -0.197 NA
ENDROOT
BRANCH   1  12
HETATM   12  C2  UNL     1      20.758  28.445  22.733  1.00  0.00    -0.026 C 
HETATM   13  C1  UNL     1      19.830  27.731  22.072  1.00  0.00     0.008 C 
ENDBRANCH   1  12
BRANCH   8  14
HETATM   14  C11 UNL     1      23.628  32.306  22.317  1.00  0.00     0.007 C 
BRANCH  14  15
HETATM   15  C12 UNL     1      24.166  31.492  21.213  1.00  0.00     0.012 C 
BRANCH  15  16
HETATM   16  C13 UNL     1      25.550  30.981  21.495  1.00  0.00    -0.009 A 
HETATM   17  C14 UNL     1      26.020  31.143  22.964  1.00  0.00     0.018 C 
HETATM   18  C15 UNL     1      26.601  30.746  20.518  1.00  0.00     0.109 A 
HETATM   19  C30 UNL     1      25.849  29.544  20.956  1.00  0.00     0.111 A 
BRANCH  18  20
HETATM   20  N1  UNL     1      28.006  30.803  20.952  1.00  0.00    -0.337 N 
HETATM   21  C16 UNL     1      29.091  30.470  20.125  1.00  0.00     0.317 C 
HETATM   22  O1  UNL     1      28.879  30.108  18.945  1.00  0.00    -0.247 OA
HETATM   23  N2  UNL     1      30.438  30.528  20.567  1.00  0.00    -0.331 N 
ATOM     24  H2  UNL     1      30.632  30.801  21.530  1.00  0.00     0.165 HD
ATOM     25  H1  UNL     1      28.203  31.100  21.907  1.00  0.00     0.164 HD
BRANCH  23  26
HETATM   26  C17 UNL     1      31.555  30.209  19.683  1.00  0.00     0.166 C 
BRANCH  26  27
HETATM   27  C18 UNL     1      32.471  31.333  19.404  1.00  0.00     0.037 C 
BRANCH  27  28
HETATM   28  C19 UNL     1      32.706  31.571  17.900  1.00  0.00    -0.020 C 
HETATM   29  C20 UNL     1      33.854  30.777  17.374  1.00  0.00     0.009 C 
HETATM   30  C21 UNL     1      31.462  31.511  17.100  1.00  0.00     0.009 C 
ENDBRANCH  27  28
ENDBRANCH  26  27
BRANCH  26  31
HETATM   31  C22 UNL     1      32.179  28.931  20.080  1.00  0.00     0.238 C 
HETATM   32  O2  UNL     1      31.941  27.963  19.278  1.00  0.00    -0.285 OA
BRANCH  31  33
HETATM   33  C23 UNL     1      33.000  28.670  21.238  1.00  0.00     0.290 C 
HETATM   34  O3  UNL     1      32.634  28.940  22.380  1.00  0.00    -0.264 OA
HETATM   35  N3  UNL     1      34.310  28.071  21.077  1.00  0.00    -0.342 N 
ATOM     36  H3  UNL     1      34.632  27.844  20.136  1.00  0.00     0.163 HD
BRANCH  35  37
HETATM   37  C24 UNL     1      35.177  27.783  22.188  1.00  0.00     0.174 C 
BRANCH  37  38
HETATM   38  C25 UNL     1      35.817  26.441  22.113  1.00  0.00     0.038 C 
BRANCH  38  39
HETATM   39  C26 UNL     1      36.067  25.902  20.748  1.00  0.00    -0.020 C 
HETATM   40  C27 UNL     1      36.237  24.377  20.902  1.00  0.00     0.009 C 
HETATM   41  C28 UNL     1      37.387  26.360  20.138  1.00  0.00     0.009 C 
ENDBRANCH  38  39
ENDBRANCH  37  38
BRANCH  37  42
HETATM   42  C29 UNL     1      36.084  28.897  22.508  1.00  0.00     0.254 C 
HETATM   43  N4  UNL     1      37.343  28.630  23.092  1.00  0.00    -0.060 NA
HETATM   44  O4  UNL     1      35.760  30.080  22.274  1.00  0.00    -0.275 OA
ENDBRANCH  37  42
ENDBRANCH  35  37
ENDBRANCH  31  33
ENDBRANCH  26  31
ENDBRANCH  23  26
ENDBRANCH  18  20
BRANCH  19  45
HETATM   45  C31 UNL     1      24.894  28.899  20.038  1.00  0.00     0.224 C 
HETATM   46  O5  UNL     1      23.992  28.132  20.427  1.00  0.00    -0.273 OA
HETATM   47  N5  UNL     1      25.007  29.160  18.645  1.00  0.00    -0.359 N 
ATOM     48  H5  UNL     1      25.753  29.789  18.350  1.00  0.00     0.162 HD
BRANCH  47  49
HETATM   49  C32 UNL     1      24.166  28.622  17.618  1.00  0.00     0.148 C 
BRANCH  49  50
HETATM   50  C33 UNL     1      23.010  29.534  17.306  1.00  0.00     0.186 C 
BRANCH  50  51
HETATM   51  O6  UNL     1      22.742  29.598  15.956  1.00  0.00    -0.394 OA
HETATM   52  C34 UNL     1      22.261  28.433  15.426  1.00  0.00     0.201 C 
ENDBRANCH  50  51
ENDBRANCH  49  50
ENDBRANCH  47  49
ENDBRANCH  19  45
ENDBRANCH  15  16
ENDBRANCH  14  15
ENDBRANCH   8  14
TORSDOF 18
ENDMDL
