MODEL 1
REMARK VINA RESULT: -6.618427541      0.000      0.000
REMARK  24 active torsions:
REMARK  status: ('A' for Active; 'I' for Inactive)
REMARK    1  A    between atoms: C2_2  and  C3_3 
REMARK    2  A    between atoms: C3_3  and  N1_4 
REMARK    3  A    between atoms: C3_3  and  C9_16 
REMARK       I    between atoms: N1_4  and  C4_6 
REMARK    4  A    between atoms: C4_6  and  C5_8 
REMARK    5  A    between atoms: C5_8  and  N2_9 
REMARK    6  A    between atoms: C5_8  and  C6_13 
REMARK       I    between atoms: C9_16  and  N3_18 
REMARK    7  A    between atoms: N3_18  and  C10_20 
REMARK    8  A    between atoms: C10_20  and  C11_21 
REMARK    9  A    between atoms: C10_20  and  C18_28 
REMARK   10  A    between atoms: C11_21  and  C12_22 
REMARK   11  A    between atoms: C18_28  and  O3_29 
REMARK   12  A    between atoms: C18_28  and  N4_31 
REMARK   13  A    between atoms: N4_31  and  C19_33 
REMARK   14  A    between atoms: C19_33  and  C20_34 
REMARK   15  A    between atoms: C19_33  and  C34_56 
REMARK       I    between atoms: C20_34  and  N5_36 
REMARK   16  A    between atoms: N5_36  and  C21_38 
REMARK   17  A    between atoms: C21_38  and  C22_39 
REMARK   18  A    between atoms: C21_38  and  C31_53 
REMARK   19  A    between atoms: C22_39  and  O5_40 
REMARK   20  A    between atoms: C22_39  and  N6_42 
REMARK   21  A    between atoms: N6_42  and  C23_44 
REMARK   22  A    between atoms: C23_44  and  C24_45 
REMARK   23  A    between atoms: C23_44  and  C26_47 
REMARK   24  A    between atoms: C26_47  and  C27_49 
ROOT
HETATM    1  C18 UNL     1      32.825  26.390  20.165  1.00  0.00     0.135 C 
ENDROOT
BRANCH   1   2
HETATM    2  C10 UNL     1      31.576  26.643  19.449  1.00  0.00     0.159 C 
BRANCH   2   3
HETATM    3  N3  UNL     1      31.251  25.395  18.704  1.00  0.00    -0.347 N 
HETATM    4  C9  UNL     1      29.941  24.885  18.602  1.00  0.00     0.241 C 
HETATM    5  O2  UNL     1      29.025  25.529  19.171  1.00  0.00    -0.271 OA
ATOM      6  H3  UNL     1      32.008  24.887  18.247  1.00  0.00     0.163 HD
BRANCH   4   7
HETATM    7  C3  UNL     1      29.611  23.656  17.869  1.00  0.00     0.176 C 
BRANCH   7   8
HETATM    8  C2  UNL     1      29.457  23.969  16.381  1.00  0.00     0.030 C 
HETATM    9  C1  UNL     1      30.477  23.262  15.544  1.00  0.00     0.007 C 
ENDBRANCH   7   8
BRANCH   7  10
HETATM   10  N1  UNL     1      28.436  23.035  18.416  1.00  0.00    -0.346 N 
HETATM   11  C4  UNL     1      28.209  21.636  18.486  1.00  0.00     0.249 C 
HETATM   12  O1  UNL     1      29.068  20.813  18.061  1.00  0.00    -0.271 OA
ATOM     13  H1  UNL     1      27.708  23.648  18.783  1.00  0.00     0.163 HD
BRANCH  11  14
HETATM   14  C5  UNL     1      26.957  21.095  19.056  1.00  0.00     0.278 C 
BRANCH  14  15
HETATM   15  N2  UNL     1      27.215  19.761  19.595  1.00  0.00    -0.066 N 
ATOM     16  H23 UNL     1      28.185  19.640  19.885  1.00  0.00     0.275 HD
ATOM     17  H22 UNL     1      26.776  19.618  20.505  1.00  0.00     0.275 HD
ATOM     18  H21 UNL     1      26.925  19.063  18.911  1.00  0.00     0.275 HD
ENDBRANCH  14  15
BRANCH  14  19
HETATM   19  C6  UNL     1      25.793  21.098  18.110  1.00  0.00     0.017 C 
HETATM   20  C7  UNL     1      24.769  22.087  18.637  1.00  0.00     0.012 C 
HETATM   21  C8  UNL     1      25.136  19.743  17.989  1.00  0.00     0.012 C 
ENDBRANCH  14  19
ENDBRANCH  11  14
ENDBRANCH   7  10
ENDBRANCH   4   7
ENDBRANCH   2   3
BRANCH   2  22
HETATM   22  C11 UNL     1      31.488  27.753  18.488  1.00  0.00     0.038 C 
BRANCH  22  23
HETATM   23  C12 UNL     1      31.902  29.111  18.923  1.00  0.00    -0.012 C 
HETATM   24  C13 UNL     1      31.608  30.067  17.749  1.00  0.00     0.005 C 
HETATM   25  C14 UNL     1      32.405  31.326  18.016  1.00  0.00     0.000 C 
HETATM   26  C15 UNL     1      32.585  31.505  19.493  1.00  0.00     0.000 C 
HETATM   27  C16 UNL     1      31.404  31.056  20.318  1.00  0.00     0.000 C 
HETATM   28  C17 UNL     1      31.039  29.611  20.083  1.00  0.00     0.005 C 
ENDBRANCH  22  23
ENDBRANCH   2  22
ENDBRANCH   1   2
BRANCH   1  29
HETATM   29  O3  UNL     1      32.907  25.165  20.613  1.00  0.00    -0.348 OA
ATOM     30  H3  UNL     1      33.712  25.005  21.092  1.00  0.00     0.219 HD
ENDBRANCH   1  29
BRANCH   1  31
HETATM   31  N4  UNL     1      33.919  27.181  20.448  1.00  0.00    -0.359 N 
ATOM     32  H4  UNL     1      34.257  27.802  19.712  1.00  0.00     0.162 HD
BRANCH  31  33
HETATM   33  C19 UNL     1      34.632  27.193  21.730  1.00  0.00     0.179 C 
BRANCH  33  34
HETATM   34  C20 UNL     1      35.938  26.504  21.606  1.00  0.00     0.241 C 
HETATM   35  O4  UNL     1      36.920  26.735  22.396  1.00  0.00    -0.271 OA
HETATM   36  N5  UNL     1      36.146  25.554  20.593  1.00  0.00    -0.347 N 
ATOM     37  H5  UNL     1      35.373  25.335  19.964  1.00  0.00     0.163 HD
BRANCH  36  38
HETATM   38  C21 UNL     1      37.432  24.862  20.400  1.00  0.00     0.162 C 
BRANCH  38  39
HETATM   39  C22 UNL     1      37.383  23.516  20.936  1.00  0.00     0.135 C 
BRANCH  39  40
HETATM   40  O5  UNL     1      37.930  23.321  22.116  1.00  0.00    -0.348 OA
ATOM     41  H5  UNL     1      38.850  23.086  22.133  1.00  0.00     0.219 HD
ENDBRANCH  39  40
BRANCH  39  42
HETATM   42  N6  UNL     1      36.832  22.364  20.388  1.00  0.00    -0.361 N 
ATOM     43  H6  UNL     1      37.429  21.542  20.289  1.00  0.00     0.162 HD
BRANCH  42  44
HETATM   44  C23 UNL     1      35.437  22.267  19.943  1.00  0.00     0.153 C 
BRANCH  44  45
HETATM   45  C24 UNL     1      34.521  21.712  20.972  1.00  0.00     0.028 C 
HETATM   46  C25 UNL     1      34.831  20.235  21.242  1.00  0.00     0.007 C 
ENDBRANCH  44  45
BRANCH  44  47
HETATM   47  C26 UNL     1      35.342  21.648  18.596  1.00  0.00     0.157 C 
HETATM   48  O6  UNL     1      36.309  20.987  18.218  1.00  0.00    -0.295 OA
BRANCH  47  49
HETATM   49  C27 UNL     1      34.167  21.785  17.726  1.00  0.00     0.012 C 
HETATM   50  C28 UNL     1      33.552  23.186  17.773  1.00  0.00     0.022 C 
HETATM   51  C29 UNL     1      34.637  21.661  16.255  1.00  0.00     0.022 C 
HETATM   52  C30 UNL     1      33.111  20.746  17.883  1.00  0.00     0.022 C 
ENDBRANCH  47  49
ENDBRANCH  44  47
ENDBRANCH  42  44
ENDBRANCH  39  42
ENDBRANCH  38  39
BRANCH  38  53
HETATM   53  C31 UNL     1      37.860  25.083  19.030  1.00  0.00     0.008 C 
HETATM   54  C32 UNL     1      38.835  26.198  18.763  1.00  0.00     0.012 C 
HETATM   55  C33 UNL     1      36.657  25.251  18.064  1.00  0.00     0.012 C 
ENDBRANCH  38  53
ENDBRANCH  36  38
ENDBRANCH  33  34
BRANCH  33  56
HETATM   56  C34 UNL     1      34.787  28.543  22.299  1.00  0.00     0.009 C 
HETATM   57  C35 UNL     1      35.258  29.577  21.287  1.00  0.00     0.012 C 
HETATM   58  C36 UNL     1      33.511  29.043  22.984  1.00  0.00     0.012 C 
ENDBRANCH  33  56
ENDBRANCH  31  33
ENDBRANCH   1  31
TORSDOF 24
ENDMDL
MODEL 2
REMARK VINA RESULT: -6.495547012      3.677      7.206
REMARK  24 active torsions:
REMARK  status: ('A' for Active; 'I' for Inactive)
REMARK    1  A    between atoms: C2_2  and  C3_3 
REMARK    2  A    between atoms: C3_3  and  N1_4 
REMARK    3  A    between atoms: C3_3  and  C9_16 
REMARK       I    between atoms: N1_4  and  C4_6 
REMARK    4  A    between atoms: C4_6  and  C5_8 
REMARK    5  A    between atoms: C5_8  and  N2_9 
REMARK    6  A    between atoms: C5_8  and  C6_13 
REMARK       I    between atoms: C9_16  and  N3_18 
REMARK    7  A    between atoms: N3_18  and  C10_20 
REMARK    8  A    between atoms: C10_20  and  C11_21 
REMARK    9  A    between atoms: C10_20  and  C18_28 
REMARK   10  A    between atoms: C11_21  and  C12_22 
REMARK   11  A    between atoms: C18_28  and  O3_29 
REMARK   12  A    between atoms: C18_28  and  N4_31 
REMARK   13  A    between atoms: N4_31  and  C19_33 
REMARK   14  A    between atoms: C19_33  and  C20_34 
REMARK   15  A    between atoms: C19_33  and  C34_56 
REMARK       I    between atoms: C20_34  and  N5_36 
REMARK   16  A    between atoms: N5_36  and  C21_38 
REMARK   17  A    between atoms: C21_38  and  C22_39 
REMARK   18  A    between atoms: C21_38  and  C31_53 
REMARK   19  A    between atoms: C22_39  and  O5_40 
REMARK   20  A    between atoms: C22_39  and  N6_42 
REMARK   21  A    between atoms: N6_42  and  C23_44 
REMARK   22  A    between atoms: C23_44  and  C24_45 
REMARK   23  A    between atoms: C23_44  and  C26_47 
REMARK   24  A    between atoms: C26_47  and  C27_49 
ROOT
HETATM    1  C18 UNL     1      36.076  28.237  19.268  1.00  0.00     0.135 C 
ENDROOT
BRANCH   1   2
HETATM    2  C10 UNL     1      35.414  29.481  18.880  1.00  0.00     0.159 C 
BRANCH   2   3
HETATM    3  N3  UNL     1      36.335  30.180  17.941  1.00  0.00    -0.347 N 
HETATM    4  C9  UNL     1      36.133  30.200  16.547  1.00  0.00     0.241 C 
HETATM    5  O2  UNL     1      35.125  29.598  16.100  1.00  0.00    -0.271 OA
ATOM      6  H3  UNL     1      37.147  30.664  18.323  1.00  0.00     0.163 HD
BRANCH   4   7
HETATM    7  C3  UNL     1      37.035  30.887  15.613  1.00  0.00     0.176 C 
BRANCH   7   8
HETATM    8  C2  UNL     1      36.504  32.289  15.320  1.00  0.00     0.030 C 
HETATM    9  C1  UNL     1      37.581  33.327  15.371  1.00  0.00     0.007 C 
ENDBRANCH   7   8
BRANCH   7  10
HETATM   10  N1  UNL     1      37.215  30.114  14.415  1.00  0.00    -0.346 N 
HETATM   11  C4  UNL     1      37.995  28.933  14.314  1.00  0.00     0.249 C 
HETATM   12  O1  UNL     1      38.599  28.461  15.318  1.00  0.00    -0.271 OA
ATOM     13  H1  UNL     1      36.746  30.441  13.570  1.00  0.00     0.163 HD
BRANCH  11  14
HETATM   14  C5  UNL     1      38.130  28.217  13.027  1.00  0.00     0.278 C 
BRANCH  14  15
HETATM   15  N2  UNL     1      37.618  29.064  11.952  1.00  0.00    -0.066 N 
ATOM     16  H23 UNL     1      37.314  28.524  11.143  1.00  0.00     0.275 HD
ATOM     17  H22 UNL     1      36.720  29.488  12.186  1.00  0.00     0.275 HD
ATOM     18  H21 UNL     1      38.324  29.760  11.712  1.00  0.00     0.275 HD
ENDBRANCH  14  15
BRANCH  14  19
HETATM   19  C6  UNL     1      37.504  26.854  13.008  1.00  0.00     0.017 C 
HETATM   20  C7  UNL     1      38.229  26.024  11.965  1.00  0.00     0.012 C 
HETATM   21  C8  UNL     1      36.035  26.892  12.659  1.00  0.00     0.012 C 
ENDBRANCH  14  19
ENDBRANCH  11  14
ENDBRANCH   7  10
ENDBRANCH   4   7
ENDBRANCH   2   3
BRANCH   2  22
HETATM   22  C11 UNL     1      35.022  30.459  19.906  1.00  0.00     0.038 C 
BRANCH  22  23
HETATM   23  C12 UNL     1      33.578  30.725  20.128  1.00  0.00    -0.012 C 
HETATM   24  C13 UNL     1      32.977  31.102  18.759  1.00  0.00     0.005 C 
HETATM   25  C14 UNL     1      31.651  31.775  19.047  1.00  0.00     0.000 C 
HETATM   26  C15 UNL     1      31.085  31.244  20.330  1.00  0.00     0.000 C 
HETATM   27  C16 UNL     1      31.366  29.781  20.570  1.00  0.00     0.000 C 
HETATM   28  C17 UNL     1      32.840  29.457  20.563  1.00  0.00     0.005 C 
ENDBRANCH  22  23
ENDBRANCH   2  22
ENDBRANCH   1   2
BRANCH   1  29
HETATM   29  O3  UNL     1      36.078  27.349  18.309  1.00  0.00    -0.348 OA
ATOM     30  H3  UNL     1      36.955  27.082  18.061  1.00  0.00     0.219 HD
ENDBRANCH   1  29
BRANCH   1  31
HETATM   31  N4  UNL     1      36.696  27.829  20.432  1.00  0.00    -0.359 N 
ATOM     32  H4  UNL     1      37.714  27.884  20.470  1.00  0.00     0.162 HD
BRANCH  31  33
HETATM   33  C19 UNL     1      35.996  27.322  21.618  1.00  0.00     0.179 C 
BRANCH  33  34
HETATM   34  C20 UNL     1      36.132  25.849  21.712  1.00  0.00     0.241 C 
HETATM   35  O4  UNL     1      36.348  25.244  22.820  1.00  0.00    -0.271 OA
HETATM   36  N5  UNL     1      36.029  25.052  20.561  1.00  0.00    -0.347 N 
ATOM     37  H5  UNL     1      35.835  25.507  19.668  1.00  0.00     0.163 HD
BRANCH  36  38
HETATM   38  C21 UNL     1      36.188  23.588  20.588  1.00  0.00     0.162 C 
BRANCH  38  39
HETATM   39  C22 UNL     1      34.942  22.923  20.260  1.00  0.00     0.135 C 
BRANCH  39  40
HETATM   40  O5  UNL     1      34.107  22.696  21.250  1.00  0.00    -0.348 OA
ATOM     41  H5  UNL     1      33.183  22.838  21.078  1.00  0.00     0.219 HD
ENDBRANCH  39  40
BRANCH  39  42
HETATM   42  N6  UNL     1      34.472  22.477  19.031  1.00  0.00    -0.361 N 
ATOM     43  H6  UNL     1      34.934  21.675  18.599  1.00  0.00     0.162 HD
BRANCH  42  44
HETATM   44  C23 UNL     1      33.348  23.097  18.321  1.00  0.00     0.153 C 
BRANCH  44  45
HETATM   45  C24 UNL     1      33.009  22.427  17.040  1.00  0.00     0.028 C 
HETATM   46  C25 UNL     1      32.214  21.140  17.287  1.00  0.00     0.007 C 
ENDBRANCH  44  45
BRANCH  44  47
HETATM   47  C26 UNL     1      33.501  24.574  18.253  1.00  0.00     0.157 C 
HETATM   48  O6  UNL     1      34.534  25.002  17.741  1.00  0.00    -0.295 OA
BRANCH  47  49
HETATM   49  C27 UNL     1      32.490  25.513  18.754  1.00  0.00     0.012 C 
HETATM   50  C28 UNL     1      32.748  25.952  20.197  1.00  0.00     0.022 C 
HETATM   51  C29 UNL     1      32.623  26.836  17.959  1.00  0.00     0.022 C 
HETATM   52  C30 UNL     1      31.069  25.100  18.580  1.00  0.00     0.022 C 
ENDBRANCH  47  49
ENDBRANCH  44  47
ENDBRANCH  42  44
ENDBRANCH  39  42
ENDBRANCH  38  39
BRANCH  38  53
HETATM   53  C31 UNL     1      37.401  23.254  19.863  1.00  0.00     0.008 C 
HETATM   54  C32 UNL     1      38.600  22.806  20.653  1.00  0.00     0.012 C 
HETATM   55  C33 UNL     1      37.848  24.401  18.917  1.00  0.00     0.012 C 
ENDBRANCH  38  53
ENDBRANCH  36  38
ENDBRANCH  33  34
BRANCH  33  56
HETATM   56  C34 UNL     1      36.411  27.983  22.867  1.00  0.00     0.009 C 
HETATM   57  C35 UNL     1      37.850  28.476  22.842  1.00  0.00     0.012 C 
HETATM   58  C36 UNL     1      35.482  29.135  23.260  1.00  0.00     0.012 C 
ENDBRANCH  33  56
ENDBRANCH  31  33
ENDBRANCH   1  31
TORSDOF 24
ENDMDL
MODEL 3
REMARK VINA RESULT: -6.404141025      3.631      7.032
REMARK  24 active torsions:
REMARK  status: ('A' for Active; 'I' for Inactive)
REMARK    1  A    between atoms: C2_2  and  C3_3 
REMARK    2  A    between atoms: C3_3  and  N1_4 
REMARK    3  A    between atoms: C3_3  and  C9_16 
REMARK       I    between atoms: N1_4  and  C4_6 
REMARK    4  A    between atoms: C4_6  and  C5_8 
REMARK    5  A    between atoms: C5_8  and  N2_9 
REMARK    6  A    between atoms: C5_8  and  C6_13 
REMARK       I    between atoms: C9_16  and  N3_18 
REMARK    7  A    between atoms: N3_18  and  C10_20 
REMARK    8  A    between atoms: C10_20  and  C11_21 
REMARK    9  A    between atoms: C10_20  and  C18_28 
REMARK   10  A    between atoms: C11_21  and  C12_22 
REMARK   11  A    between atoms: C18_28  and  O3_29 
REMARK   12  A    between atoms: C18_28  and  N4_31 
REMARK   13  A    between atoms: N4_31  and  C19_33 
REMARK   14  A    between atoms: C19_33  and  C20_34 
REMARK   15  A    between atoms: C19_33  and  C34_56 
REMARK       I    between atoms: C20_34  and  N5_36 
REMARK   16  A    between atoms: N5_36  and  C21_38 
REMARK   17  A    between atoms: C21_38  and  C22_39 
REMARK   18  A    between atoms: C21_38  and  C31_53 
REMARK   19  A    between atoms: C22_39  and  O5_40 
REMARK   20  A    between atoms: C22_39  and  N6_42 
REMARK   21  A    between atoms: N6_42  and  C23_44 
REMARK   22  A    between atoms: C23_44  and  C24_45 
REMARK   23  A    between atoms: C23_44  and  C26_47 
REMARK   24  A    between atoms: C26_47  and  C27_49 
ROOT
HETATM    1  C18 UNL     1      36.509  27.888  19.369  1.00  0.00     0.135 C 
ENDROOT
BRANCH   1   2
HETATM    2  C10 UNL     1      35.707  29.037  18.955  1.00  0.00     0.159 C 
BRANCH   2   3
HETATM    3  N3  UNL     1      36.517  29.784  17.952  1.00  0.00    -0.347 N 
HETATM    4  C9  UNL     1      36.026  30.129  16.678  1.00  0.00     0.241 C 
HETATM    5  O2  UNL     1      34.851  29.782  16.398  1.00  0.00    -0.271 OA
ATOM      6  H3  UNL     1      37.468  30.057  18.199  1.00  0.00     0.163 HD
BRANCH   4   7
HETATM    7  C3  UNL     1      36.816  30.865  15.683  1.00  0.00     0.176 C 
BRANCH   7   8
HETATM    8  C2  UNL     1      36.063  32.123  15.254  1.00  0.00     0.030 C 
HETATM    9  C1  UNL     1      36.988  33.234  14.864  1.00  0.00     0.007 C 
ENDBRANCH   7   8
BRANCH   7  10
HETATM   10  N1  UNL     1      37.144  30.023  14.566  1.00  0.00    -0.346 N 
HETATM   11  C4  UNL     1      37.851  28.795  14.647  1.00  0.00     0.249 C 
HETATM   12  O1  UNL     1      38.246  28.341  15.758  1.00  0.00    -0.271 OA
ATOM     13  H1  UNL     1      36.845  30.332  13.641  1.00  0.00     0.163 HD
BRANCH  11  14
HETATM   14  C5  UNL     1      38.152  28.007  13.433  1.00  0.00     0.278 C 
BRANCH  14  15
HETATM   15  N2  UNL     1      38.231  28.909  12.285  1.00  0.00    -0.066 N 
ATOM     16  H23 UNL     1      37.706  28.563  11.482  1.00  0.00     0.275 HD
ATOM     17  H22 UNL     1      37.710  29.774  12.434  1.00  0.00     0.275 HD
ATOM     18  H21 UNL     1      39.211  29.081  12.062  1.00  0.00     0.275 HD
ENDBRANCH  14  15
BRANCH  14  19
HETATM   19  C6  UNL     1      37.209  26.868  13.183  1.00  0.00     0.017 C 
HETATM   20  C7  UNL     1      37.933  25.845  12.327  1.00  0.00     0.012 C 
HETATM   21  C8  UNL     1      35.953  27.298  12.462  1.00  0.00     0.012 C 
ENDBRANCH  14  19
ENDBRANCH  11  14
ENDBRANCH   7  10
ENDBRANCH   4   7
ENDBRANCH   2   3
BRANCH   2  22
HETATM   22  C11 UNL     1      35.248  30.016  19.953  1.00  0.00     0.038 C 
BRANCH  22  23
HETATM   23  C12 UNL     1      33.795  30.123  20.235  1.00  0.00    -0.012 C 
HETATM   24  C13 UNL     1      33.205  31.089  19.189  1.00  0.00     0.005 C 
HETATM   25  C14 UNL     1      31.857  31.526  19.725  1.00  0.00     0.000 C 
HETATM   26  C15 UNL     1      31.286  30.447  20.593  1.00  0.00     0.000 C 
HETATM   27  C16 UNL     1      31.602  29.047  20.126  1.00  0.00     0.000 C 
HETATM   28  C17 UNL     1      33.084  28.788  20.005  1.00  0.00     0.005 C 
ENDBRANCH  22  23
ENDBRANCH   2  22
ENDBRANCH   1   2
BRANCH   1  29
HETATM   29  O3  UNL     1      36.952  27.193  18.355  1.00  0.00    -0.348 OA
ATOM     30  H3  UNL     1      37.120  26.285  18.580  1.00  0.00     0.219 HD
ENDBRANCH   1  29
BRANCH   1  31
HETATM   31  N4  UNL     1      36.888  27.408  20.606  1.00  0.00    -0.359 N 
ATOM     32  H4  UNL     1      37.876  27.465  20.854  1.00  0.00     0.162 HD
BRANCH  31  33
HETATM   33  C19 UNL     1      35.972  26.820  21.591  1.00  0.00     0.179 C 
BRANCH  33  34
HETATM   34  C20 UNL     1      36.206  25.361  21.713  1.00  0.00     0.241 C 
HETATM   35  O4  UNL     1      36.708  24.827  22.763  1.00  0.00    -0.271 OA
HETATM   36  N5  UNL     1      35.878  24.499  20.655  1.00  0.00    -0.347 N 
ATOM     37  H5  UNL     1      35.456  24.896  19.815  1.00  0.00     0.163 HD
BRANCH  36  38
HETATM   38  C21 UNL     1      36.119  23.047  20.706  1.00  0.00     0.162 C 
BRANCH  38  39
HETATM   39  C22 UNL     1      34.883  22.309  20.530  1.00  0.00     0.135 C 
BRANCH  39  40
HETATM   40  O5  UNL     1      34.157  22.094  21.605  1.00  0.00    -0.348 OA
ATOM     41  H5  UNL     1      33.213  22.083  21.495  1.00  0.00     0.219 HD
ENDBRANCH  39  40
BRANCH  39  42
HETATM   42  N6  UNL     1      34.324  21.779  19.374  1.00  0.00    -0.361 N 
ATOM     43  H6  UNL     1      34.012  20.807  19.388  1.00  0.00     0.162 HD
BRANCH  42  44
HETATM   44  C23 UNL     1      34.158  22.544  18.132  1.00  0.00     0.153 C 
BRANCH  44  45
HETATM   45  C24 UNL     1      33.183  23.658  18.244  1.00  0.00     0.028 C 
HETATM   46  C25 UNL     1      33.819  24.988  17.824  1.00  0.00     0.007 C 
ENDBRANCH  44  45
BRANCH  44  47
HETATM   47  C26 UNL     1      33.973  21.643  16.964  1.00  0.00     0.157 C 
HETATM   48  O6  UNL     1      32.900  21.047  16.887  1.00  0.00    -0.295 OA
BRANCH  47  49
HETATM   49  C27 UNL     1      34.993  21.450  15.927  1.00  0.00     0.012 C 
HETATM   50  C28 UNL     1      35.537  22.768  15.373  1.00  0.00     0.022 C 
HETATM   51  C29 UNL     1      36.240  20.809  16.586  1.00  0.00     0.022 C 
HETATM   52  C30 UNL     1      34.629  20.527  14.815  1.00  0.00     0.022 C 
ENDBRANCH  47  49
ENDBRANCH  44  47
ENDBRANCH  42  44
ENDBRANCH  39  42
ENDBRANCH  38  39
BRANCH  38  53
HETATM   53  C31 UNL     1      37.266  22.751  19.865  1.00  0.00     0.008 C 
HETATM   54  C32 UNL     1      38.617  22.652  20.519  1.00  0.00     0.012 C 
HETATM   55  C33 UNL     1      37.378  23.732  18.668  1.00  0.00     0.012 C 
ENDBRANCH  38  53
ENDBRANCH  36  38
ENDBRANCH  33  34
BRANCH  33  56
HETATM   56  C34 UNL     1      36.022  27.485  22.904  1.00  0.00     0.009 C 
HETATM   57  C35 UNL     1      37.216  28.415  23.068  1.00  0.00     0.012 C 
HETATM   58  C36 UNL     1      34.733  28.247  23.227  1.00  0.00     0.012 C 
ENDBRANCH  33  56
ENDBRANCH  31  33
ENDBRANCH   1  31
TORSDOF 24
ENDMDL
MODEL 4
REMARK VINA RESULT: -6.382174655      3.396      6.920
REMARK  24 active torsions:
REMARK  status: ('A' for Active; 'I' for Inactive)
REMARK    1  A    between atoms: C2_2  and  C3_3 
REMARK    2  A    between atoms: C3_3  and  N1_4 
REMARK    3  A    between atoms: C3_3  and  C9_16 
REMARK       I    between atoms: N1_4  and  C4_6 
REMARK    4  A    between atoms: C4_6  and  C5_8 
REMARK    5  A    between atoms: C5_8  and  N2_9 
REMARK    6  A    between atoms: C5_8  and  C6_13 
REMARK       I    between atoms: C9_16  and  N3_18 
REMARK    7  A    between atoms: N3_18  and  C10_20 
REMARK    8  A    between atoms: C10_20  and  C11_21 
REMARK    9  A    between atoms: C10_20  and  C18_28 
REMARK   10  A    between atoms: C11_21  and  C12_22 
REMARK   11  A    between atoms: C18_28  and  O3_29 
REMARK   12  A    between atoms: C18_28  and  N4_31 
REMARK   13  A    between atoms: N4_31  and  C19_33 
REMARK   14  A    between atoms: C19_33  and  C20_34 
REMARK   15  A    between atoms: C19_33  and  C34_56 
REMARK       I    between atoms: C20_34  and  N5_36 
REMARK   16  A    between atoms: N5_36  and  C21_38 
REMARK   17  A    between atoms: C21_38  and  C22_39 
REMARK   18  A    between atoms: C21_38  and  C31_53 
REMARK   19  A    between atoms: C22_39  and  O5_40 
REMARK   20  A    between atoms: C22_39  and  N6_42 
REMARK   21  A    between atoms: N6_42  and  C23_44 
REMARK   22  A    between atoms: C23_44  and  C24_45 
REMARK   23  A    between atoms: C23_44  and  C26_47 
REMARK   24  A    between atoms: C26_47  and  C27_49 
ROOT
HETATM    1  C18 UNL     1      35.026  29.766  18.055  1.00  0.00     0.135 C 
ENDROOT
BRANCH   1   2
HETATM    2  C10 UNL     1      34.405  29.780  19.377  1.00  0.00     0.159 C 
BRANCH   2   3
HETATM    3  N3  UNL     1      33.267  30.739  19.304  1.00  0.00    -0.347 N 
HETATM    4  C9  UNL     1      31.921  30.325  19.258  1.00  0.00     0.241 C 
HETATM    5  O2  UNL     1      31.695  29.089  19.282  1.00  0.00    -0.271 OA
ATOM      6  H3  UNL     1      33.471  31.738  19.287  1.00  0.00     0.163 HD
BRANCH   4   7
HETATM    7  C3  UNL     1      30.793  31.263  19.186  1.00  0.00     0.176 C 
BRANCH   7   8
HETATM    8  C2  UNL     1      29.685  30.809  20.135  1.00  0.00     0.030 C 
HETATM    9  C1  UNL     1      28.339  30.808  19.478  1.00  0.00     0.007 C 
ENDBRANCH   7   8
BRANCH   7  10
HETATM   10  N1  UNL     1      30.326  31.398  17.833  1.00  0.00    -0.346 N 
HETATM   11  C4  UNL     1      31.104  31.869  16.744  1.00  0.00     0.249 C 
HETATM   12  O1  UNL     1      32.312  32.205  16.900  1.00  0.00    -0.271 OA
ATOM     13  H1  UNL     1      29.360  31.135  17.641  1.00  0.00     0.163 HD
BRANCH  11  14
HETATM   14  C5  UNL     1      30.524  31.986  15.388  1.00  0.00     0.278 C 
BRANCH  14  15
HETATM   15  N2  UNL     1      29.348  31.123  15.295  1.00  0.00    -0.066 N 
ATOM     16  H23 UNL     1      28.832  31.074  16.174  1.00  0.00     0.275 HD
ATOM     17  H22 UNL     1      28.612  31.531  14.720  1.00  0.00     0.275 HD
ATOM     18  H21 UNL     1      29.635  30.203  14.963  1.00  0.00     0.275 HD
ENDBRANCH  14  15
BRANCH  14  19
HETATM   19  C6  UNL     1      31.495  31.727  14.275  1.00  0.00     0.017 C 
HETATM   20  C7  UNL     1      31.121  32.629  13.113  1.00  0.00     0.012 C 
HETATM   21  C8  UNL     1      31.468  30.293  13.800  1.00  0.00     0.012 C 
ENDBRANCH  14  19
ENDBRANCH  11  14
ENDBRANCH   7  10
ENDBRANCH   4   7
ENDBRANCH   2   3
BRANCH   2  22
HETATM   22  C11 UNL     1      35.197  30.144  20.562  1.00  0.00     0.038 C 
BRANCH  22  23
HETATM   23  C12 UNL     1      35.268  29.188  21.696  1.00  0.00    -0.012 C 
HETATM   24  C13 UNL     1      34.577  27.890  21.232  1.00  0.00     0.005 C 
HETATM   25  C14 UNL     1      34.270  27.099  22.487  1.00  0.00     0.000 C 
HETATM   26  C15 UNL     1      35.275  27.430  23.549  1.00  0.00     0.000 C 
HETATM   27  C16 UNL     1      36.666  27.685  23.025  1.00  0.00     0.000 C 
HETATM   28  C17 UNL     1      36.715  28.794  22.002  1.00  0.00     0.005 C 
ENDBRANCH  22  23
ENDBRANCH   2  22
ENDBRANCH   1   2
BRANCH   1  29
HETATM   29  O3  UNL     1      34.954  30.924  17.454  1.00  0.00    -0.348 OA
ATOM     30  H3  UNL     1      35.442  30.944  16.639  1.00  0.00     0.219 HD
ENDBRANCH   1  29
BRANCH   1  31
HETATM   31  N4  UNL     1      35.671  28.782  17.333  1.00  0.00    -0.359 N 
ATOM     32  H4  UNL     1      35.831  28.951  16.341  1.00  0.00     0.162 HD
BRANCH  31  33
HETATM   33  C19 UNL     1      36.142  27.509  17.892  1.00  0.00     0.179 C 
BRANCH  33  34
HETATM   34  C20 UNL     1      35.372  26.376  17.327  1.00  0.00     0.241 C 
HETATM   35  O4  UNL     1      35.495  25.996  16.110  1.00  0.00    -0.271 OA
HETATM   36  N5  UNL     1      34.460  25.669  18.126  1.00  0.00    -0.347 N 
ATOM     37  H5  UNL     1      34.359  25.937  19.105  1.00  0.00     0.163 HD
BRANCH  36  38
HETATM   38  C21 UNL     1      33.643  24.556  17.610  1.00  0.00     0.162 C 
BRANCH  38  39
HETATM   39  C22 UNL     1      34.322  23.287  17.788  1.00  0.00     0.135 C 
BRANCH  39  40
HETATM   40  O5  UNL     1      35.384  23.068  17.045  1.00  0.00    -0.348 OA
ATOM     41  H5  UNL     1      35.905  22.301  17.252  1.00  0.00     0.219 HD
ENDBRANCH  39  40
BRANCH  39  42
HETATM   42  N6  UNL     1      34.023  22.236  18.646  1.00  0.00    -0.361 N 
ATOM     43  H6  UNL     1      33.125  21.763  18.537  1.00  0.00     0.162 HD
BRANCH  42  44
HETATM   44  C23 UNL     1      34.931  21.768  19.700  1.00  0.00     0.153 C 
BRANCH  44  45
HETATM   45  C24 UNL     1      34.523  20.476  20.308  1.00  0.00     0.028 C 
HETATM   46  C25 UNL     1      33.622  19.682  19.357  1.00  0.00     0.007 C 
ENDBRANCH  44  45
BRANCH  44  47
HETATM   47  C26 UNL     1      35.251  22.858  20.659  1.00  0.00     0.157 C 
HETATM   48  O6  UNL     1      34.303  23.378  21.245  1.00  0.00    -0.295 OA
BRANCH  47  49
HETATM   49  C27 UNL     1      36.618  23.318  20.929  1.00  0.00     0.012 C 
HETATM   50  C28 UNL     1      37.642  22.757  19.940  1.00  0.00     0.022 C 
HETATM   51  C29 UNL     1      36.678  24.843  20.662  1.00  0.00     0.022 C 
HETATM   52  C30 UNL     1      37.101  23.153  22.329  1.00  0.00     0.022 C 
ENDBRANCH  47  49
ENDBRANCH  44  47
ENDBRANCH  42  44
ENDBRANCH  39  42
ENDBRANCH  38  39
BRANCH  38  53
HETATM   53  C31 UNL     1      32.287  24.730  18.101  1.00  0.00     0.008 C 
HETATM   54  C32 UNL     1      31.264  25.314  17.166  1.00  0.00     0.012 C 
HETATM   55  C33 UNL     1      32.246  25.535  19.427  1.00  0.00     0.012 C 
ENDBRANCH  38  53
ENDBRANCH  36  38
ENDBRANCH  33  34
BRANCH  33  56
HETATM   56  C34 UNL     1      37.592  27.306  17.738  1.00  0.00     0.009 C 
HETATM   57  C35 UNL     1      38.184  28.041  16.544  1.00  0.00     0.012 C 
HETATM   58  C36 UNL     1      38.376  27.670  19.003  1.00  0.00     0.012 C 
ENDBRANCH  33  56
ENDBRANCH  31  33
ENDBRANCH   1  31
TORSDOF 24
ENDMDL
MODEL 5
REMARK VINA RESULT: -6.335254434      4.054      8.054
REMARK  24 active torsions:
REMARK  status: ('A' for Active; 'I' for Inactive)
REMARK    1  A    between atoms: C2_2  and  C3_3 
REMARK    2  A    between atoms: C3_3  and  N1_4 
REMARK    3  A    between atoms: C3_3  and  C9_16 
REMARK       I    between atoms: N1_4  and  C4_6 
REMARK    4  A    between atoms: C4_6  and  C5_8 
REMARK    5  A    between atoms: C5_8  and  N2_9 
REMARK    6  A    between atoms: C5_8  and  C6_13 
REMARK       I    between atoms: C9_16  and  N3_18 
REMARK    7  A    between atoms: N3_18  and  C10_20 
REMARK    8  A    between atoms: C10_20  and  C11_21 
REMARK    9  A    between atoms: C10_20  and  C18_28 
REMARK   10  A    between atoms: C11_21  and  C12_22 
REMARK   11  A    between atoms: C18_28  and  O3_29 
REMARK   12  A    between atoms: C18_28  and  N4_31 
REMARK   13  A    between atoms: N4_31  and  C19_33 
REMARK   14  A    between atoms: C19_33  and  C20_34 
REMARK   15  A    between atoms: C19_33  and  C34_56 
REMARK       I    between atoms: C20_34  and  N5_36 
REMARK   16  A    between atoms: N5_36  and  C21_38 
REMARK   17  A    between atoms: C21_38  and  C22_39 
REMARK   18  A    between atoms: C21_38  and  C31_53 
REMARK   19  A    between atoms: C22_39  and  O5_40 
REMARK   20  A    between atoms: C22_39  and  N6_42 
REMARK   21  A    between atoms: N6_42  and  C23_44 
REMARK   22  A    between atoms: C23_44  and  C24_45 
REMARK   23  A    between atoms: C23_44  and  C26_47 
REMARK   24  A    between atoms: C26_47  and  C27_49 
ROOT
HETATM    1  C18 UNL     1      36.112  28.019  19.179  1.00  0.00     0.135 C 
ENDROOT
BRANCH   1   2
HETATM    2  C10 UNL     1      35.395  29.194  18.690  1.00  0.00     0.159 C 
BRANCH   2   3
HETATM    3  N3  UNL     1      36.189  29.737  17.553  1.00  0.00    -0.347 N 
HETATM    4  C9  UNL     1      35.870  29.478  16.205  1.00  0.00     0.241 C 
HETATM    5  O2  UNL     1      34.867  28.756  15.978  1.00  0.00    -0.271 OA
ATOM      6  H3  UNL     1      36.999  30.322  17.758  1.00  0.00     0.163 HD
BRANCH   4   7
HETATM    7  C3  UNL     1      36.647  30.009  15.078  1.00  0.00     0.176 C 
BRANCH   7   8
HETATM    8  C2  UNL     1      37.831  29.087  14.789  1.00  0.00     0.030 C 
HETATM    9  C1  UNL     1      38.457  29.366  13.458  1.00  0.00     0.007 C 
ENDBRANCH   7   8
BRANCH   7  10
HETATM   10  N1  UNL     1      37.063  31.360  15.335  1.00  0.00    -0.346 N 
HETATM   11  C4  UNL     1      36.546  32.511  14.686  1.00  0.00     0.249 C 
HETATM   12  O1  UNL     1      35.641  32.416  13.809  1.00  0.00    -0.271 OA
ATOM     13  H1  UNL     1      37.786  31.504  16.039  1.00  0.00     0.163 HD
BRANCH  11  14
HETATM   14  C5  UNL     1      37.052  33.862  15.012  1.00  0.00     0.278 C 
BRANCH  14  15
HETATM   15  N2  UNL     1      37.019  34.688  13.806  1.00  0.00    -0.066 N 
ATOM     16  H23 UNL     1      37.489  35.583  13.937  1.00  0.00     0.275 HD
ATOM     17  H22 UNL     1      37.617  34.319  13.066  1.00  0.00     0.275 HD
ATOM     18  H21 UNL     1      36.052  34.799  13.504  1.00  0.00     0.275 HD
ENDBRANCH  14  15
BRANCH  14  19
HETATM   19  C6  UNL     1      38.403  33.877  15.662  1.00  0.00     0.017 C 
HETATM   20  C7  UNL     1      38.506  35.145  16.489  1.00  0.00     0.012 C 
HETATM   21  C8  UNL     1      39.533  33.863  14.659  1.00  0.00     0.012 C 
ENDBRANCH  14  19
ENDBRANCH  11  14
ENDBRANCH   7  10
ENDBRANCH   4   7
ENDBRANCH   2   3
BRANCH   2  22
HETATM   22  C11 UNL     1      35.117  30.319  19.596  1.00  0.00     0.038 C 
BRANCH  22  23
HETATM   23  C12 UNL     1      33.704  30.686  19.870  1.00  0.00    -0.012 C 
HETATM   24  C13 UNL     1      33.063  31.041  18.513  1.00  0.00     0.005 C 
HETATM   25  C14 UNL     1      31.797  31.810  18.829  1.00  0.00     0.000 C 
HETATM   26  C15 UNL     1      31.261  31.373  20.159  1.00  0.00     0.000 C 
HETATM   27  C16 UNL     1      31.462  29.907  20.454  1.00  0.00     0.000 C 
HETATM   28  C17 UNL     1      32.911  29.488  20.396  1.00  0.00     0.005 C 
ENDBRANCH  22  23
ENDBRANCH   2  22
ENDBRANCH   1   2
BRANCH   1  29
HETATM   29  O3  UNL     1      36.210  27.079  18.276  1.00  0.00    -0.348 OA
ATOM     30  H3  UNL     1      37.105  26.941  17.988  1.00  0.00     0.219 HD
ENDBRANCH   1  29
BRANCH   1  31
HETATM   31  N4  UNL     1      36.703  27.718  20.389  1.00  0.00    -0.359 N 
ATOM     32  H4  UNL     1      37.711  27.852  20.470  1.00  0.00     0.162 HD
BRANCH  31  33
HETATM   33  C19 UNL     1      35.985  27.220  21.568  1.00  0.00     0.179 C 
BRANCH  33  34
HETATM   34  C20 UNL     1      36.137  25.750  21.686  1.00  0.00     0.241 C 
HETATM   35  O4  UNL     1      36.356  25.165  22.804  1.00  0.00    -0.271 OA
HETATM   36  N5  UNL     1      36.045  24.934  20.548  1.00  0.00    -0.347 N 
ATOM     37  H5  UNL     1      35.848  25.372  19.648  1.00  0.00     0.163 HD
BRANCH  36  38
HETATM   38  C21 UNL     1      36.220  23.472  20.599  1.00  0.00     0.162 C 
BRANCH  38  39
HETATM   39  C22 UNL     1      34.991  22.789  20.241  1.00  0.00     0.135 C 
BRANCH  39  40
HETATM   40  O5  UNL     1      34.157  22.506  21.217  1.00  0.00    -0.348 OA
ATOM     41  H5  UNL     1      33.910  23.220  21.794  1.00  0.00     0.219 HD
ENDBRANCH  39  40
BRANCH  39  42
HETATM   42  N6  UNL     1      34.540  22.375  18.993  1.00  0.00    -0.361 N 
ATOM     43  H6  UNL     1      35.026  21.604  18.534  1.00  0.00     0.162 HD
BRANCH  42  44
HETATM   44  C23 UNL     1      33.400  22.988  18.301  1.00  0.00     0.153 C 
BRANCH  44  45
HETATM   45  C24 UNL     1      32.986  22.261  17.075  1.00  0.00     0.028 C 
HETATM   46  C25 UNL     1      32.295  20.939  17.428  1.00  0.00     0.007 C 
ENDBRANCH  44  45
BRANCH  44  47
HETATM   47  C26 UNL     1      33.588  24.454  18.147  1.00  0.00     0.157 C 
HETATM   48  O6  UNL     1      34.655  24.829  17.662  1.00  0.00    -0.295 OA
BRANCH  47  49
HETATM   49  C27 UNL     1      32.574  25.442  18.535  1.00  0.00     0.012 C 
HETATM   50  C28 UNL     1      31.151  24.883  18.494  1.00  0.00     0.022 C 
HETATM   51  C29 UNL     1      32.773  25.776  20.035  1.00  0.00     0.022 C 
HETATM   52  C30 UNL     1      32.640  26.757  17.836  1.00  0.00     0.022 C 
ENDBRANCH  47  49
ENDBRANCH  44  47
ENDBRANCH  42  44
ENDBRANCH  39  42
ENDBRANCH  38  39
BRANCH  38  53
HETATM   53  C31 UNL     1      37.459  23.143  19.917  1.00  0.00     0.008 C 
HETATM   54  C32 UNL     1      38.658  22.789  20.754  1.00  0.00     0.012 C 
HETATM   55  C33 UNL     1      37.880  24.248  18.911  1.00  0.00     0.012 C 
ENDBRANCH  38  53
ENDBRANCH  36  38
ENDBRANCH  33  34
BRANCH  33  56
HETATM   56  C34 UNL     1      36.368  27.903  22.816  1.00  0.00     0.009 C 
HETATM   57  C35 UNL     1      37.798  28.423  22.809  1.00  0.00     0.012 C 
HETATM   58  C36 UNL     1      35.411  29.043  23.179  1.00  0.00     0.012 C 
ENDBRANCH  33  56
ENDBRANCH  31  33
ENDBRANCH   1  31
TORSDOF 24
ENDMDL
