MODEL 1
REMARK VINA RESULT: -7.381438398      0.000      0.000
REMARK  21 active torsions:
REMARK  status: ('A' for Active; 'I' for Inactive)
REMARK    1  A    between atoms: C2_2  and  C3_3 
REMARK    2  A    between atoms: C3_3  and  C4_4 
REMARK    3  A    between atoms: C4_4  and  N1_7 
REMARK    4  A    between atoms: N1_7  and  C7_8 
REMARK    5  A    between atoms: N1_7  and  C10_11 
REMARK    6  A    between atoms: C10_11  and  C11_12 
REMARK    7  A    between atoms: C10_11  and  C18_19 
REMARK    8  A    between atoms: C11_12  and  C12_13 
REMARK       I    between atoms: C18_19  and  N2_21 
REMARK    9  A    between atoms: N2_21  and  C19_23 
REMARK   10  A    between atoms: C19_23  and  C20_24 
REMARK   11  A    between atoms: C19_23  and  C21_27 
REMARK   12  A    between atoms: C20_24  and  O2_25 
REMARK       I    between atoms: C21_27  and  N3_29 
REMARK   13  A    between atoms: N3_29  and  C22_31 
REMARK   14  A    between atoms: C22_31  and  C23_32 
REMARK   15  A    between atoms: C22_31  and  C33_51 
REMARK       I    between atoms: C23_32  and  N4_34 
REMARK   16  A    between atoms: N4_34  and  N5_36 
REMARK       I    between atoms: N5_36  and  C24_38 
REMARK   17  A    between atoms: C24_38  and  C25_40 
REMARK   18  A    between atoms: C27_42  and  O6_43 
REMARK   19  A    between atoms: N6_46  and  C29_47 
REMARK   20  A    between atoms: C29_47  and  C30_48 
REMARK   21  A    between atoms: C33_51  and  C35_53 
ROOT
HETATM    1  C21 UNL     1      28.772  25.611  18.438  1.00  0.00     0.243 C 
HETATM    2  O3  UNL     1      28.360  26.094  17.350  1.00  0.00    -0.271 OA
HETATM    3  N3  UNL     1      27.809  24.985  19.263  1.00  0.00    -0.346 N 
ATOM      4  H3  UNL     1      28.111  24.596  20.156  1.00  0.00     0.163 HD
ENDROOT
BRANCH   1   5
HETATM    5  C19 UNL     1      30.185  25.684  18.848  1.00  0.00     0.200 C 
BRANCH   5   6
HETATM    6  N2  UNL     1      30.580  27.128  18.888  1.00  0.00    -0.340 N 
HETATM    7  C18 UNL     1      31.708  27.515  19.584  1.00  0.00     0.268 C 
HETATM    8  O1  UNL     1      32.324  26.525  20.133  1.00  0.00    -0.266 OA
ATOM      9  H2  UNL     1      30.016  27.825  18.402  1.00  0.00     0.163 HD
BRANCH   7  10
HETATM   10  C10 UNL     1      32.342  28.872  19.812  1.00  0.00     0.100 C 
BRANCH  10  11
HETATM   11  N1  UNL     1      32.136  29.847  18.850  1.00  0.00    -0.342 N 
BRANCH  11  12
HETATM   12  C4  UNL     1      31.027  30.740  18.840  1.00  0.00     0.030 C 
HETATM   13  C5  UNL     1      30.327  30.723  17.456  1.00  0.00     0.038 C 
HETATM   14  C6  UNL     1      31.418  32.186  18.940  1.00  0.00     0.038 C 
BRANCH  12  15
HETATM   15  C3  UNL     1      30.026  30.440  19.905  1.00  0.00     0.030 C 
BRANCH  15  16
HETATM   16  C2  UNL     1      28.583  30.624  19.688  1.00  0.00    -0.002 C 
HETATM   17  C1  UNL     1      27.693  30.947  20.835  1.00  0.00     0.005 C 
ENDBRANCH  15  16
ENDBRANCH  12  15
ENDBRANCH  11  12
BRANCH  11  18
HETATM   18  C7  UNL     1      33.020  29.867  17.756  1.00  0.00    -0.017 C 
HETATM   19  C8  UNL     1      34.336  30.590  17.863  1.00  0.00     0.063 C 
HETATM   20  C9  UNL     1      33.169  28.684  16.865  1.00  0.00     0.063 C 
ENDBRANCH  11  18
ENDBRANCH  10  11
BRANCH  10  21
HETATM   21  C11 UNL     1      32.527  29.051  21.252  1.00  0.00     0.013 C 
BRANCH  21  22
HETATM   22  C12 UNL     1      33.785  28.845  21.996  1.00  0.00     0.010 C 
HETATM   23  C13 UNL     1      34.951  28.724  20.962  1.00  0.00     0.008 C 
HETATM   24  C14 UNL     1      36.191  29.152  21.686  1.00  0.00     0.001 C 
HETATM   25  C15 UNL     1      36.221  28.519  23.083  1.00  0.00     0.000 C 
HETATM   26  C16 UNL     1      35.410  27.256  22.966  1.00  0.00     0.001 C 
HETATM   27  C17 UNL     1      33.931  27.672  22.887  1.00  0.00     0.008 C 
ENDBRANCH  21  22
ENDBRANCH  10  21
ENDBRANCH   7  10
ENDBRANCH   5   6
BRANCH   5  28
HETATM   28  C20 UNL     1      30.993  24.993  17.761  1.00  0.00     0.199 C 
BRANCH  28  29
HETATM   29  O2  UNL     1      30.288  23.888  17.290  1.00  0.00    -0.398 OA
ATOM     30  H2  UNL     1      30.899  23.233  16.974  1.00  0.00     0.209 HD
ENDBRANCH  28  29
ENDBRANCH   5  28
ENDBRANCH   1   5
BRANCH   3  31
HETATM   31  C22 UNL     1      26.394  24.870  18.891  1.00  0.00     0.182 C 
BRANCH  31  32
HETATM   32  C23 UNL     1      25.681  25.996  19.442  1.00  0.00     0.259 C 
HETATM   33  O4  UNL     1      25.025  26.779  18.677  1.00  0.00    -0.269 OA
HETATM   34  N4  UNL     1      25.654  26.296  20.818  1.00  0.00    -0.266 N 
ATOM     35  H4  UNL     1      26.168  25.684  21.452  1.00  0.00     0.190 HD
BRANCH  34  36
HETATM   36  N5  UNL     1      24.965  27.384  21.371  1.00  0.00    -0.266 N 
HETATM   37  C24 UNL     1      24.639  27.444  22.735  1.00  0.00     0.269 C 
HETATM   38  O5  UNL     1      24.939  26.540  23.571  1.00  0.00    -0.269 OA
ATOM     39  H5  UNL     1      24.691  28.156  20.763  1.00  0.00     0.190 HD
BRANCH  37  40
HETATM   40  C25 UNL     1      23.897  28.622  23.259  1.00  0.00     0.318 A 
HETATM   41  C26 UNL     1      24.585  29.893  22.797  1.00  0.00     0.079 A 
HETATM   42  C27 UNL     1      23.550  30.779  22.193  1.00  0.00     0.149 A 
HETATM   43  C28 UNL     1      22.307  29.960  22.181  1.00  0.00     0.305 A 
HETATM   44  N6  UNL     1      22.540  28.704  22.812  1.00  0.00     0.105 N 
BRANCH  42  45
HETATM   45  O6  UNL     1      23.944  31.101  20.874  1.00  0.00    -0.394 OA
ATOM     46  H6  UNL     1      23.515  31.909  20.617  1.00  0.00     0.210 HD
ENDBRANCH  42  45
BRANCH  44  47
HETATM   47  C29 UNL     1      21.674  28.445  23.933  1.00  0.00     0.277 C 
BRANCH  47  48
HETATM   48  C30 UNL     1      21.138  29.689  24.599  1.00  0.00     0.006 C 
HETATM   49  C31 UNL     1      19.670  29.531  24.971  1.00  0.00     0.011 C 
HETATM   50  C32 UNL     1      21.887  29.842  25.922  1.00  0.00     0.011 C 
ENDBRANCH  47  48
ENDBRANCH  44  47
ENDBRANCH  37  40
ENDBRANCH  34  36
ENDBRANCH  31  32
BRANCH  31  51
HETATM   51  C33 UNL     1      25.904  23.497  19.261  1.00  0.00     0.013 C 
HETATM   52  C34 UNL     1      24.730  22.987  18.516  1.00  0.00     0.012 C 
BRANCH  51  53
HETATM   53  C35 UNL     1      27.071  22.505  19.217  1.00  0.00     0.002 C 
HETATM   54  C36 UNL     1      26.547  21.099  19.077  1.00  0.00     0.005 C 
ENDBRANCH  51  53
ENDBRANCH  31  51
ENDBRANCH   3  31
TORSDOF 21
ENDMDL
MODEL 2
REMARK VINA RESULT: -7.359857250      1.598      3.480
REMARK  21 active torsions:
REMARK  status: ('A' for Active; 'I' for Inactive)
REMARK    1  A    between atoms: C2_2  and  C3_3 
REMARK    2  A    between atoms: C3_3  and  C4_4 
REMARK    3  A    between atoms: C4_4  and  N1_7 
REMARK    4  A    between atoms: N1_7  and  C7_8 
REMARK    5  A    between atoms: N1_7  and  C10_11 
REMARK    6  A    between atoms: C10_11  and  C11_12 
REMARK    7  A    between atoms: C10_11  and  C18_19 
REMARK    8  A    between atoms: C11_12  and  C12_13 
REMARK       I    between atoms: C18_19  and  N2_21 
REMARK    9  A    between atoms: N2_21  and  C19_23 
REMARK   10  A    between atoms: C19_23  and  C20_24 
REMARK   11  A    between atoms: C19_23  and  C21_27 
REMARK   12  A    between atoms: C20_24  and  O2_25 
REMARK       I    between atoms: C21_27  and  N3_29 
REMARK   13  A    between atoms: N3_29  and  C22_31 
REMARK   14  A    between atoms: C22_31  and  C23_32 
REMARK   15  A    between atoms: C22_31  and  C33_51 
REMARK       I    between atoms: C23_32  and  N4_34 
REMARK   16  A    between atoms: N4_34  and  N5_36 
REMARK       I    between atoms: N5_36  and  C24_38 
REMARK   17  A    between atoms: C24_38  and  C25_40 
REMARK   18  A    between atoms: C27_42  and  O6_43 
REMARK   19  A    between atoms: N6_46  and  C29_47 
REMARK   20  A    between atoms: C29_47  and  C30_48 
REMARK   21  A    between atoms: C33_51  and  C35_53 
ROOT
HETATM    1  C21 UNL     1      29.570  24.607  17.950  1.00  0.00     0.243 C 
HETATM    2  O3  UNL     1      29.247  24.960  16.784  1.00  0.00    -0.271 OA
HETATM    3  N3  UNL     1      28.536  24.108  18.776  1.00  0.00    -0.346 N 
ATOM      4  H3  UNL     1      28.765  23.827  19.729  1.00  0.00     0.163 HD
ENDROOT
BRANCH   1   5
HETATM    5  C19 UNL     1      30.953  24.703  18.447  1.00  0.00     0.200 C 
BRANCH   5   6
HETATM    6  N2  UNL     1      31.353  26.146  18.426  1.00  0.00    -0.340 N 
HETATM    7  C18 UNL     1      32.219  26.637  19.383  1.00  0.00     0.268 C 
HETATM    8  O1  UNL     1      32.609  25.734  20.217  1.00  0.00    -0.266 OA
ATOM      9  H2  UNL     1      30.986  26.767  17.705  1.00  0.00     0.163 HD
BRANCH   7  10
HETATM   10  C10 UNL     1      32.785  28.020  19.624  1.00  0.00     0.100 C 
BRANCH  10  11
HETATM   11  N1  UNL     1      32.354  29.044  18.795  1.00  0.00    -0.342 N 
BRANCH  11  12
HETATM   12  C4  UNL     1      33.099  29.546  17.691  1.00  0.00     0.030 C 
HETATM   13  C5  UNL     1      32.957  31.088  17.595  1.00  0.00     0.038 C 
HETATM   14  C6  UNL     1      32.551  29.130  16.356  1.00  0.00     0.038 C 
BRANCH  12  15
HETATM   15  C3  UNL     1      34.544  29.184  17.749  1.00  0.00     0.030 C 
BRANCH  15  16
HETATM   16  C2  UNL     1      35.546  30.079  18.350  1.00  0.00    -0.002 C 
HETATM   17  C1  UNL     1      36.844  29.531  18.827  1.00  0.00     0.005 C 
ENDBRANCH  15  16
ENDBRANCH  12  15
ENDBRANCH  11  12
BRANCH  11  18
HETATM   18  C7  UNL     1      31.160  29.697  19.150  1.00  0.00    -0.017 C 
HETATM   19  C8  UNL     1      29.849  29.242  18.568  1.00  0.00     0.063 C 
HETATM   20  C9  UNL     1      30.944  30.211  20.530  1.00  0.00     0.063 C 
ENDBRANCH  11  18
ENDBRANCH  10  11
BRANCH  10  21
HETATM   21  C11 UNL     1      33.194  28.107  21.026  1.00  0.00     0.013 C 
BRANCH  21  22
HETATM   22  C12 UNL     1      34.583  28.119  21.523  1.00  0.00     0.010 C 
HETATM   23  C13 UNL     1      34.691  27.095  22.700  1.00  0.00     0.008 C 
HETATM   24  C14 UNL     1      36.126  26.665  22.743  1.00  0.00     0.001 C 
HETATM   25  C15 UNL     1      37.039  27.888  22.592  1.00  0.00     0.000 C 
HETATM   26  C16 UNL     1      36.235  29.053  23.107  1.00  0.00     0.001 C 
HETATM   27  C17 UNL     1      35.170  29.375  22.045  1.00  0.00     0.008 C 
ENDBRANCH  21  22
ENDBRANCH  10  21
ENDBRANCH   7  10
ENDBRANCH   5   6
BRANCH   5  28
HETATM   28  C20 UNL     1      31.827  23.946  17.460  1.00  0.00     0.199 C 
BRANCH  28  29
HETATM   29  O2  UNL     1      31.165  22.795  17.041  1.00  0.00    -0.398 OA
ATOM     30  H2  UNL     1      31.472  22.051  17.545  1.00  0.00     0.209 HD
ENDBRANCH  28  29
ENDBRANCH   5  28
ENDBRANCH   1   5
BRANCH   3  31
HETATM   31  C22 UNL     1      27.147  23.976  18.321  1.00  0.00     0.182 C 
BRANCH  31  32
HETATM   32  C23 UNL     1      26.472  25.232  18.534  1.00  0.00     0.259 C 
HETATM   33  O4  UNL     1      26.077  25.928  17.539  1.00  0.00    -0.269 OA
HETATM   34  N4  UNL     1      26.204  25.760  19.812  1.00  0.00    -0.266 N 
ATOM     35  H4  UNL     1      26.507  25.222  20.625  1.00  0.00     0.190 HD
BRANCH  34  36
HETATM   36  N5  UNL     1      25.547  26.976  20.038  1.00  0.00    -0.266 N 
HETATM   37  C24 UNL     1      24.995  27.305  21.286  1.00  0.00     0.269 C 
HETATM   38  O5  UNL     1      25.046  26.547  22.300  1.00  0.00    -0.269 OA
ATOM     39  H5  UNL     1      25.467  27.644  19.270  1.00  0.00     0.190 HD
BRANCH  37  40
HETATM   40  C25 UNL     1      24.302  28.610  21.459  1.00  0.00     0.318 A 
HETATM   41  C26 UNL     1      23.136  28.436  22.414  1.00  0.00     0.079 A 
HETATM   42  C27 UNL     1      23.237  29.497  23.456  1.00  0.00     0.149 A 
HETATM   43  C28 UNL     1      24.529  30.182  23.178  1.00  0.00     0.305 A 
HETATM   44  N6  UNL     1      25.129  29.643  22.004  1.00  0.00     0.105 N 
BRANCH  42  45
HETATM   45  O6  UNL     1      23.265  28.881  24.728  1.00  0.00    -0.394 OA
ATOM     46  H6  UNL     1      22.865  29.468  25.359  1.00  0.00     0.210 HD
ENDBRANCH  42  45
BRANCH  44  47
HETATM   47  C29 UNL     1      25.377  30.619  20.975  1.00  0.00     0.277 C 
BRANCH  47  48
HETATM   48  C30 UNL     1      26.599  30.336  20.136  1.00  0.00     0.006 C 
HETATM   49  C31 UNL     1      26.256  30.283  18.654  1.00  0.00     0.011 C 
HETATM   50  C32 UNL     1      27.539  31.529  20.303  1.00  0.00     0.011 C 
ENDBRANCH  47  48
ENDBRANCH  44  47
ENDBRANCH  37  40
ENDBRANCH  34  36
ENDBRANCH  31  32
BRANCH  31  51
HETATM   51  C33 UNL     1      26.542  22.753  18.955  1.00  0.00     0.013 C 
HETATM   52  C34 UNL     1      25.224  22.319  18.437  1.00  0.00     0.012 C 
BRANCH  51  53
HETATM   53  C35 UNL     1      27.559  21.606  18.934  1.00  0.00     0.002 C 
HETATM   54  C36 UNL     1      26.924  20.347  19.465  1.00  0.00     0.005 C 
ENDBRANCH  51  53
ENDBRANCH  31  51
ENDBRANCH   3  31
TORSDOF 21
ENDMDL
MODEL 3
REMARK VINA RESULT: -7.358911530      6.423     10.783
REMARK  21 active torsions:
REMARK  status: ('A' for Active; 'I' for Inactive)
REMARK    1  A    between atoms: C2_2  and  C3_3 
REMARK    2  A    between atoms: C3_3  and  C4_4 
REMARK    3  A    between atoms: C4_4  and  N1_7 
REMARK    4  A    between atoms: N1_7  and  C7_8 
REMARK    5  A    between atoms: N1_7  and  C10_11 
REMARK    6  A    between atoms: C10_11  and  C11_12 
REMARK    7  A    between atoms: C10_11  and  C18_19 
REMARK    8  A    between atoms: C11_12  and  C12_13 
REMARK       I    between atoms: C18_19  and  N2_21 
REMARK    9  A    between atoms: N2_21  and  C19_23 
REMARK   10  A    between atoms: C19_23  and  C20_24 
REMARK   11  A    between atoms: C19_23  and  C21_27 
REMARK   12  A    between atoms: C20_24  and  O2_25 
REMARK       I    between atoms: C21_27  and  N3_29 
REMARK   13  A    between atoms: N3_29  and  C22_31 
REMARK   14  A    between atoms: C22_31  and  C23_32 
REMARK   15  A    between atoms: C22_31  and  C33_51 
REMARK       I    between atoms: C23_32  and  N4_34 
REMARK   16  A    between atoms: N4_34  and  N5_36 
REMARK       I    between atoms: N5_36  and  C24_38 
REMARK   17  A    between atoms: C24_38  and  C25_40 
REMARK   18  A    between atoms: C27_42  and  O6_43 
REMARK   19  A    between atoms: N6_46  and  C29_47 
REMARK   20  A    between atoms: C29_47  and  C30_48 
REMARK   21  A    between atoms: C33_51  and  C35_53 
ROOT
HETATM    1  C21 UNL     1      37.891  27.485  20.506  1.00  0.00     0.243 C 
HETATM    2  O3  UNL     1      38.601  27.714  21.522  1.00  0.00    -0.271 OA
HETATM    3  N3  UNL     1      36.906  26.478  20.629  1.00  0.00    -0.346 N 
ATOM      4  H3  UNL     1      36.325  26.263  19.819  1.00  0.00     0.163 HD
ENDROOT
BRANCH   1   5
HETATM    5  C19 UNL     1      38.064  28.222  19.242  1.00  0.00     0.200 C 
BRANCH   5   6
HETATM    6  N2  UNL     1      36.711  28.421  18.633  1.00  0.00    -0.340 N 
HETATM    7  C18 UNL     1      36.106  29.661  18.687  1.00  0.00     0.268 C 
HETATM    8  O1  UNL     1      36.830  30.548  19.278  1.00  0.00    -0.266 OA
ATOM      9  H2  UNL     1      36.236  27.641  18.179  1.00  0.00     0.163 HD
BRANCH   7  10
HETATM   10  C10 UNL     1      34.767  30.157  18.183  1.00  0.00     0.100 C 
BRANCH  10  11
HETATM   11  N1  UNL     1      34.418  29.851  16.878  1.00  0.00    -0.342 N 
BRANCH  11  12
HETATM   12  C4  UNL     1      33.949  28.575  16.453  1.00  0.00     0.030 C 
HETATM   13  C5  UNL     1      35.004  27.878  15.556  1.00  0.00     0.038 C 
HETATM   14  C6  UNL     1      32.781  28.646  15.511  1.00  0.00     0.038 C 
BRANCH  12  15
HETATM   15  C3  UNL     1      33.593  27.676  17.589  1.00  0.00     0.030 C 
BRANCH  15  16
HETATM   16  C2  UNL     1      32.255  27.076  17.716  1.00  0.00    -0.002 C 
HETATM   17  C1  UNL     1      31.734  26.693  19.055  1.00  0.00     0.005 C 
ENDBRANCH  15  16
ENDBRANCH  12  15
ENDBRANCH  11  12
BRANCH  11  18
HETATM   18  C7  UNL     1      34.660  30.832  15.901  1.00  0.00    -0.017 C 
HETATM   19  C8  UNL     1      33.623  31.886  15.617  1.00  0.00     0.063 C 
HETATM   20  C9  UNL     1      36.020  31.403  15.703  1.00  0.00     0.063 C 
ENDBRANCH  11  18
ENDBRANCH  10  11
BRANCH  10  21
HETATM   21  C11 UNL     1      33.882  30.330  19.335  1.00  0.00     0.013 C 
BRANCH  21  22
HETATM   22  C12 UNL     1      32.408  30.378  19.295  1.00  0.00     0.010 C 
HETATM   23  C13 UNL     1      31.974  31.841  18.954  1.00  0.00     0.008 C 
HETATM   24  C14 UNL     1      30.625  31.733  18.312  1.00  0.00     0.001 C 
HETATM   25  C15 UNL     1      29.753  30.747  19.100  1.00  0.00     0.000 C 
HETATM   26  C16 UNL     1      30.290  30.773  20.506  1.00  0.00     0.001 C 
HETATM   27  C17 UNL     1      31.625  30.009  20.497  1.00  0.00     0.008 C 
ENDBRANCH  21  22
ENDBRANCH  10  21
ENDBRANCH   7  10
ENDBRANCH   5   6
BRANCH   5  28
HETATM   28  C20 UNL     1      38.881  27.328  18.323  1.00  0.00     0.199 C 
BRANCH  28  29
HETATM   29  O2  UNL     1      39.645  26.450  19.086  1.00  0.00    -0.398 OA
ATOM     30  H2  UNL     1      40.312  26.051  18.540  1.00  0.00     0.209 HD
ENDBRANCH  28  29
ENDBRANCH   5  28
ENDBRANCH   1   5
BRANCH   3  31
HETATM   31  C22 UNL     1      36.682  25.729  21.871  1.00  0.00     0.182 C 
BRANCH  31  32
HETATM   32  C23 UNL     1      36.596  24.326  21.553  1.00  0.00     0.259 C 
HETATM   33  O4  UNL     1      37.025  23.451  22.378  1.00  0.00    -0.269 OA
HETATM   34  N4  UNL     1      36.045  23.837  20.352  1.00  0.00    -0.266 N 
ATOM     35  H4  UNL     1      35.693  24.515  19.676  1.00  0.00     0.190 HD
BRANCH  34  36
HETATM   36  N5  UNL     1      35.951  22.478  20.028  1.00  0.00    -0.266 N 
HETATM   37  C24 UNL     1      35.129  22.014  18.988  1.00  0.00     0.269 C 
HETATM   38  O5  UNL     1      34.418  22.772  18.262  1.00  0.00    -0.269 OA
ATOM     39  H5  UNL     1      36.497  21.803  20.564  1.00  0.00     0.190 HD
BRANCH  37  40
HETATM   40  C25 UNL     1      35.065  20.556  18.699  1.00  0.00     0.318 A 
HETATM   41  C26 UNL     1      33.898  19.947  19.452  1.00  0.00     0.079 A 
HETATM   42  C27 UNL     1      33.096  19.148  18.482  1.00  0.00     0.149 A 
HETATM   43  C28 UNL     1      33.721  19.418  17.158  1.00  0.00     0.305 A 
HETATM   44  N6  UNL     1      34.871  20.243  17.316  1.00  0.00     0.105 N 
BRANCH  42  45
HETATM   45  O6  UNL     1      31.762  19.616  18.506  1.00  0.00    -0.394 OA
ATOM     46  H6  UNL     1      31.182  18.891  18.302  1.00  0.00     0.210 HD
ENDBRANCH  42  45
BRANCH  44  47
HETATM   47  C29 UNL     1      36.084  19.658  16.806  1.00  0.00     0.277 C 
BRANCH  47  48
HETATM   48  C30 UNL     1      35.874  18.714  15.647  1.00  0.00     0.006 C 
HETATM   49  C31 UNL     1      36.090  19.416  14.314  1.00  0.00     0.011 C 
HETATM   50  C32 UNL     1      36.966  17.649  15.738  1.00  0.00     0.011 C 
ENDBRANCH  47  48
ENDBRANCH  44  47
ENDBRANCH  37  40
ENDBRANCH  34  36
ENDBRANCH  31  32
BRANCH  31  51
HETATM   51  C33 UNL     1      35.521  26.341  22.605  1.00  0.00     0.013 C 
HETATM   52  C34 UNL     1      35.840  27.401  23.589  1.00  0.00     0.012 C 
BRANCH  51  53
HETATM   53  C35 UNL     1      34.465  26.810  21.598  1.00  0.00     0.002 C 
HETATM   54  C36 UNL     1      33.557  27.828  22.240  1.00  0.00     0.005 C 
ENDBRANCH  51  53
ENDBRANCH  31  51
ENDBRANCH   3  31
TORSDOF 21
ENDMDL
MODEL 4
REMARK VINA RESULT: -7.235872435      2.171      3.940
REMARK  21 active torsions:
REMARK  status: ('A' for Active; 'I' for Inactive)
REMARK    1  A    between atoms: C2_2  and  C3_3 
REMARK    2  A    between atoms: C3_3  and  C4_4 
REMARK    3  A    between atoms: C4_4  and  N1_7 
REMARK    4  A    between atoms: N1_7  and  C7_8 
REMARK    5  A    between atoms: N1_7  and  C10_11 
REMARK    6  A    between atoms: C10_11  and  C11_12 
REMARK    7  A    between atoms: C10_11  and  C18_19 
REMARK    8  A    between atoms: C11_12  and  C12_13 
REMARK       I    between atoms: C18_19  and  N2_21 
REMARK    9  A    between atoms: N2_21  and  C19_23 
REMARK   10  A    between atoms: C19_23  and  C20_24 
REMARK   11  A    between atoms: C19_23  and  C21_27 
REMARK   12  A    between atoms: C20_24  and  O2_25 
REMARK       I    between atoms: C21_27  and  N3_29 
REMARK   13  A    between atoms: N3_29  and  C22_31 
REMARK   14  A    between atoms: C22_31  and  C23_32 
REMARK   15  A    between atoms: C22_31  and  C33_51 
REMARK       I    between atoms: C23_32  and  N4_34 
REMARK   16  A    between atoms: N4_34  and  N5_36 
REMARK       I    between atoms: N5_36  and  C24_38 
REMARK   17  A    between atoms: C24_38  and  C25_40 
REMARK   18  A    between atoms: C27_42  and  O6_43 
REMARK   19  A    between atoms: N6_46  and  C29_47 
REMARK   20  A    between atoms: C29_47  and  C30_48 
REMARK   21  A    between atoms: C33_51  and  C35_53 
ROOT
HETATM    1  C21 UNL     1      27.666  29.692  18.573  1.00  0.00     0.243 C 
HETATM    2  O3  UNL     1      26.816  30.366  17.932  1.00  0.00    -0.271 OA
HETATM    3  N3  UNL     1      27.407  28.309  18.716  1.00  0.00    -0.346 N 
ATOM      4  H3  UNL     1      28.071  27.740  19.241  1.00  0.00     0.163 HD
ENDROOT
BRANCH   1   5
HETATM    5  C19 UNL     1      28.877  30.297  19.154  1.00  0.00     0.200 C 
BRANCH   5   6
HETATM    6  N2  UNL     1      29.875  29.205  19.385  1.00  0.00    -0.340 N 
HETATM    7  C18 UNL     1      31.216  29.510  19.504  1.00  0.00     0.268 C 
HETATM    8  O1  UNL     1      31.454  30.774  19.408  1.00  0.00    -0.266 OA
ATOM      9  H2  UNL     1      29.564  28.236  19.455  1.00  0.00     0.163 HD
BRANCH   7  10
HETATM   10  C10 UNL     1      32.437  28.642  19.724  1.00  0.00     0.100 C 
BRANCH  10  11
HETATM   11  N1  UNL     1      32.923  27.931  18.639  1.00  0.00    -0.342 N 
BRANCH  11  12
HETATM   12  C4  UNL     1      32.977  26.509  18.572  1.00  0.00     0.030 C 
HETATM   13  C5  UNL     1      31.934  25.972  17.557  1.00  0.00     0.038 C 
HETATM   14  C6  UNL     1      32.519  25.830  19.832  1.00  0.00     0.038 C 
BRANCH  12  15
HETATM   15  C3  UNL     1      34.329  25.992  18.215  1.00  0.00     0.030 C 
BRANCH  15  16
HETATM   16  C2  UNL     1      35.411  25.895  19.207  1.00  0.00    -0.002 C 
HETATM   17  C1  UNL     1      36.637  26.723  19.055  1.00  0.00     0.005 C 
ENDBRANCH  15  16
ENDBRANCH  12  15
ENDBRANCH  11  12
BRANCH  11  18
HETATM   18  C7  UNL     1      33.506  28.670  17.595  1.00  0.00    -0.017 C 
HETATM   19  C8  UNL     1      32.661  29.149  16.445  1.00  0.00     0.063 C 
HETATM   20  C9  UNL     1      34.592  29.653  17.861  1.00  0.00     0.063 C 
ENDBRANCH  11  18
ENDBRANCH  10  11
BRANCH  10  21
HETATM   21  C11 UNL     1      33.189  29.190  20.852  1.00  0.00     0.013 C 
BRANCH  21  22
HETATM   22  C12 UNL     1      34.417  28.616  21.436  1.00  0.00     0.010 C 
HETATM   23  C13 UNL     1      34.043  27.939  22.795  1.00  0.00     0.008 C 
HETATM   24  C14 UNL     1      35.073  26.876  23.025  1.00  0.00     0.001 C 
HETATM   25  C15 UNL     1      36.467  27.426  22.702  1.00  0.00     0.000 C 
HETATM   26  C16 UNL     1      36.371  28.913  22.919  1.00  0.00     0.001 C 
HETATM   27  C17 UNL     1      35.569  29.493  21.741  1.00  0.00     0.008 C 
ENDBRANCH  21  22
ENDBRANCH  10  21
ENDBRANCH   7  10
ENDBRANCH   5   6
BRANCH   5  28
HETATM   28  C20 UNL     1      28.474  30.876  20.501  1.00  0.00     0.199 C 
BRANCH  28  29
HETATM   29  O2  UNL     1      27.322  30.239  20.956  1.00  0.00    -0.398 OA
ATOM     30  H2  UNL     1      26.704  30.151  20.240  1.00  0.00     0.209 HD
ENDBRANCH  28  29
ENDBRANCH   5  28
ENDBRANCH   1   5
BRANCH   3  31
HETATM   31  C22 UNL     1      26.225  27.656  18.141  1.00  0.00     0.182 C 
BRANCH  31  32
HETATM   32  C23 UNL     1      25.086  27.952  18.973  1.00  0.00     0.259 C 
HETATM   33  O4  UNL     1      23.939  28.151  18.449  1.00  0.00    -0.269 OA
HETATM   34  N4  UNL     1      25.154  28.034  20.378  1.00  0.00    -0.266 N 
ATOM     35  H4  UNL     1      26.058  27.877  20.824  1.00  0.00     0.190 HD
BRANCH  34  36
HETATM   36  N5  UNL     1      24.057  28.317  21.202  1.00  0.00    -0.266 N 
HETATM   37  C24 UNL     1      23.693  29.633  21.532  1.00  0.00     0.269 C 
HETATM   38  O5  UNL     1      24.310  30.659  21.116  1.00  0.00    -0.269 OA
ATOM     39  H5  UNL     1      23.505  27.544  21.575  1.00  0.00     0.190 HD
BRANCH  37  40
HETATM   40  C25 UNL     1      22.523  29.868  22.420  1.00  0.00     0.318 A 
HETATM   41  C26 UNL     1      21.254  29.455  21.696  1.00  0.00     0.079 A 
HETATM   42  C27 UNL     1      20.484  28.557  22.603  1.00  0.00     0.149 A 
HETATM   43  C28 UNL     1      21.375  28.345  23.776  1.00  0.00     0.305 A 
HETATM   44  N6  UNL     1      22.559  29.125  23.642  1.00  0.00     0.105 N 
BRANCH  42  45
HETATM   45  O6  UNL     1      20.247  27.334  21.933  1.00  0.00    -0.394 OA
ATOM     46  H6  UNL     1      19.340  27.314  21.650  1.00  0.00     0.210 HD
ENDBRANCH  42  45
BRANCH  44  47
HETATM   47  C29 UNL     1      22.778  30.046  24.728  1.00  0.00     0.277 C 
BRANCH  47  48
HETATM   48  C30 UNL     1      21.568  30.264  25.605  1.00  0.00     0.006 C 
HETATM   49  C31 UNL     1      21.930  30.175  27.081  1.00  0.00     0.011 C 
HETATM   50  C32 UNL     1      21.109  31.703  25.376  1.00  0.00     0.011 C 
ENDBRANCH  47  48
ENDBRANCH  44  47
ENDBRANCH  37  40
ENDBRANCH  34  36
ENDBRANCH  31  32
BRANCH  31  51
HETATM   51  C33 UNL     1      26.541  26.205  17.898  1.00  0.00     0.013 C 
HETATM   52  C34 UNL     1      27.686  25.916  17.005  1.00  0.00     0.012 C 
BRANCH  51  53
HETATM   53  C35 UNL     1      26.677  25.476  19.239  1.00  0.00     0.002 C 
HETATM   54  C36 UNL     1      25.791  24.258  19.254  1.00  0.00     0.005 C 
ENDBRANCH  51  53
ENDBRANCH  31  51
ENDBRANCH   3  31
TORSDOF 21
ENDMDL
MODEL 5
REMARK VINA RESULT: -7.225895075      2.837      5.476
REMARK  21 active torsions:
REMARK  status: ('A' for Active; 'I' for Inactive)
REMARK    1  A    between atoms: C2_2  and  C3_3 
REMARK    2  A    between atoms: C3_3  and  C4_4 
REMARK    3  A    between atoms: C4_4  and  N1_7 
REMARK    4  A    between atoms: N1_7  and  C7_8 
REMARK    5  A    between atoms: N1_7  and  C10_11 
REMARK    6  A    between atoms: C10_11  and  C11_12 
REMARK    7  A    between atoms: C10_11  and  C18_19 
REMARK    8  A    between atoms: C11_12  and  C12_13 
REMARK       I    between atoms: C18_19  and  N2_21 
REMARK    9  A    between atoms: N2_21  and  C19_23 
REMARK   10  A    between atoms: C19_23  and  C20_24 
REMARK   11  A    between atoms: C19_23  and  C21_27 
REMARK   12  A    between atoms: C20_24  and  O2_25 
REMARK       I    between atoms: C21_27  and  N3_29 
REMARK   13  A    between atoms: N3_29  and  C22_31 
REMARK   14  A    between atoms: C22_31  and  C23_32 
REMARK   15  A    between atoms: C22_31  and  C33_51 
REMARK       I    between atoms: C23_32  and  N4_34 
REMARK   16  A    between atoms: N4_34  and  N5_36 
REMARK       I    between atoms: N5_36  and  C24_38 
REMARK   17  A    between atoms: C24_38  and  C25_40 
REMARK   18  A    between atoms: C27_42  and  O6_43 
REMARK   19  A    between atoms: N6_46  and  C29_47 
REMARK   20  A    between atoms: C29_47  and  C30_48 
REMARK   21  A    between atoms: C33_51  and  C35_53 
ROOT
HETATM    1  C21 UNL     1      30.608  29.548  18.472  1.00  0.00     0.243 C 
HETATM    2  O3  UNL     1      30.079  30.404  17.713  1.00  0.00    -0.271 OA
HETATM    3  N3  UNL     1      30.165  28.213  18.334  1.00  0.00    -0.346 N 
ATOM      4  H3  UNL     1      30.565  27.501  18.944  1.00  0.00     0.163 HD
ENDROOT
BRANCH   1   5
HETATM    5  C19 UNL     1      31.640  29.904  19.461  1.00  0.00     0.200 C 
BRANCH   5   6
HETATM    6  N2  UNL     1      32.234  28.633  19.986  1.00  0.00    -0.340 N 
HETATM    7  C18 UNL     1      33.530  28.290  19.656  1.00  0.00     0.268 C 
HETATM    8  O1  UNL     1      34.105  29.164  18.902  1.00  0.00    -0.266 OA
ATOM      9  H2  UNL     1      31.682  28.022  20.587  1.00  0.00     0.163 HD
BRANCH   7  10
HETATM   10  C10 UNL     1      34.383  27.091  20.014  1.00  0.00     0.100 C 
BRANCH  10  11
HETATM   11  N1  UNL     1      35.617  27.332  20.595  1.00  0.00    -0.342 N 
BRANCH  11  12
HETATM   12  C4  UNL     1      36.865  27.047  19.970  1.00  0.00     0.030 C 
HETATM   13  C5  UNL     1      37.868  28.207  20.205  1.00  0.00     0.038 C 
HETATM   14  C6  UNL     1      36.797  27.033  18.470  1.00  0.00     0.038 C 
BRANCH  12  15
HETATM   15  C3  UNL     1      37.471  25.766  20.434  1.00  0.00     0.030 C 
BRANCH  15  16
HETATM   16  C2  UNL     1      37.910  24.727  19.488  1.00  0.00    -0.002 C 
HETATM   17  C1  UNL     1      38.123  23.332  19.960  1.00  0.00     0.005 C 
ENDBRANCH  15  16
ENDBRANCH  12  15
ENDBRANCH  11  12
BRANCH  11  18
HETATM   18  C7  UNL     1      35.624  27.773  21.930  1.00  0.00    -0.017 C 
HETATM   19  C8  UNL     1      35.195  29.177  22.263  1.00  0.00     0.063 C 
HETATM   20  C9  UNL     1      35.254  26.858  23.045  1.00  0.00     0.063 C 
ENDBRANCH  11  18
ENDBRANCH  10  11
BRANCH  10  21
HETATM   21  C11 UNL     1      33.496  25.947  20.225  1.00  0.00     0.013 C 
BRANCH  21  22
HETATM   22  C12 UNL     1      33.653  24.608  19.626  1.00  0.00     0.010 C 
HETATM   23  C13 UNL     1      34.634  23.783  20.522  1.00  0.00     0.008 C 
HETATM   24  C14 UNL     1      34.288  22.342  20.296  1.00  0.00     0.001 C 
HETATM   25  C15 UNL     1      34.082  22.087  18.798  1.00  0.00     0.000 C 
HETATM   26  C16 UNL     1      34.912  23.129  18.097  1.00  0.00     0.001 C 
HETATM   27  C17 UNL     1      34.177  24.472  18.248  1.00  0.00     0.008 C 
ENDBRANCH  21  22
ENDBRANCH  10  21
ENDBRANCH   7  10
ENDBRANCH   5   6
BRANCH   5  28
HETATM   28  C20 UNL     1      30.927  30.611  20.603  1.00  0.00     0.199 C 
BRANCH  28  29
HETATM   29  O2  UNL     1      29.566  30.323  20.550  1.00  0.00    -0.398 OA
ATOM     30  H2  UNL     1      29.435  29.480  20.134  1.00  0.00     0.209 HD
ENDBRANCH  28  29
ENDBRANCH   5  28
ENDBRANCH   1   5
BRANCH   3  31
HETATM   31  C22 UNL     1      29.153  27.806  17.352  1.00  0.00     0.182 C 
BRANCH  31  32
HETATM   32  C23 UNL     1      27.870  27.753  18.008  1.00  0.00     0.259 C 
HETATM   33  O4  UNL     1      27.100  26.749  17.836  1.00  0.00    -0.269 OA
HETATM   34  N4  UNL     1      27.395  28.767  18.863  1.00  0.00    -0.266 N 
ATOM     35  H4  UNL     1      27.993  29.579  19.020  1.00  0.00     0.190 HD
BRANCH  34  36
HETATM   36  N5  UNL     1      26.154  28.729  19.511  1.00  0.00    -0.266 N 
HETATM   37  C24 UNL     1      25.901  29.465  20.681  1.00  0.00     0.269 C 
HETATM   38  O5  UNL     1      26.756  30.216  21.238  1.00  0.00    -0.269 OA
ATOM     39  H5  UNL     1      25.410  28.149  19.122  1.00  0.00     0.190 HD
BRANCH  37  40
HETATM   40  C25 UNL     1      24.564  29.375  21.327  1.00  0.00     0.318 A 
HETATM   41  C26 UNL     1      24.245  27.921  21.619  1.00  0.00     0.079 A 
HETATM   42  C27 UNL     1      23.822  27.824  23.045  1.00  0.00     0.149 A 
HETATM   43  C28 UNL     1      24.037  29.188  23.600  1.00  0.00     0.305 A 
HETATM   44  N6  UNL     1      24.470  30.075  22.572  1.00  0.00     0.105 N 
BRANCH  42  45
HETATM   45  O6  UNL     1      24.653  26.885  23.699  1.00  0.00    -0.394 OA
ATOM     46  H6  UNL     1      24.129  26.401  24.327  1.00  0.00     0.210 HD
ENDBRANCH  42  45
BRANCH  44  47
HETATM   47  C29 UNL     1      23.613  31.218  22.389  1.00  0.00     0.277 C 
BRANCH  47  48
HETATM   48  C30 UNL     1      22.264  31.091  23.052  1.00  0.00     0.006 C 
HETATM   49  C31 UNL     1      21.896  32.359  23.810  1.00  0.00     0.011 C 
HETATM   50  C32 UNL     1      21.230  30.959  21.935  1.00  0.00     0.011 C 
ENDBRANCH  47  48
ENDBRANCH  44  47
ENDBRANCH  37  40
ENDBRANCH  34  36
ENDBRANCH  31  32
BRANCH  31  51
HETATM   51  C33 UNL     1      29.624  26.558  16.657  1.00  0.00     0.013 C 
HETATM   52  C34 UNL     1      30.019  26.696  15.237  1.00  0.00     0.012 C 
BRANCH  51  53
HETATM   53  C35 UNL     1      30.730  25.894  17.486  1.00  0.00     0.002 C 
HETATM   54  C36 UNL     1      30.196  24.656  18.159  1.00  0.00     0.005 C 
ENDBRANCH  51  53
ENDBRANCH  31  51
ENDBRANCH   3  31
TORSDOF 21
ENDMDL
