MODEL 1
REMARK VINA RESULT: -6.534212823      0.000      0.000
REMARK  20 active torsions:
REMARK  status: ('A' for Active; 'I' for Inactive)
REMARK    1  A    between atoms: C2_2  and  C3_3 
REMARK    2  A    between atoms: C3_3  and  C5_5 
REMARK    3  A    between atoms: C5_5  and  N1_6 
REMARK    4  A    between atoms: C5_5  and  C13_19 
REMARK    5  A    between atoms: N1_6  and  C6_8 
REMARK    6  A    between atoms: C6_8  and  C8_10 
REMARK    7  A    between atoms: C8_10  and  N2_11 
REMARK    8  A    between atoms: C8_10  and  C10_16 
REMARK       I    between atoms: N2_11  and  C9_13 
REMARK       I    between atoms: C13_19  and  N4_21 
REMARK    9  A    between atoms: N4_21  and  C14_23 
REMARK   10  A    between atoms: C14_23  and  C16_25 
REMARK       I    between atoms: C16_25  and  N5_27 
REMARK   11  A    between atoms: N5_27  and  C17_29 
REMARK   12  A    between atoms: C17_29  and  C18_30 
REMARK   13  A    between atoms: C17_29  and  C29_49 
REMARK   14  A    between atoms: C18_30  and  O4_31 
REMARK   15  A    between atoms: C18_30  and  N6_33 
REMARK   16  A    between atoms: N6_33  and  C19_35 
REMARK   17  A    between atoms: C19_35  and  C20_36 
REMARK   18  A    between atoms: C19_35  and  C24_40 
REMARK   19  A    between atoms: C20_36  and  C21_37 
REMARK   20  A    between atoms: C24_40  and  C25_42 
ROOT
HETATM    1  C16 UNL     1      37.895  28.121  16.966  1.00  0.00     0.240 C 
HETATM    2  O3  UNL     1      39.027  27.723  16.617  1.00  0.00    -0.271 OA
HETATM    3  N5  UNL     1      37.426  27.913  18.267  1.00  0.00    -0.347 N 
ATOM      4  H5  UNL     1      36.497  28.281  18.470  1.00  0.00     0.163 HD
ENDROOT
BRANCH   3   5
HETATM    5  C17 UNL     1      38.103  27.232  19.372  1.00  0.00     0.163 C 
BRANCH   5   6
HETATM    6  C18 UNL     1      37.680  25.824  19.250  1.00  0.00     0.135 C 
BRANCH   6   7
HETATM    7  O4  UNL     1      38.559  24.996  18.723  1.00  0.00    -0.348 OA
ATOM      8  H4  UNL     1      38.251  24.116  18.542  1.00  0.00     0.219 HD
ENDBRANCH   6   7
BRANCH   6   9
HETATM    9  N6  UNL     1      36.486  25.201  19.592  1.00  0.00    -0.361 N 
ATOM     10  H6  UNL     1      35.832  24.937  18.854  1.00  0.00     0.162 HD
BRANCH   9  11
HETATM   11  C19 UNL     1      36.138  24.904  21.026  1.00  0.00     0.160 C 
BRANCH  11  12
HETATM   12  C20 UNL     1      34.643  25.066  21.082  1.00  0.00     0.037 C 
BRANCH  12  13
HETATM   13  C21 UNL     1      34.125  26.452  21.122  1.00  0.00    -0.020 C 
HETATM   14  C22 UNL     1      32.864  26.683  20.323  1.00  0.00     0.009 C 
HETATM   15  C23 UNL     1      33.803  26.808  22.569  1.00  0.00     0.009 C 
ENDBRANCH  12  13
ENDBRANCH  11  12
BRANCH  11  16
HETATM   16  C24 UNL     1      36.495  23.495  21.290  1.00  0.00     0.205 C 
HETATM   17  O5  UNL     1      37.475  23.273  22.063  1.00  0.00    -0.288 OA
BRANCH  16  18
HETATM   18  C25 UNL     1      35.819  22.325  20.742  1.00  0.00     0.122 A 
HETATM   19  N7  UNL     1      35.658  21.921  19.495  1.00  0.00    -0.351 N 
HETATM   20  C26 UNL     1      35.016  20.837  19.225  1.00  0.00     0.012 A 
ATOM     21  H7  UNL     1      36.049  22.476  18.734  1.00  0.00     0.166 HD
HETATM   22  C27 UNL     1      34.816  20.346  17.802  1.00  0.00     0.068 C 
HETATM   23  C28 UNL     1      34.505  20.118  20.277  1.00  0.00     0.076 A 
HETATM   24  S1  UNL     1      34.995  21.072  21.609  1.00  0.00    -0.079 SA
ENDBRANCH  16  18
ENDBRANCH  11  16
ENDBRANCH   9  11
ENDBRANCH   6   9
ENDBRANCH   5   6
BRANCH   5  25
HETATM   25  C29 UNL     1      37.947  27.791  20.710  1.00  0.00     0.016 C 
HETATM   26  C30 UNL     1      39.151  28.692  21.049  1.00  0.00     0.007 C 
HETATM   27  C31 UNL     1      39.165  28.780  22.554  1.00  0.00     0.000 C 
HETATM   28  C32 UNL     1      37.827  28.470  23.160  1.00  0.00     0.000 C 
HETATM   29  C33 UNL     1      36.646  28.956  22.396  1.00  0.00     0.000 C 
HETATM   30  C34 UNL     1      36.762  28.721  20.910  1.00  0.00     0.007 C 
ENDBRANCH   5  25
ENDBRANCH   3   5
BRANCH   1  31
HETATM   31  C14 UNL     1      37.099  28.820  15.919  1.00  0.00     0.172 C 
HETATM   32  C15 UNL     1      37.184  27.881  14.683  1.00  0.00     0.042 C 
BRANCH  31  33
HETATM   33  N4  UNL     1      35.701  28.830  16.291  1.00  0.00    -0.346 N 
HETATM   34  C13 UNL     1      35.130  29.826  17.119  1.00  0.00     0.241 C 
HETATM   35  O2  UNL     1      35.914  30.720  17.514  1.00  0.00    -0.271 OA
ATOM     36  H4  UNL     1      35.099  28.085  15.940  1.00  0.00     0.163 HD
BRANCH  34  37
HETATM   37  C5  UNL     1      33.693  29.762  17.458  1.00  0.00     0.173 C 
BRANCH  37  38
HETATM   38  C3  UNL     1      33.378  31.015  18.252  1.00  0.00     0.013 C 
HETATM   39  C4  UNL     1      33.042  30.726  19.698  1.00  0.00     0.012 C 
BRANCH  38  40
HETATM   40  C2  UNL     1      32.092  31.658  17.690  1.00  0.00     0.002 C 
HETATM   41  C1  UNL     1      31.114  31.924  18.797  1.00  0.00     0.005 C 
ENDBRANCH  38  40
ENDBRANCH  37  38
BRANCH  37  42
HETATM   42  N1  UNL     1      32.822  29.476  16.415  1.00  0.00    -0.403 N 
ATOM     43  H1  UNL     1      32.715  30.215  15.720  1.00  0.00     0.154 HD
BRANCH  42  44
HETATM   44  C6  UNL     1      32.089  28.347  16.185  1.00  0.00     0.096 C 
HETATM   45  C7  UNL     1      31.199  27.740  17.208  1.00  0.00     0.034 C 
BRANCH  44  46
HETATM   46  C8  UNL     1      32.935  27.203  15.621  1.00  0.00     0.111 C 
BRANCH  46  47
HETATM   47  N2  UNL     1      32.826  26.000  16.430  1.00  0.00    -0.338 N 
HETATM   48  C9  UNL     1      33.999  25.473  17.016  1.00  0.00     0.329 C 
HETATM   49  N3  UNL     1      33.923  24.298  17.813  1.00  0.00    -0.040 NA
HETATM   50  O1  UNL     1      35.112  26.028  16.842  1.00  0.00    -0.251 OA
ATOM     51  H2  UNL     1      31.924  25.546  16.571  1.00  0.00     0.164 HD
ENDBRANCH  46  47
BRANCH  46  52
HETATM   52  C10 UNL     1      32.657  26.807  14.226  1.00  0.00     0.002 C 
HETATM   53  C11 UNL     1      32.269  27.889  13.257  1.00  0.00     0.011 C 
HETATM   54  C12 UNL     1      31.671  25.690  14.041  1.00  0.00     0.011 C 
ENDBRANCH  46  52
ENDBRANCH  44  46
ENDBRANCH  42  44
ENDBRANCH  37  42
ENDBRANCH  34  37
ENDBRANCH  31  33
ENDBRANCH   1  31
TORSDOF 20
ENDMDL
MODEL 2
REMARK VINA RESULT: -6.240363398      2.327      3.749
REMARK  20 active torsions:
REMARK  status: ('A' for Active; 'I' for Inactive)
REMARK    1  A    between atoms: C2_2  and  C3_3 
REMARK    2  A    between atoms: C3_3  and  C5_5 
REMARK    3  A    between atoms: C5_5  and  N1_6 
REMARK    4  A    between atoms: C5_5  and  C13_19 
REMARK    5  A    between atoms: N1_6  and  C6_8 
REMARK    6  A    between atoms: C6_8  and  C8_10 
REMARK    7  A    between atoms: C8_10  and  N2_11 
REMARK    8  A    between atoms: C8_10  and  C10_16 
REMARK       I    between atoms: N2_11  and  C9_13 
REMARK       I    between atoms: C13_19  and  N4_21 
REMARK    9  A    between atoms: N4_21  and  C14_23 
REMARK   10  A    between atoms: C14_23  and  C16_25 
REMARK       I    between atoms: C16_25  and  N5_27 
REMARK   11  A    between atoms: N5_27  and  C17_29 
REMARK   12  A    between atoms: C17_29  and  C18_30 
REMARK   13  A    between atoms: C17_29  and  C29_49 
REMARK   14  A    between atoms: C18_30  and  O4_31 
REMARK   15  A    between atoms: C18_30  and  N6_33 
REMARK   16  A    between atoms: N6_33  and  C19_35 
REMARK   17  A    between atoms: C19_35  and  C20_36 
REMARK   18  A    between atoms: C19_35  and  C24_40 
REMARK   19  A    between atoms: C20_36  and  C21_37 
REMARK   20  A    between atoms: C24_40  and  C25_42 
ROOT
HETATM    1  C16 UNL     1      37.799  28.160  16.994  1.00  0.00     0.240 C 
HETATM    2  O3  UNL     1      38.952  27.740  16.759  1.00  0.00    -0.271 OA
HETATM    3  N5  UNL     1      37.221  28.013  18.260  1.00  0.00    -0.347 N 
ATOM      4  H5  UNL     1      36.282  28.395  18.369  1.00  0.00     0.163 HD
ENDROOT
BRANCH   3   5
HETATM    5  C17 UNL     1      37.798  27.378  19.447  1.00  0.00     0.163 C 
BRANCH   5   6
HETATM    6  C18 UNL     1      37.556  25.937  19.246  1.00  0.00     0.135 C 
BRANCH   6   7
HETATM    7  O4  UNL     1      38.528  25.259  18.670  1.00  0.00    -0.348 OA
ATOM      8  H4  UNL     1      39.276  25.052  19.217  1.00  0.00     0.219 HD
ENDBRANCH   6   7
BRANCH   6   9
HETATM    9  N6  UNL     1      36.456  25.148  19.556  1.00  0.00    -0.361 N 
ATOM     10  H6  UNL     1      35.866  24.795  18.801  1.00  0.00     0.162 HD
BRANCH   9  11
HETATM   11  C19 UNL     1      36.114  24.801  20.980  1.00  0.00     0.160 C 
BRANCH  11  12
HETATM   12  C20 UNL     1      34.612  24.881  21.028  1.00  0.00     0.037 C 
BRANCH  12  13
HETATM   13  C21 UNL     1      33.976  25.942  20.216  1.00  0.00    -0.020 C 
HETATM   14  C22 UNL     1      32.891  25.463  19.279  1.00  0.00     0.009 C 
HETATM   15  C23 UNL     1      33.331  26.952  21.158  1.00  0.00     0.009 C 
ENDBRANCH  12  13
ENDBRANCH  11  12
BRANCH  11  16
HETATM   16  C24 UNL     1      36.545  23.407  21.215  1.00  0.00     0.205 C 
HETATM   17  O5  UNL     1      37.602  23.227  21.893  1.00  0.00    -0.288 OA
BRANCH  16  18
HETATM   18  C25 UNL     1      35.863  22.209  20.740  1.00  0.00     0.122 A 
HETATM   19  N7  UNL     1      35.709  21.726  19.521  1.00  0.00    -0.351 N 
HETATM   20  C26 UNL     1      35.059  20.632  19.318  1.00  0.00     0.012 A 
ATOM     21  H7  UNL     1      36.110  22.226  18.729  1.00  0.00     0.166 HD
HETATM   22  C27 UNL     1      34.866  20.050  17.928  1.00  0.00     0.068 C 
HETATM   23  C28 UNL     1      34.533  19.988  20.410  1.00  0.00     0.076 A 
HETATM   24  S1  UNL     1      35.021  21.024  21.681  1.00  0.00    -0.079 SA
ENDBRANCH  16  18
ENDBRANCH  11  16
ENDBRANCH   9  11
ENDBRANCH   6   9
ENDBRANCH   5   6
BRANCH   5  25
HETATM   25  C29 UNL     1      37.384  27.879  20.752  1.00  0.00     0.016 C 
HETATM   26  C30 UNL     1      38.584  28.522  21.476  1.00  0.00     0.007 C 
HETATM   27  C31 UNL     1      38.210  28.519  22.936  1.00  0.00     0.000 C 
HETATM   28  C32 UNL     1      36.727  28.428  23.149  1.00  0.00     0.000 C 
HETATM   29  C33 UNL     1      35.889  29.167  22.166  1.00  0.00     0.000 C 
HETATM   30  C34 UNL     1      36.357  29.000  20.741  1.00  0.00     0.007 C 
ENDBRANCH   5  25
ENDBRANCH   3   5
BRANCH   1  31
HETATM   31  C14 UNL     1      37.098  28.816  15.855  1.00  0.00     0.172 C 
HETATM   32  C15 UNL     1      37.119  27.747  14.726  1.00  0.00     0.042 C 
BRANCH  31  33
HETATM   33  N4  UNL     1      35.700  28.998  16.178  1.00  0.00    -0.346 N 
HETATM   34  C13 UNL     1      35.159  30.238  16.593  1.00  0.00     0.241 C 
HETATM   35  O2  UNL     1      35.971  31.190  16.661  1.00  0.00    -0.271 OA
ATOM     36  H4  UNL     1      35.075  28.195  16.102  1.00  0.00     0.163 HD
BRANCH  34  37
HETATM   37  C5  UNL     1      33.720  30.341  16.910  1.00  0.00     0.173 C 
BRANCH  37  38
HETATM   38  C3  UNL     1      33.531  29.718  18.280  1.00  0.00     0.013 C 
HETATM   39  C4  UNL     1      32.209  28.997  18.421  1.00  0.00     0.012 C 
BRANCH  38  40
HETATM   40  C2  UNL     1      33.461  30.841  19.338  1.00  0.00     0.002 C 
HETATM   41  C1  UNL     1      32.216  30.702  20.165  1.00  0.00     0.005 C 
ENDBRANCH  38  40
ENDBRANCH  37  38
BRANCH  37  42
HETATM   42  N1  UNL     1      33.133  31.586  16.729  1.00  0.00    -0.403 N 
ATOM     43  H1  UNL     1      33.628  32.369  17.155  1.00  0.00     0.154 HD
BRANCH  42  44
HETATM   44  C6  UNL     1      31.987  31.914  16.062  1.00  0.00     0.096 C 
HETATM   45  C7  UNL     1      31.077  30.899  15.473  1.00  0.00     0.034 C 
BRANCH  44  46
HETATM   46  C8  UNL     1      32.223  32.961  14.971  1.00  0.00     0.111 C 
BRANCH  46  47
HETATM   47  N2  UNL     1      31.795  34.286  15.390  1.00  0.00    -0.338 N 
HETATM   48  C9  UNL     1      30.513  34.736  14.999  1.00  0.00     0.329 C 
HETATM   49  N3  UNL     1      30.068  36.027  15.396  1.00  0.00    -0.040 NA
HETATM   50  O1  UNL     1      29.760  34.011  14.305  1.00  0.00    -0.251 OA
ATOM     51  H2  UNL     1      32.406  34.878  15.953  1.00  0.00     0.164 HD
ENDBRANCH  46  47
BRANCH  46  52
HETATM   52  C10 UNL     1      33.608  33.095  14.479  1.00  0.00     0.002 C 
HETATM   53  C11 UNL     1      34.099  34.474  14.140  1.00  0.00     0.011 C 
HETATM   54  C12 UNL     1      33.988  32.208  13.328  1.00  0.00     0.011 C 
ENDBRANCH  46  52
ENDBRANCH  44  46
ENDBRANCH  42  44
ENDBRANCH  37  42
ENDBRANCH  34  37
ENDBRANCH  31  33
ENDBRANCH   1  31
TORSDOF 20
ENDMDL
MODEL 3
REMARK VINA RESULT: -6.231846929      1.431      1.932
REMARK  20 active torsions:
REMARK  status: ('A' for Active; 'I' for Inactive)
REMARK    1  A    between atoms: C2_2  and  C3_3 
REMARK    2  A    between atoms: C3_3  and  C5_5 
REMARK    3  A    between atoms: C5_5  and  N1_6 
REMARK    4  A    between atoms: C5_5  and  C13_19 
REMARK    5  A    between atoms: N1_6  and  C6_8 
REMARK    6  A    between atoms: C6_8  and  C8_10 
REMARK    7  A    between atoms: C8_10  and  N2_11 
REMARK    8  A    between atoms: C8_10  and  C10_16 
REMARK       I    between atoms: N2_11  and  C9_13 
REMARK       I    between atoms: C13_19  and  N4_21 
REMARK    9  A    between atoms: N4_21  and  C14_23 
REMARK   10  A    between atoms: C14_23  and  C16_25 
REMARK       I    between atoms: C16_25  and  N5_27 
REMARK   11  A    between atoms: N5_27  and  C17_29 
REMARK   12  A    between atoms: C17_29  and  C18_30 
REMARK   13  A    between atoms: C17_29  and  C29_49 
REMARK   14  A    between atoms: C18_30  and  O4_31 
REMARK   15  A    between atoms: C18_30  and  N6_33 
REMARK   16  A    between atoms: N6_33  and  C19_35 
REMARK   17  A    between atoms: C19_35  and  C20_36 
REMARK   18  A    between atoms: C19_35  and  C24_40 
REMARK   19  A    between atoms: C20_36  and  C21_37 
REMARK   20  A    between atoms: C24_40  and  C25_42 
ROOT
HETATM    1  C16 UNL     1      37.880  28.143  17.027  1.00  0.00     0.240 C 
HETATM    2  O3  UNL     1      39.033  27.729  16.785  1.00  0.00    -0.271 OA
HETATM    3  N5  UNL     1      37.335  28.053  18.312  1.00  0.00    -0.347 N 
ATOM      4  H5  UNL     1      36.392  28.426  18.424  1.00  0.00     0.163 HD
ENDROOT
BRANCH   3   5
HETATM    5  C17 UNL     1      37.950  27.490  19.516  1.00  0.00     0.163 C 
BRANCH   5   6
HETATM    6  C18 UNL     1      37.900  26.031  19.304  1.00  0.00     0.135 C 
BRANCH   6   7
HETATM    7  O4  UNL     1      38.968  25.485  18.761  1.00  0.00    -0.348 OA
ATOM      8  H4  UNL     1      39.367  24.771  19.244  1.00  0.00     0.219 HD
ENDBRANCH   6   7
BRANCH   6   9
HETATM    9  N6  UNL     1      36.898  25.107  19.576  1.00  0.00    -0.361 N 
ATOM     10  H6  UNL     1      36.449  24.616  18.802  1.00  0.00     0.162 HD
BRANCH   9  11
HETATM   11  C19 UNL     1      36.461  24.814  20.986  1.00  0.00     0.160 C 
BRANCH  11  12
HETATM   12  C20 UNL     1      34.976  25.051  20.968  1.00  0.00     0.037 C 
BRANCH  12  13
HETATM   13  C21 UNL     1      34.375  25.407  19.664  1.00  0.00    -0.020 C 
HETATM   14  C22 UNL     1      33.383  24.403  19.124  1.00  0.00     0.009 C 
HETATM   15  C23 UNL     1      33.628  26.727  19.818  1.00  0.00     0.009 C 
ENDBRANCH  12  13
ENDBRANCH  11  12
BRANCH  11  16
HETATM   16  C24 UNL     1      36.733  23.385  21.250  1.00  0.00     0.205 C 
HETATM   17  O5  UNL     1      37.717  23.104  22.000  1.00  0.00    -0.288 OA
BRANCH  16  18
HETATM   18  C25 UNL     1      35.970  22.259  20.727  1.00  0.00     0.122 A 
HETATM   19  N7  UNL     1      35.821  21.810  19.494  1.00  0.00    -0.351 N 
HETATM   20  C26 UNL     1      35.088  20.780  19.245  1.00  0.00     0.012 A 
ATOM     21  H7  UNL     1      36.295  22.287  18.726  1.00  0.00     0.166 HD
HETATM   22  C27 UNL     1      34.899  20.240  17.838  1.00  0.00     0.068 C 
HETATM   23  C28 UNL     1      34.467  20.167  20.305  1.00  0.00     0.076 A 
HETATM   24  S1  UNL     1      34.993  21.136  21.612  1.00  0.00    -0.079 SA
ENDBRANCH  16  18
ENDBRANCH  11  16
ENDBRANCH   9  11
ENDBRANCH   6   9
ENDBRANCH   5   6
BRANCH   5  25
HETATM   25  C29 UNL     1      37.435  27.927  20.807  1.00  0.00     0.016 C 
HETATM   26  C30 UNL     1      38.563  28.581  21.632  1.00  0.00     0.007 C 
HETATM   27  C31 UNL     1      38.095  28.511  23.063  1.00  0.00     0.000 C 
HETATM   28  C32 UNL     1      36.606  28.362  23.174  1.00  0.00     0.000 C 
HETATM   29  C33 UNL     1      35.807  29.110  22.165  1.00  0.00     0.000 C 
HETATM   30  C34 UNL     1      36.371  29.013  20.769  1.00  0.00     0.007 C 
ENDBRANCH   5  25
ENDBRANCH   3   5
BRANCH   1  31
HETATM   31  C14 UNL     1      37.141  28.728  15.873  1.00  0.00     0.172 C 
HETATM   32  C15 UNL     1      37.246  27.644  14.763  1.00  0.00     0.042 C 
BRANCH  31  33
HETATM   33  N4  UNL     1      35.732  28.815  16.185  1.00  0.00    -0.346 N 
HETATM   34  C13 UNL     1      35.169  29.888  16.917  1.00  0.00     0.241 C 
HETATM   35  O2  UNL     1      35.972  30.779  17.281  1.00  0.00    -0.271 OA
ATOM     36  H4  UNL     1      35.115  28.070  15.862  1.00  0.00     0.163 HD
BRANCH  34  37
HETATM   37  C5  UNL     1      33.719  29.901  17.201  1.00  0.00     0.173 C 
BRANCH  37  38
HETATM   38  C3  UNL     1      33.480  31.021  18.194  1.00  0.00     0.013 C 
HETATM   39  C4  UNL     1      33.274  30.522  19.606  1.00  0.00     0.012 C 
BRANCH  38  40
HETATM   40  C2  UNL     1      32.151  31.727  17.847  1.00  0.00     0.002 C 
HETATM   41  C1  UNL     1      31.417  32.102  19.101  1.00  0.00     0.005 C 
ENDBRANCH  38  40
ENDBRANCH  37  38
BRANCH  37  42
HETATM   42  N1  UNL     1      32.872  29.882  16.100  1.00  0.00    -0.403 N 
ATOM     43  H1  UNL     1      32.707  30.787  15.660  1.00  0.00     0.154 HD
BRANCH  42  44
HETATM   44  C6  UNL     1      32.229  28.825  15.521  1.00  0.00     0.096 C 
HETATM   45  C7  UNL     1      31.141  28.991  14.523  1.00  0.00     0.034 C 
BRANCH  44  46
HETATM   46  C8  UNL     1      31.714  27.817  16.551  1.00  0.00     0.111 C 
BRANCH  46  47
HETATM   47  N2  UNL     1      30.263  27.822  16.635  1.00  0.00    -0.338 N 
HETATM   48  C9  UNL     1      29.657  28.308  17.816  1.00  0.00     0.329 C 
HETATM   49  N3  UNL     1      28.239  28.326  17.925  1.00  0.00    -0.040 NA
HETATM   50  O1  UNL     1      30.354  28.726  18.773  1.00  0.00    -0.251 OA
ATOM     51  H2  UNL     1      29.694  27.481  15.859  1.00  0.00     0.164 HD
ENDBRANCH  46  47
BRANCH  46  52
HETATM   52  C10 UNL     1      32.127  26.412  16.357  1.00  0.00     0.002 C 
HETATM   53  C11 UNL     1      33.478  26.159  15.751  1.00  0.00     0.011 C 
HETATM   54  C12 UNL     1      31.154  25.534  15.623  1.00  0.00     0.011 C 
ENDBRANCH  46  52
ENDBRANCH  44  46
ENDBRANCH  42  44
ENDBRANCH  37  42
ENDBRANCH  34  37
ENDBRANCH  31  33
ENDBRANCH   1  31
TORSDOF 20
ENDMDL
MODEL 4
REMARK VINA RESULT: -6.196527684      1.353      3.654
REMARK  20 active torsions:
REMARK  status: ('A' for Active; 'I' for Inactive)
REMARK    1  A    between atoms: C2_2  and  C3_3 
REMARK    2  A    between atoms: C3_3  and  C5_5 
REMARK    3  A    between atoms: C5_5  and  N1_6 
REMARK    4  A    between atoms: C5_5  and  C13_19 
REMARK    5  A    between atoms: N1_6  and  C6_8 
REMARK    6  A    between atoms: C6_8  and  C8_10 
REMARK    7  A    between atoms: C8_10  and  N2_11 
REMARK    8  A    between atoms: C8_10  and  C10_16 
REMARK       I    between atoms: N2_11  and  C9_13 
REMARK       I    between atoms: C13_19  and  N4_21 
REMARK    9  A    between atoms: N4_21  and  C14_23 
REMARK   10  A    between atoms: C14_23  and  C16_25 
REMARK       I    between atoms: C16_25  and  N5_27 
REMARK   11  A    between atoms: N5_27  and  C17_29 
REMARK   12  A    between atoms: C17_29  and  C18_30 
REMARK   13  A    between atoms: C17_29  and  C29_49 
REMARK   14  A    between atoms: C18_30  and  O4_31 
REMARK   15  A    between atoms: C18_30  and  N6_33 
REMARK   16  A    between atoms: N6_33  and  C19_35 
REMARK   17  A    between atoms: C19_35  and  C20_36 
REMARK   18  A    between atoms: C19_35  and  C24_40 
REMARK   19  A    between atoms: C20_36  and  C21_37 
REMARK   20  A    between atoms: C24_40  and  C25_42 
ROOT
HETATM    1  C16 UNL     1      37.845  28.045  16.916  1.00  0.00     0.240 C 
HETATM    2  O3  UNL     1      39.010  27.682  16.648  1.00  0.00    -0.271 OA
HETATM    3  N5  UNL     1      37.333  27.931  18.212  1.00  0.00    -0.347 N 
ATOM      4  H5  UNL     1      36.378  28.263  18.346  1.00  0.00     0.163 HD
ENDROOT
BRANCH   3   5
HETATM    5  C17 UNL     1      37.999  27.395  19.401  1.00  0.00     0.163 C 
BRANCH   5   6
HETATM    6  C18 UNL     1      37.869  25.932  19.265  1.00  0.00     0.135 C 
BRANCH   6   7
HETATM    7  O4  UNL     1      38.951  25.285  18.884  1.00  0.00    -0.348 OA
ATOM      8  H4  UNL     1      39.676  25.282  19.498  1.00  0.00     0.219 HD
ENDBRANCH   6   7
BRANCH   6   9
HETATM    9  N6  UNL     1      36.778  25.094  19.465  1.00  0.00    -0.361 N 
ATOM     10  H6  UNL     1      36.343  24.642  18.660  1.00  0.00     0.162 HD
BRANCH   9  11
HETATM   11  C19 UNL     1      36.226  24.837  20.841  1.00  0.00     0.160 C 
BRANCH  11  12
HETATM   12  C20 UNL     1      34.737  24.969  20.671  1.00  0.00     0.037 C 
BRANCH  12  13
HETATM   13  C21 UNL     1      34.169  26.328  20.810  1.00  0.00    -0.020 C 
HETATM   14  C22 UNL     1      32.910  26.577  20.012  1.00  0.00     0.009 C 
HETATM   15  C23 UNL     1      33.816  26.559  22.275  1.00  0.00     0.009 C 
ENDBRANCH  12  13
ENDBRANCH  11  12
BRANCH  11  16
HETATM   16  C24 UNL     1      36.563  23.445  21.205  1.00  0.00     0.205 C 
HETATM   17  O5  UNL     1      37.543  23.264  21.990  1.00  0.00    -0.288 OA
BRANCH  16  18
HETATM   18  C25 UNL     1      35.868  22.249  20.745  1.00  0.00     0.122 A 
HETATM   19  N7  UNL     1      35.700  21.757  19.530  1.00  0.00    -0.351 N 
HETATM   20  C26 UNL     1      35.041  20.667  19.340  1.00  0.00     0.012 A 
ATOM     21  H7  UNL     1      36.098  22.249  18.731  1.00  0.00     0.166 HD
HETATM   22  C27 UNL     1      34.831  20.077  17.956  1.00  0.00     0.068 C 
HETATM   23  C28 UNL     1      34.519  20.035  20.442  1.00  0.00     0.076 A 
HETATM   24  S1  UNL     1      35.026  21.077  21.701  1.00  0.00    -0.079 SA
ENDBRANCH  16  18
ENDBRANCH  11  16
ENDBRANCH   9  11
ENDBRANCH   6   9
ENDBRANCH   5   6
BRANCH   5  25
HETATM   25  C29 UNL     1      37.588  27.915  20.700  1.00  0.00     0.016 C 
HETATM   26  C30 UNL     1      38.794  28.555  21.417  1.00  0.00     0.007 C 
HETATM   27  C31 UNL     1      38.420  28.573  22.877  1.00  0.00     0.000 C 
HETATM   28  C32 UNL     1      36.936  28.498  23.090  1.00  0.00     0.000 C 
HETATM   29  C33 UNL     1      36.105  29.233  22.098  1.00  0.00     0.000 C 
HETATM   30  C34 UNL     1      36.572  29.045  20.675  1.00  0.00     0.007 C 
ENDBRANCH   5  25
ENDBRANCH   3   5
BRANCH   1  31
HETATM   31  C14 UNL     1      37.057  28.598  15.779  1.00  0.00     0.172 C 
HETATM   32  C15 UNL     1      37.621  27.864  14.530  1.00  0.00     0.042 C 
BRANCH  31  33
HETATM   33  N4  UNL     1      35.680  28.169  15.881  1.00  0.00    -0.346 N 
HETATM   34  C13 UNL     1      34.584  29.018  15.595  1.00  0.00     0.241 C 
HETATM   35  O2  UNL     1      34.877  30.181  15.234  1.00  0.00    -0.271 OA
ATOM     36  H4  UNL     1      35.490  27.211  16.173  1.00  0.00     0.163 HD
BRANCH  34  37
HETATM   37  C5  UNL     1      33.205  28.505  15.729  1.00  0.00     0.173 C 
BRANCH  37  38
HETATM   38  C3  UNL     1      33.209  27.095  15.172  1.00  0.00     0.013 C 
HETATM   39  C4  UNL     1      32.237  26.911  14.028  1.00  0.00     0.012 C 
BRANCH  38  40
HETATM   40  C2  UNL     1      32.700  26.122  16.257  1.00  0.00     0.002 C 
HETATM   41  C1  UNL     1      33.786  25.165  16.652  1.00  0.00     0.005 C 
ENDBRANCH  38  40
ENDBRANCH  37  38
BRANCH  37  42
HETATM   42  N1  UNL     1      32.605  28.659  16.972  1.00  0.00    -0.403 N 
ATOM     43  H1  UNL     1      32.925  28.014  17.695  1.00  0.00     0.154 HD
BRANCH  42  44
HETATM   44  C6  UNL     1      31.647  29.549  17.366  1.00  0.00     0.096 C 
HETATM   45  C7  UNL     1      30.283  29.581  16.778  1.00  0.00     0.034 C 
BRANCH  44  46
HETATM   46  C8  UNL     1      32.150  30.995  17.356  1.00  0.00     0.111 C 
BRANCH  46  47
HETATM   47  N2  UNL     1      31.175  31.904  16.776  1.00  0.00    -0.338 N 
HETATM   48  C9  UNL     1      31.602  32.798  15.769  1.00  0.00     0.329 C 
HETATM   49  N3  UNL     1      30.669  33.698  15.182  1.00  0.00    -0.040 NA
HETATM   50  O1  UNL     1      32.797  32.811  15.383  1.00  0.00    -0.251 OA
ATOM     51  H2  UNL     1      30.204  31.896  17.089  1.00  0.00     0.164 HD
ENDBRANCH  46  47
BRANCH  46  52
HETATM   52  C10 UNL     1      32.541  31.563  18.662  1.00  0.00     0.002 C 
HETATM   53  C11 UNL     1      33.543  30.801  19.482  1.00  0.00     0.011 C 
HETATM   54  C12 UNL     1      31.414  31.927  19.586  1.00  0.00     0.011 C 
ENDBRANCH  46  52
ENDBRANCH  44  46
ENDBRANCH  42  44
ENDBRANCH  37  42
ENDBRANCH  34  37
ENDBRANCH  31  33
ENDBRANCH   1  31
TORSDOF 20
ENDMDL
MODEL 5
REMARK VINA RESULT: -6.104456126      1.666      2.953
REMARK  20 active torsions:
REMARK  status: ('A' for Active; 'I' for Inactive)
REMARK    1  A    between atoms: C2_2  and  C3_3 
REMARK    2  A    between atoms: C3_3  and  C5_5 
REMARK    3  A    between atoms: C5_5  and  N1_6 
REMARK    4  A    between atoms: C5_5  and  C13_19 
REMARK    5  A    between atoms: N1_6  and  C6_8 
REMARK    6  A    between atoms: C6_8  and  C8_10 
REMARK    7  A    between atoms: C8_10  and  N2_11 
REMARK    8  A    between atoms: C8_10  and  C10_16 
REMARK       I    between atoms: N2_11  and  C9_13 
REMARK       I    between atoms: C13_19  and  N4_21 
REMARK    9  A    between atoms: N4_21  and  C14_23 
REMARK   10  A    between atoms: C14_23  and  C16_25 
REMARK       I    between atoms: C16_25  and  N5_27 
REMARK   11  A    between atoms: N5_27  and  C17_29 
REMARK   12  A    between atoms: C17_29  and  C18_30 
REMARK   13  A    between atoms: C17_29  and  C29_49 
REMARK   14  A    between atoms: C18_30  and  O4_31 
REMARK   15  A    between atoms: C18_30  and  N6_33 
REMARK   16  A    between atoms: N6_33  and  C19_35 
REMARK   17  A    between atoms: C19_35  and  C20_36 
REMARK   18  A    between atoms: C19_35  and  C24_40 
REMARK   19  A    between atoms: C20_36  and  C21_37 
REMARK   20  A    between atoms: C24_40  and  C25_42 
ROOT
HETATM    1  C16 UNL     1      37.758  28.106  17.038  1.00  0.00     0.240 C 
HETATM    2  O3  UNL     1      38.875  27.695  16.657  1.00  0.00    -0.271 OA
HETATM    3  N5  UNL     1      37.341  27.940  18.363  1.00  0.00    -0.347 N 
ATOM      4  H5  UNL     1      36.421  28.316  18.592  1.00  0.00     0.163 HD
ENDROOT
BRANCH   3   5
HETATM    5  C17 UNL     1      38.062  27.293  19.461  1.00  0.00     0.163 C 
BRANCH   5   6
HETATM    6  C18 UNL     1      37.772  25.856  19.294  1.00  0.00     0.135 C 
BRANCH   6   7
HETATM    7  O4  UNL     1      38.782  25.099  18.917  1.00  0.00    -0.348 OA
ATOM      8  H4  UNL     1      38.607  24.487  18.212  1.00  0.00     0.219 HD
ENDBRANCH   6   7
BRANCH   6   9
HETATM    9  N6  UNL     1      36.592  25.142  19.458  1.00  0.00    -0.361 N 
ATOM     10  H6  UNL     1      36.029  24.912  18.638  1.00  0.00     0.162 HD
BRANCH   9  11
HETATM   11  C19 UNL     1      36.125  24.698  20.819  1.00  0.00     0.160 C 
BRANCH  11  12
HETATM   12  C20 UNL     1      34.624  24.742  20.726  1.00  0.00     0.037 C 
BRANCH  12  13
HETATM   13  C21 UNL     1      33.995  26.081  20.752  1.00  0.00    -0.020 C 
HETATM   14  C22 UNL     1      32.640  26.161  20.087  1.00  0.00     0.009 C 
HETATM   15  C23 UNL     1      33.798  26.497  22.205  1.00  0.00     0.009 C 
ENDBRANCH  12  13
ENDBRANCH  11  12
BRANCH  11  16
HETATM   16  C24 UNL     1      36.570  23.302  21.010  1.00  0.00     0.205 C 
HETATM   17  O5  UNL     1      37.685  23.115  21.587  1.00  0.00    -0.288 OA
BRANCH  16  18
HETATM   18  C25 UNL     1      35.842  22.108  20.597  1.00  0.00     0.122 A 
HETATM   19  N7  UNL     1      35.651  21.580  19.402  1.00  0.00    -0.351 N 
HETATM   20  C26 UNL     1      34.963  20.500  19.255  1.00  0.00     0.012 A 
ATOM     21  H7  UNL     1      36.053  22.035  18.582  1.00  0.00     0.166 HD
HETATM   22  C27 UNL     1      34.726  19.869  17.894  1.00  0.00     0.068 C 
HETATM   23  C28 UNL     1      34.437  19.920  20.382  1.00  0.00     0.076 A 
HETATM   24  S1  UNL     1      34.981  20.991  21.600  1.00  0.00    -0.079 SA
ENDBRANCH  16  18
ENDBRANCH  11  16
ENDBRANCH   9  11
ENDBRANCH   6   9
ENDBRANCH   5   6
BRANCH   5  25
HETATM   25  C29 UNL     1      37.834  27.797  20.810  1.00  0.00     0.016 C 
HETATM   26  C30 UNL     1      39.008  28.700  21.241  1.00  0.00     0.007 C 
HETATM   27  C31 UNL     1      38.950  28.729  22.747  1.00  0.00     0.000 C 
HETATM   28  C32 UNL     1      37.590  28.378  23.276  1.00  0.00     0.000 C 
HETATM   29  C33 UNL     1      36.439  28.878  22.476  1.00  0.00     0.000 C 
HETATM   30  C34 UNL     1      36.627  28.703  20.989  1.00  0.00     0.007 C 
ENDBRANCH   5  25
ENDBRANCH   3   5
BRANCH   1  31
HETATM   31  C14 UNL     1      36.921  28.773  16.003  1.00  0.00     0.172 C 
HETATM   32  C15 UNL     1      36.876  27.752  14.830  1.00  0.00     0.042 C 
BRANCH  31  33
HETATM   33  N4  UNL     1      35.555  28.876  16.467  1.00  0.00    -0.346 N 
HETATM   34  C13 UNL     1      35.096  29.935  17.286  1.00  0.00     0.241 C 
HETATM   35  O2  UNL     1      35.951  30.800  17.586  1.00  0.00    -0.271 OA
ATOM     36  H4  UNL     1      34.892  28.151  16.192  1.00  0.00     0.163 HD
BRANCH  34  37
HETATM   37  C5  UNL     1      33.685  29.965  17.724  1.00  0.00     0.173 C 
BRANCH  37  38
HETATM   38  C3  UNL     1      33.658  30.689  19.055  1.00  0.00     0.013 C 
HETATM   39  C4  UNL     1      33.359  29.771  20.219  1.00  0.00     0.012 C 
BRANCH  38  40
HETATM   40  C2  UNL     1      32.486  31.694  19.059  1.00  0.00     0.002 C 
HETATM   41  C1  UNL     1      31.433  31.264  20.038  1.00  0.00     0.005 C 
ENDBRANCH  38  40
ENDBRANCH  37  38
BRANCH  37  42
HETATM   42  N1  UNL     1      32.754  30.394  16.786  1.00  0.00    -0.403 N 
ATOM     43  H1  UNL     1      32.928  31.317  16.389  1.00  0.00     0.154 HD
BRANCH  42  44
HETATM   44  C6  UNL     1      31.639  29.758  16.320  1.00  0.00     0.096 C 
HETATM   45  C7  UNL     1      31.540  29.208  14.943  1.00  0.00     0.034 C 
BRANCH  44  46
HETATM   46  C8  UNL     1      30.362  30.570  16.548  1.00  0.00     0.111 C 
BRANCH  46  47
HETATM   47  N2  UNL     1      29.884  31.184  15.320  1.00  0.00    -0.338 N 
HETATM   48  C9  UNL     1      30.357  32.472  14.981  1.00  0.00     0.329 C 
HETATM   49  N3  UNL     1      29.907  33.096  13.785  1.00  0.00    -0.040 NA
HETATM   50  O1  UNL     1      31.170  33.076  15.723  1.00  0.00    -0.251 OA
ATOM     51  H2  UNL     1      29.222  30.696  14.716  1.00  0.00     0.164 HD
ENDBRANCH  46  47
BRANCH  46  52
HETATM   52  C10 UNL     1      29.219  29.844  17.136  1.00  0.00     0.002 C 
HETATM   53  C11 UNL     1      29.503  28.543  17.833  1.00  0.00     0.011 C 
HETATM   54  C12 UNL     1      28.053  29.598  16.222  1.00  0.00     0.011 C 
ENDBRANCH  46  52
ENDBRANCH  44  46
ENDBRANCH  42  44
ENDBRANCH  37  42
ENDBRANCH  34  37
ENDBRANCH  31  33
ENDBRANCH   1  31
TORSDOF 20
ENDMDL
