MODEL 1
REMARK VINA RESULT: -8.686277761      0.000      0.000
REMARK  13 active torsions:
REMARK  status: ('A' for Active; 'I' for Inactive)
REMARK    1  A    between atoms: C2_2  and  C4_4 
REMARK    2  A    between atoms: C5_6  and  N1_7 
REMARK       I    between atoms: N1_7  and  C6_9 
REMARK    3  A    between atoms: C6_9  and  C7_11 
REMARK    4  A    between atoms: C7_11  and  C8_12 
REMARK    5  A    between atoms: C8_12  and  C9_13 
REMARK    6  A    between atoms: C9_13  and  C10_14 
REMARK    7  A    between atoms: C13_21  and  N4_22 
REMARK    8  A    between atoms: C16_31  and  C17_32 
REMARK    9  A    between atoms: C17_32  and  C18_33 
REMARK   10  A    between atoms: C18_33  and  O3_34 
REMARK   11  A    between atoms: O3_34  and  C19_35 
REMARK   12  A    between atoms: C19_35  and  C20_36 
REMARK   13  A    between atoms: C20_36  and  O4_37 
ROOT
HETATM    1  N1  UNL     1      17.581  19.188  21.466  1.00  0.00    -0.316 N 
ATOM      2  H1  UNL     1      17.169  18.285  21.233  1.00  0.00     0.170 HD
HETATM    3  C6  UNL     1      17.133  20.415  20.854  1.00  0.00     0.222 C 
HETATM    4  O1  UNL     1      17.555  20.707  19.741  1.00  0.00    -0.273 OA
ENDROOT
BRANCH   3   5
HETATM    5  C7  UNL     1      16.189  21.242  21.621  1.00  0.00     0.103 C 
BRANCH   5   6
HETATM    6  C8  UNL     1      14.891  20.619  21.936  1.00  0.00     0.014 C 
BRANCH   6   7
HETATM    7  C9  UNL     1      13.730  21.214  21.236  1.00  0.00     0.042 C 
BRANCH   7   8
HETATM    8  C10 UNL     1      12.556  21.285  22.142  1.00  0.00    -0.023 A 
HETATM    9  C11 UNL     1      11.593  20.345  22.439  1.00  0.00     0.098 A 
HETATM   10  N2  UNL     1      10.747  20.865  23.356  1.00  0.00    -0.350 N 
HETATM   11  C12 UNL     1      11.123  22.109  23.668  1.00  0.00     0.137 A 
ATOM     12  H2  UNL     1       9.942  20.381  23.752  1.00  0.00     0.166 HD
HETATM   13  N3  UNL     1      10.648  23.058  24.515  1.00  0.00    -0.176 N 
HETATM   14  C15 UNL     1      12.250  22.394  22.922  1.00  0.00     0.085 A 
HETATM   15  C13 UNL     1      11.288  24.243  24.604  1.00  0.00     0.680 A 
ATOM     16  H3  UNL     1       9.817  22.877  25.078  1.00  0.00     0.186 HD
HETATM   17  N5  UNL     1      12.373  24.535  23.895  1.00  0.00    -0.155 N 
HETATM   18  C14 UNL     1      12.883  23.609  23.030  1.00  0.00     0.274 A 
ATOM     19  H5  UNL     1      12.823  25.446  23.996  1.00  0.00     0.187 HD
HETATM   20  O2  UNL     1      13.914  23.902  22.364  1.00  0.00    -0.267 OA
BRANCH  15  21
HETATM   21  N4  UNL     1      10.812  25.111  25.423  1.00  0.00    -0.234 N 
ATOM     22  H42 UNL     1       9.992  25.657  25.158  1.00  0.00     0.174 HD
ATOM     23  H41 UNL     1      11.288  25.221  26.318  1.00  0.00     0.174 HD
ENDBRANCH  15  21
ENDBRANCH   7   8
ENDBRANCH   6   7
ENDBRANCH   5   6
ENDBRANCH   3   5
BRANCH   1  24
HETATM   24  C5  UNL     1      18.528  19.302  22.318  1.00  0.00     0.119 A 
HETATM   25  S1  UNL     1      18.352  19.128  23.995  1.00  0.00    -0.064 SA
HETATM   26  C4  UNL     1      19.888  19.330  24.768  1.00  0.00     0.025 A 
HETATM   27  C16 UNL     1      20.873  19.582  23.845  1.00  0.00     0.005 A 
HETATM   28  S2  UNL     1      20.196  19.598  22.271  1.00  0.00    -0.068 SA
BRANCH  26  29
HETATM   29  C2  UNL     1      19.954  19.247  26.219  1.00  0.00    -0.053 C 
HETATM   30  C1  UNL     1      20.615  20.051  27.008  1.00  0.00     0.020 C 
HETATM   31  C3  UNL     1      19.144  18.133  26.849  1.00  0.00     0.049 C 
ENDBRANCH  26  29
BRANCH  27  32
HETATM   32  C17 UNL     1      22.307  19.799  24.103  1.00  0.00     0.074 C 
BRANCH  32  33
HETATM   33  C18 UNL     1      23.037  18.491  24.394  1.00  0.00     0.172 C 
BRANCH  33  34
HETATM   34  O3  UNL     1      24.200  18.386  23.685  1.00  0.00    -0.389 OA
BRANCH  34  35
HETATM   35  C19 UNL     1      24.961  17.281  23.925  1.00  0.00     0.193 C 
BRANCH  35  36
HETATM   36  C20 UNL     1      25.834  16.804  22.820  1.00  0.00     0.190 C 
BRANCH  36  37
HETATM   37  O4  UNL     1      26.945  17.652  22.736  1.00  0.00    -0.399 OA
ATOM     38  H4  UNL     1      26.836  18.217  21.980  1.00  0.00     0.209 HD
ENDBRANCH  36  37
ENDBRANCH  35  36
ENDBRANCH  34  35
ENDBRANCH  33  34
ENDBRANCH  32  33
ENDBRANCH  27  32
ENDBRANCH   1  24
TORSDOF 13
ENDMDL
MODEL 2
REMARK VINA RESULT: -8.353283533      2.686      4.409
REMARK  13 active torsions:
REMARK  status: ('A' for Active; 'I' for Inactive)
REMARK    1  A    between atoms: C2_2  and  C4_4 
REMARK    2  A    between atoms: C5_6  and  N1_7 
REMARK       I    between atoms: N1_7  and  C6_9 
REMARK    3  A    between atoms: C6_9  and  C7_11 
REMARK    4  A    between atoms: C7_11  and  C8_12 
REMARK    5  A    between atoms: C8_12  and  C9_13 
REMARK    6  A    between atoms: C9_13  and  C10_14 
REMARK    7  A    between atoms: C13_21  and  N4_22 
REMARK    8  A    between atoms: C16_31  and  C17_32 
REMARK    9  A    between atoms: C17_32  and  C18_33 
REMARK   10  A    between atoms: C18_33  and  O3_34 
REMARK   11  A    between atoms: O3_34  and  C19_35 
REMARK   12  A    between atoms: C19_35  and  C20_36 
REMARK   13  A    between atoms: C20_36  and  O4_37 
ROOT
HETATM    1  N1  UNL     1      20.253  19.366  20.810  1.00  0.00    -0.316 N 
ATOM      2  H1  UNL     1      20.674  18.628  20.244  1.00  0.00     0.170 HD
HETATM    3  C6  UNL     1      19.905  20.651  20.256  1.00  0.00     0.222 C 
HETATM    4  O1  UNL     1      20.783  21.495  20.126  1.00  0.00    -0.273 OA
ENDROOT
BRANCH   3   5
HETATM    5  C7  UNL     1      18.497  20.862  19.883  1.00  0.00     0.103 C 
BRANCH   5   6
HETATM    6  C8  UNL     1      17.744  21.815  20.717  1.00  0.00     0.014 C 
BRANCH   6   7
HETATM    7  C9  UNL     1      16.354  22.066  20.271  1.00  0.00     0.042 C 
BRANCH   7   8
HETATM    8  C10 UNL     1      15.397  21.266  21.077  1.00  0.00    -0.023 A 
HETATM    9  C11 UNL     1      15.441  19.946  21.474  1.00  0.00     0.098 A 
HETATM   10  N2  UNL     1      14.353  19.685  22.231  1.00  0.00    -0.350 N 
HETATM   11  C12 UNL     1      13.601  20.784  22.343  1.00  0.00     0.137 A 
ATOM     12  H2  UNL     1      14.137  18.782  22.655  1.00  0.00     0.166 HD
HETATM   13  N3  UNL     1      12.438  21.075  22.981  1.00  0.00    -0.176 N 
HETATM   14  C15 UNL     1      14.232  21.784  21.631  1.00  0.00     0.085 A 
HETATM   15  C13 UNL     1      11.938  22.326  22.901  1.00  0.00     0.680 A 
ATOM     16  H3  UNL     1      11.949  20.357  23.515  1.00  0.00     0.186 HD
HETATM   17  N5  UNL     1      12.530  23.302  22.220  1.00  0.00    -0.155 N 
HETATM   18  C14 UNL     1      13.702  23.050  21.563  1.00  0.00     0.274 A 
ATOM     19  H5  UNL     1      12.113  24.232  22.188  1.00  0.00     0.187 HD
HETATM   20  O2  UNL     1      14.252  23.987  20.922  1.00  0.00    -0.267 OA
BRANCH  15  21
HETATM   21  N4  UNL     1      10.840  22.563  23.524  1.00  0.00    -0.234 N 
ATOM     22  H42 UNL     1      10.626  22.051  24.380  1.00  0.00     0.174 HD
ATOM     23  H41 UNL     1      10.216  23.264  23.124  1.00  0.00     0.174 HD
ENDBRANCH  15  21
ENDBRANCH   7   8
ENDBRANCH   6   7
ENDBRANCH   5   6
ENDBRANCH   3   5
BRANCH   1  24
HETATM   24  C5  UNL     1      20.003  19.207  22.054  1.00  0.00     0.119 A 
HETATM   25  S1  UNL     1      21.034  19.668  23.319  1.00  0.00    -0.064 SA
HETATM   26  C4  UNL     1      20.293  19.299  24.839  1.00  0.00     0.025 A 
HETATM   27  C16 UNL     1      19.058  18.726  24.659  1.00  0.00     0.005 A 
HETATM   28  S2  UNL     1      18.725  18.597  22.983  1.00  0.00    -0.068 SA
BRANCH  26  29
HETATM   29  C2  UNL     1      21.028  19.591  26.061  1.00  0.00    -0.053 C 
HETATM   30  C1  UNL     1      20.871  20.639  26.824  1.00  0.00     0.020 C 
HETATM   31  C3  UNL     1      22.041  18.546  26.481  1.00  0.00     0.049 C 
ENDBRANCH  26  29
BRANCH  27  32
HETATM   32  C17 UNL     1      18.115  18.283  25.700  1.00  0.00     0.074 C 
BRANCH  32  33
HETATM   33  C18 UNL     1      18.202  16.779  25.942  1.00  0.00     0.172 C 
BRANCH  33  34
HETATM   34  O3  UNL     1      17.009  16.155  25.712  1.00  0.00    -0.389 OA
BRANCH  34  35
HETATM   35  C19 UNL     1      16.854  15.568  24.492  1.00  0.00     0.193 C 
BRANCH  35  36
HETATM   36  C20 UNL     1      15.506  15.643  23.868  1.00  0.00     0.190 C 
BRANCH  36  37
HETATM   37  O4  UNL     1      15.325  16.935  23.359  1.00  0.00    -0.399 OA
ATOM     38  H4  UNL     1      15.049  16.866  22.453  1.00  0.00     0.209 HD
ENDBRANCH  36  37
ENDBRANCH  35  36
ENDBRANCH  34  35
ENDBRANCH  33  34
ENDBRANCH  32  33
ENDBRANCH  27  32
ENDBRANCH   1  24
TORSDOF 13
ENDMDL
MODEL 3
REMARK VINA RESULT: -8.184161719      1.808      2.812
REMARK  13 active torsions:
REMARK  status: ('A' for Active; 'I' for Inactive)
REMARK    1  A    between atoms: C2_2  and  C4_4 
REMARK    2  A    between atoms: C5_6  and  N1_7 
REMARK       I    between atoms: N1_7  and  C6_9 
REMARK    3  A    between atoms: C6_9  and  C7_11 
REMARK    4  A    between atoms: C7_11  and  C8_12 
REMARK    5  A    between atoms: C8_12  and  C9_13 
REMARK    6  A    between atoms: C9_13  and  C10_14 
REMARK    7  A    between atoms: C13_21  and  N4_22 
REMARK    8  A    between atoms: C16_31  and  C17_32 
REMARK    9  A    between atoms: C17_32  and  C18_33 
REMARK   10  A    between atoms: C18_33  and  O3_34 
REMARK   11  A    between atoms: O3_34  and  C19_35 
REMARK   12  A    between atoms: C19_35  and  C20_36 
REMARK   13  A    between atoms: C20_36  and  O4_37 
ROOT
HETATM    1  N1  UNL     1      17.431  20.870  19.598  1.00  0.00    -0.316 N 
ATOM      2  H1  UNL     1      18.040  20.814  18.781  1.00  0.00     0.170 HD
HETATM    3  C6  UNL     1      16.260  21.712  19.622  1.00  0.00     0.222 C 
HETATM    4  O1  UNL     1      16.397  22.906  19.862  1.00  0.00    -0.273 OA
ENDROOT
BRANCH   3   5
HETATM    5  C7  UNL     1      14.964  21.068  19.357  1.00  0.00     0.103 C 
BRANCH   5   6
HETATM    6  C8  UNL     1      13.861  21.440  20.260  1.00  0.00     0.014 C 
BRANCH   6   7
HETATM    7  C9  UNL     1      14.117  21.179  21.695  1.00  0.00     0.042 C 
BRANCH   7   8
HETATM    8  C10 UNL     1      12.847  21.202  22.464  1.00  0.00    -0.023 A 
HETATM    9  C11 UNL     1      11.949  20.195  22.745  1.00  0.00     0.098 A 
HETATM   10  N2  UNL     1      10.961  20.699  23.518  1.00  0.00    -0.350 N 
HETATM   11  C12 UNL     1      11.181  21.996  23.751  1.00  0.00     0.137 A 
ATOM     12  H2  UNL     1      10.165  20.167  23.871  1.00  0.00     0.166 HD
HETATM   13  N3  UNL     1      10.528  22.956  24.454  1.00  0.00    -0.176 N 
HETATM   14  C15 UNL     1      12.353  22.333  23.103  1.00  0.00     0.085 A 
HETATM   15  C13 UNL     1      11.040  24.204  24.499  1.00  0.00     0.680 A 
ATOM     16  H3  UNL     1       9.659  22.737  24.942  1.00  0.00     0.186 HD
HETATM   17  N5  UNL     1      12.166  24.548  23.883  1.00  0.00    -0.155 N 
HETATM   18  C14 UNL     1      12.854  23.611  23.164  1.00  0.00     0.274 A 
ATOM     19  H5  UNL     1      12.514  25.505  23.945  1.00  0.00     0.187 HD
HETATM   20  O2  UNL     1      13.921  23.954  22.584  1.00  0.00    -0.267 OA
BRANCH  15  21
HETATM   21  N4  UNL     1      10.396  25.082  25.181  1.00  0.00    -0.234 N 
ATOM     22  H42 UNL     1       9.389  24.980  25.310  1.00  0.00     0.174 HD
ATOM     23  H41 UNL     1      10.931  25.860  25.567  1.00  0.00     0.174 HD
ENDBRANCH  15  21
ENDBRANCH   7   8
ENDBRANCH   6   7
ENDBRANCH   5   6
ENDBRANCH   3   5
BRANCH   1  24
HETATM   24  C5  UNL     1      17.659  20.199  20.662  1.00  0.00     0.119 A 
HETATM   25  S1  UNL     1      17.203  18.584  20.909  1.00  0.00    -0.064 SA
HETATM   26  C4  UNL     1      17.735  18.059  22.470  1.00  0.00     0.025 A 
HETATM   27  C16 UNL     1      18.394  19.068  23.130  1.00  0.00     0.005 A 
HETATM   28  S2  UNL     1      18.435  20.468  22.144  1.00  0.00    -0.068 SA
BRANCH  26  29
HETATM   29  C2  UNL     1      17.419  16.704  22.895  1.00  0.00    -0.053 C 
HETATM   30  C1  UNL     1      16.268  16.287  23.350  1.00  0.00     0.020 C 
HETATM   31  C3  UNL     1      18.540  15.695  22.755  1.00  0.00     0.049 C 
ENDBRANCH  26  29
BRANCH  27  32
HETATM   32  C17 UNL     1      19.003  19.013  24.470  1.00  0.00     0.074 C 
BRANCH  32  33
HETATM   33  C18 UNL     1      20.138  20.023  24.620  1.00  0.00     0.172 C 
BRANCH  33  34
HETATM   34  O3  UNL     1      21.302  19.428  25.016  1.00  0.00    -0.389 OA
BRANCH  34  35
HETATM   35  C19 UNL     1      22.396  20.235  25.110  1.00  0.00     0.193 C 
BRANCH  35  36
HETATM   36  C20 UNL     1      23.631  19.789  24.414  1.00  0.00     0.190 C 
BRANCH  36  37
HETATM   37  O4  UNL     1      24.710  20.536  24.904  1.00  0.00    -0.399 OA
ATOM     38  H4  UNL     1      24.995  21.134  24.224  1.00  0.00     0.209 HD
ENDBRANCH  36  37
ENDBRANCH  35  36
ENDBRANCH  34  35
ENDBRANCH  33  34
ENDBRANCH  32  33
ENDBRANCH  27  32
ENDBRANCH   1  24
TORSDOF 13
ENDMDL
MODEL 4
REMARK VINA RESULT: -8.176013255      2.678      4.003
REMARK  13 active torsions:
REMARK  status: ('A' for Active; 'I' for Inactive)
REMARK    1  A    between atoms: C2_2  and  C4_4 
REMARK    2  A    between atoms: C5_6  and  N1_7 
REMARK       I    between atoms: N1_7  and  C6_9 
REMARK    3  A    between atoms: C6_9  and  C7_11 
REMARK    4  A    between atoms: C7_11  and  C8_12 
REMARK    5  A    between atoms: C8_12  and  C9_13 
REMARK    6  A    between atoms: C9_13  and  C10_14 
REMARK    7  A    between atoms: C13_21  and  N4_22 
REMARK    8  A    between atoms: C16_31  and  C17_32 
REMARK    9  A    between atoms: C17_32  and  C18_33 
REMARK   10  A    between atoms: C18_33  and  O3_34 
REMARK   11  A    between atoms: O3_34  and  C19_35 
REMARK   12  A    between atoms: C19_35  and  C20_36 
REMARK   13  A    between atoms: C20_36  and  O4_37 
ROOT
HETATM    1  N1  UNL     1      20.257  19.382  20.828  1.00  0.00    -0.316 N 
ATOM      2  H1  UNL     1      20.673  18.637  20.269  1.00  0.00     0.170 HD
HETATM    3  C6  UNL     1      19.922  20.666  20.263  1.00  0.00     0.222 C 
HETATM    4  O1  UNL     1      20.809  21.501  20.131  1.00  0.00    -0.273 OA
ENDROOT
BRANCH   3   5
HETATM    5  C7  UNL     1      18.518  20.887  19.884  1.00  0.00     0.103 C 
BRANCH   5   6
HETATM    6  C8  UNL     1      17.750  21.799  20.750  1.00  0.00     0.014 C 
BRANCH   6   7
HETATM    7  C9  UNL     1      16.370  22.077  20.290  1.00  0.00     0.042 C 
BRANCH   7   8
HETATM    8  C10 UNL     1      15.389  21.291  21.081  1.00  0.00    -0.023 A 
HETATM    9  C11 UNL     1      15.397  19.965  21.457  1.00  0.00     0.098 A 
HETATM   10  N2  UNL     1      14.299  19.721  22.208  1.00  0.00    -0.350 N 
HETATM   11  C12 UNL     1      13.578  20.839  22.335  1.00  0.00     0.137 A 
ATOM     12  H2  UNL     1      14.058  18.819  22.617  1.00  0.00     0.166 HD
HETATM   13  N3  UNL     1      12.422  21.151  22.975  1.00  0.00    -0.176 N 
HETATM   14  C15 UNL     1      14.238  21.832  21.640  1.00  0.00     0.085 A 
HETATM   15  C13 UNL     1      11.956  22.417  22.913  1.00  0.00     0.680 A 
ATOM     16  H3  UNL     1      11.911  20.439  23.496  1.00  0.00     0.186 HD
HETATM   17  N5  UNL     1      12.576  23.386  22.249  1.00  0.00    -0.155 N 
HETATM   18  C14 UNL     1      13.742  23.113  21.591  1.00  0.00     0.274 A 
ATOM     19  H5  UNL     1      12.185  24.328  22.230  1.00  0.00     0.187 HD
HETATM   20  O2  UNL     1      14.319  24.045  20.965  1.00  0.00    -0.267 OA
BRANCH  15  21
HETATM   21  N4  UNL     1      10.863  22.674  23.538  1.00  0.00    -0.234 N 
ATOM     22  H42 UNL     1      10.741  23.581  23.988  1.00  0.00     0.174 HD
ATOM     23  H41 UNL     1      10.152  21.942  23.560  1.00  0.00     0.174 HD
ENDBRANCH  15  21
ENDBRANCH   7   8
ENDBRANCH   6   7
ENDBRANCH   5   6
ENDBRANCH   3   5
BRANCH   1  24
HETATM   24  C5  UNL     1      20.001  19.235  22.073  1.00  0.00     0.119 A 
HETATM   25  S1  UNL     1      21.041  19.674  23.337  1.00  0.00    -0.064 SA
HETATM   26  C4  UNL     1      20.289  19.331  24.858  1.00  0.00     0.025 A 
HETATM   27  C16 UNL     1      19.040  18.790  24.678  1.00  0.00     0.005 A 
HETATM   28  S2  UNL     1      18.705  18.662  23.002  1.00  0.00    -0.068 SA
BRANCH  26  29
HETATM   29  C2  UNL     1      21.029  19.609  26.080  1.00  0.00    -0.053 C 
HETATM   30  C1  UNL     1      20.892  20.660  26.843  1.00  0.00     0.020 C 
HETATM   31  C3  UNL     1      22.022  18.544  26.500  1.00  0.00     0.049 C 
ENDBRANCH  26  29
BRANCH  27  32
HETATM   32  C17 UNL     1      18.084  18.375  25.719  1.00  0.00     0.074 C 
BRANCH  32  33
HETATM   33  C18 UNL     1      18.195  16.885  26.032  1.00  0.00     0.172 C 
BRANCH  33  34
HETATM   34  O3  UNL     1      19.100  16.637  27.024  1.00  0.00    -0.389 OA
BRANCH  34  35
HETATM   35  C19 UNL     1      19.726  15.428  26.988  1.00  0.00     0.193 C 
BRANCH  35  36
HETATM   36  C20 UNL     1      19.621  14.571  28.198  1.00  0.00     0.190 C 
BRANCH  36  37
HETATM   37  O4  UNL     1      18.288  14.165  28.340  1.00  0.00    -0.399 OA
ATOM     38  H4  UNL     1      18.259  13.436  28.947  1.00  0.00     0.209 HD
ENDBRANCH  36  37
ENDBRANCH  35  36
ENDBRANCH  34  35
ENDBRANCH  33  34
ENDBRANCH  32  33
ENDBRANCH  27  32
ENDBRANCH   1  24
TORSDOF 13
ENDMDL
MODEL 5
REMARK VINA RESULT: -8.162086498      3.849     10.251
REMARK  13 active torsions:
REMARK  status: ('A' for Active; 'I' for Inactive)
REMARK    1  A    between atoms: C2_2  and  C4_4 
REMARK    2  A    between atoms: C5_6  and  N1_7 
REMARK       I    between atoms: N1_7  and  C6_9 
REMARK    3  A    between atoms: C6_9  and  C7_11 
REMARK    4  A    between atoms: C7_11  and  C8_12 
REMARK    5  A    between atoms: C8_12  and  C9_13 
REMARK    6  A    between atoms: C9_13  and  C10_14 
REMARK    7  A    between atoms: C13_21  and  N4_22 
REMARK    8  A    between atoms: C16_31  and  C17_32 
REMARK    9  A    between atoms: C17_32  and  C18_33 
REMARK   10  A    between atoms: C18_33  and  O3_34 
REMARK   11  A    between atoms: O3_34  and  C19_35 
REMARK   12  A    between atoms: C19_35  and  C20_36 
REMARK   13  A    between atoms: C20_36  and  O4_37 
ROOT
HETATM    1  N1  UNL     1      18.928  20.500  22.233  1.00  0.00    -0.316 N 
ATOM      2  H1  UNL     1      19.427  21.234  22.737  1.00  0.00     0.170 HD
HETATM    3  C6  UNL     1      19.255  19.104  22.391  1.00  0.00     0.222 C 
HETATM    4  O1  UNL     1      20.203  18.646  21.764  1.00  0.00    -0.273 OA
ENDROOT
BRANCH   3   5
HETATM    5  C7  UNL     1      18.413  18.317  23.305  1.00  0.00     0.103 C 
BRANCH   5   6
HETATM    6  C8  UNL     1      18.250  18.861  24.664  1.00  0.00     0.014 C 
BRANCH   6   7
HETATM    7  C9  UNL     1      19.251  18.386  25.647  1.00  0.00     0.042 C 
BRANCH   7   8
HETATM    8  C10 UNL     1      20.457  19.253  25.622  1.00  0.00    -0.023 A 
HETATM    9  C11 UNL     1      20.649  20.538  26.084  1.00  0.00     0.098 A 
HETATM   10  N2  UNL     1      21.937  20.887  25.871  1.00  0.00    -0.350 N 
HETATM   11  C12 UNL     1      22.592  19.878  25.288  1.00  0.00     0.137 A 
ATOM     12  H2  UNL     1      22.348  21.787  26.118  1.00  0.00     0.166 HD
HETATM   13  N3  UNL     1      23.872  19.693  24.874  1.00  0.00    -0.176 N 
HETATM   14  C15 UNL     1      21.689  18.847  25.123  1.00  0.00     0.085 A 
HETATM   15  C13 UNL     1      24.221  18.514  24.318  1.00  0.00     0.680 A 
ATOM     16  H3  UNL     1      24.561  20.437  24.983  1.00  0.00     0.186 HD
HETATM   17  N5  UNL     1      23.367  17.510  24.151  1.00  0.00    -0.155 N 
HETATM   18  C14 UNL     1      22.069  17.656  24.553  1.00  0.00     0.274 A 
ATOM     19  H5  UNL     1      23.678  16.637  23.724  1.00  0.00     0.187 HD
HETATM   20  O2  UNL     1      21.270  16.693  24.387  1.00  0.00    -0.267 OA
BRANCH  15  21
HETATM   21  N4  UNL     1      25.443  18.376  23.947  1.00  0.00    -0.234 N 
ATOM     22  H42 UNL     1      25.696  18.545  22.973  1.00  0.00     0.174 HD
ATOM     23  H41 UNL     1      26.120  18.094  24.657  1.00  0.00     0.174 HD
ENDBRANCH  15  21
ENDBRANCH   7   8
ENDBRANCH   6   7
ENDBRANCH   5   6
ENDBRANCH   3   5
BRANCH   1  24
HETATM   24  C5  UNL     1      17.975  20.763  21.422  1.00  0.00     0.119 A 
HETATM   25  S1  UNL     1      18.114  20.779  19.732  1.00  0.00    -0.064 SA
HETATM   26  C4  UNL     1      16.579  21.150  19.023  1.00  0.00     0.025 A 
HETATM   27  C16 UNL     1      15.624  21.340  19.991  1.00  0.00     0.005 A 
HETATM   28  S2  UNL     1      16.327  21.136  21.540  1.00  0.00    -0.068 SA
BRANCH  26  29
HETATM   29  C2  UNL     1      16.485  21.242  17.574  1.00  0.00    -0.053 C 
HETATM   30  C1  UNL     1      17.028  22.162  16.822  1.00  0.00     0.020 C 
HETATM   31  C3  UNL     1      15.703  20.135  16.896  1.00  0.00     0.049 C 
ENDBRANCH  26  29
BRANCH  27  32
HETATM   32  C17 UNL     1      14.200  21.660  19.793  1.00  0.00     0.074 C 
BRANCH  32  33
HETATM   33  C18 UNL     1      13.483  21.907  21.118  1.00  0.00     0.172 C 
BRANCH  33  34
HETATM   34  O3  UNL     1      12.347  21.158  21.232  1.00  0.00    -0.389 OA
BRANCH  34  35
HETATM   35  C19 UNL     1      11.999  20.769  22.490  1.00  0.00     0.193 C 
BRANCH  35  36
HETATM   36  C20 UNL     1      11.267  21.754  23.329  1.00  0.00     0.190 C 
BRANCH  36  37
HETATM   37  O4  UNL     1      10.162  21.113  23.903  1.00  0.00    -0.399 OA
ATOM     38  H4  UNL     1       9.590  20.817  23.205  1.00  0.00     0.209 HD
ENDBRANCH  36  37
ENDBRANCH  35  36
ENDBRANCH  34  35
ENDBRANCH  33  34
ENDBRANCH  32  33
ENDBRANCH  27  32
ENDBRANCH   1  24
TORSDOF 13
ENDMDL
