MODEL 1
REMARK VINA RESULT: -8.581890801      0.000      0.000
REMARK  15 active torsions:
REMARK  status: ('A' for Active; 'I' for Inactive)
REMARK    1  A    between atoms: C6_6  and  C7_7 
REMARK    2  A    between atoms: C7_7  and  O1_8 
REMARK    3  A    between atoms: C8_10  and  C9_11 
REMARK    4  A    between atoms: C9_11  and  C10_12 
REMARK    5  A    between atoms: C10_12  and  C11_13 
REMARK    6  A    between atoms: C11_13  and  C12_14 
REMARK    7  A    between atoms: C12_14  and  C13_15 
REMARK    8  A    between atoms: C13_15  and  C14_16 
REMARK    9  A    between atoms: C17_19  and  O2_20 
REMARK   10  A    between atoms: O2_20  and  C18_21 
REMARK   11  A    between atoms: C20_23  and  O3_24 
REMARK   12  A    between atoms: C21_26  and  O4_27 
REMARK   13  A    between atoms: C22_29  and  C23_30 
REMARK   14  A    between atoms: C23_30  and  O5_31 
REMARK   15  A    between atoms: C24_34  and  O7_35 
ROOT
HETATM    1  C1  UNL     1      21.002  20.532  27.359  1.00  0.00     0.018 C 
HETATM    2  C2  UNL     1      20.481  19.980  26.423  1.00  0.00    -0.078 C 
HETATM    3  C3  UNL     1      19.877  19.298  25.310  1.00  0.00     0.017 A 
HETATM    4  C4  UNL     1      18.949  18.297  25.503  1.00  0.00     0.021 A 
HETATM    5  C5  UNL     1      18.374  17.649  24.435  1.00  0.00     0.011 A 
HETATM    6  C6  UNL     1      18.693  17.965  23.115  1.00  0.00    -0.028 A 
HETATM    7  C8  UNL     1      19.612  18.960  22.903  1.00  0.00    -0.048 A 
HETATM    8  C26 UNL     1      20.185  19.605  24.002  1.00  0.00     0.028 A 
ENDROOT
BRANCH   7   9
HETATM    9  C9  UNL     1      20.016  19.391  21.548  1.00  0.00     0.039 C 
BRANCH   9  10
HETATM   10  C10 UNL     1      20.654  20.728  21.448  1.00  0.00     0.005 C 
BRANCH  10  11
HETATM   11  C11 UNL     1      20.374  21.487  20.169  1.00  0.00     0.001 C 
BRANCH  11  12
HETATM   12  C12 UNL     1      19.904  20.629  19.038  1.00  0.00     0.005 C 
BRANCH  12  13
HETATM   13  C13 UNL     1      18.621  21.197  18.481  1.00  0.00     0.038 C 
BRANCH  13  14
HETATM   14  C14 UNL     1      17.505  21.213  19.456  1.00  0.00    -0.055 A 
HETATM   15  C15 UNL     1      17.031  20.065  20.083  1.00  0.00     0.010 A 
HETATM   16  C16 UNL     1      15.990  20.135  20.985  1.00  0.00     0.040 A 
HETATM   17  C17 UNL     1      15.390  21.335  21.295  1.00  0.00     0.105 A 
HETATM   18  C24 UNL     1      15.874  22.481  20.658  1.00  0.00     0.099 A 
HETATM   19  C25 UNL     1      16.908  22.434  19.757  1.00  0.00     0.046 A 
BRANCH  17  20
HETATM   20  O2  UNL     1      14.362  21.475  22.174  1.00  0.00    -0.318 OA
BRANCH  20  21
HETATM   21  C18 UNL     1      13.130  22.099  21.991  1.00  0.00     0.269 C 
HETATM   22  C19 UNL     1      12.049  21.121  21.553  1.00  0.00     0.095 C 
HETATM   23  C20 UNL     1      11.726  20.207  22.707  1.00  0.00     0.154 C 
HETATM   24  C21 UNL     1      11.096  21.040  23.799  1.00  0.00     0.178 C 
HETATM   25  C22 UNL     1      11.441  22.495  23.545  1.00  0.00     0.179 C 
HETATM   26  O6  UNL     1      12.760  22.657  23.207  1.00  0.00    -0.351 OA
BRANCH  23  27
HETATM   27  O3  UNL     1      12.906  19.658  23.226  1.00  0.00    -0.393 OA
ATOM     28  H3  UNL     1      13.457  19.347  22.517  1.00  0.00     0.210 HD
ENDBRANCH  23  27
BRANCH  24  29
HETATM   29  O4  UNL     1       9.712  20.868  23.807  1.00  0.00    -0.390 OA
ATOM     30  H4  UNL     1       9.491  19.945  23.842  1.00  0.00     0.210 HD
ENDBRANCH  24  29
BRANCH  25  31
HETATM   31  C23 UNL     1      11.260  23.191  24.900  1.00  0.00     0.198 C 
BRANCH  31  32
HETATM   32  O5  UNL     1      10.825  22.283  25.861  1.00  0.00    -0.398 OA
ATOM     33  H5  UNL     1      11.043  22.590  26.732  1.00  0.00     0.209 HD
ENDBRANCH  31  32
ENDBRANCH  25  31
ENDBRANCH  20  21
ENDBRANCH  17  20
BRANCH  18  34
HETATM   34  O7  UNL     1      15.270  23.688  20.970  1.00  0.00    -0.358 OA
ATOM     35  H7  UNL     1      15.646  24.476  20.594  1.00  0.00     0.217 HD
ENDBRANCH  18  34
ENDBRANCH  13  14
ENDBRANCH  12  13
ENDBRANCH  11  12
ENDBRANCH  10  11
ENDBRANCH   9  10
ENDBRANCH   7   9
BRANCH   6  36
HETATM   36  C7  UNL     1      18.042  17.189  22.002  1.00  0.00     0.203 C 
BRANCH  36  37
HETATM   37  O1  UNL     1      16.704  16.926  22.338  1.00  0.00    -0.396 OA
ATOM     38  H1  UNL     1      16.266  16.527  21.596  1.00  0.00     0.209 HD
ENDBRANCH  36  37
ENDBRANCH   6  36
TORSDOF 15
ENDMDL
MODEL 2
REMARK VINA RESULT: -8.542664555      3.066      8.446
REMARK  15 active torsions:
REMARK  status: ('A' for Active; 'I' for Inactive)
REMARK    1  A    between atoms: C6_6  and  C7_7 
REMARK    2  A    between atoms: C7_7  and  O1_8 
REMARK    3  A    between atoms: C8_10  and  C9_11 
REMARK    4  A    between atoms: C9_11  and  C10_12 
REMARK    5  A    between atoms: C10_12  and  C11_13 
REMARK    6  A    between atoms: C11_13  and  C12_14 
REMARK    7  A    between atoms: C12_14  and  C13_15 
REMARK    8  A    between atoms: C13_15  and  C14_16 
REMARK    9  A    between atoms: C17_19  and  O2_20 
REMARK   10  A    between atoms: O2_20  and  C18_21 
REMARK   11  A    between atoms: C20_23  and  O3_24 
REMARK   12  A    between atoms: C21_26  and  O4_27 
REMARK   13  A    between atoms: C22_29  and  C23_30 
REMARK   14  A    between atoms: C23_30  and  O5_31 
REMARK   15  A    between atoms: C24_34  and  O7_35 
ROOT
HETATM    1  C1  UNL     1      12.011  25.988  25.017  1.00  0.00     0.018 C 
HETATM    2  C2  UNL     1      11.939  24.882  24.545  1.00  0.00    -0.078 C 
HETATM    3  C3  UNL     1      11.868  23.551  24.004  1.00  0.00     0.017 A 
HETATM    4  C4  UNL     1      10.986  22.620  24.509  1.00  0.00     0.021 A 
HETATM    5  C5  UNL     1      10.922  21.349  23.987  1.00  0.00     0.011 A 
HETATM    6  C6  UNL     1      11.736  20.938  22.933  1.00  0.00    -0.028 A 
HETATM    7  C8  UNL     1      12.618  21.850  22.416  1.00  0.00    -0.048 A 
HETATM    8  C26 UNL     1      12.667  23.136  22.961  1.00  0.00     0.028 A 
ENDROOT
BRANCH   7   9
HETATM    9  C9  UNL     1      13.518  21.532  21.286  1.00  0.00     0.039 C 
BRANCH   9  10
HETATM   10  C10 UNL     1      14.945  21.902  21.461  1.00  0.00     0.005 C 
BRANCH  10  11
HETATM   11  C11 UNL     1      15.652  22.369  20.206  1.00  0.00     0.001 C 
BRANCH  11  12
HETATM   12  C12 UNL     1      15.614  21.385  19.080  1.00  0.00     0.005 C 
BRANCH  12  13
HETATM   13  C13 UNL     1      16.998  21.248  18.491  1.00  0.00     0.038 C 
BRANCH  13  14
HETATM   14  C14 UNL     1      18.003  20.728  19.448  1.00  0.00    -0.055 A 
HETATM   15  C15 UNL     1      19.288  21.249  19.553  1.00  0.00     0.010 A 
HETATM   16  C16 UNL     1      20.186  20.731  20.463  1.00  0.00     0.040 A 
HETATM   17  C17 UNL     1      19.841  19.688  21.294  1.00  0.00     0.105 A 
HETATM   18  C24 UNL     1      18.547  19.173  21.179  1.00  0.00     0.099 A 
HETATM   19  C25 UNL     1      17.638  19.673  20.280  1.00  0.00     0.046 A 
BRANCH  17  20
HETATM   20  O2  UNL     1      20.675  19.130  22.212  1.00  0.00    -0.318 OA
BRANCH  20  21
HETATM   21  C18 UNL     1      20.959  19.550  23.509  1.00  0.00     0.269 C 
HETATM   22  C19 UNL     1      20.656  18.473  24.542  1.00  0.00     0.095 C 
HETATM   23  C20 UNL     1      21.660  17.359  24.388  1.00  0.00     0.154 C 
HETATM   24  C21 UNL     1      23.020  17.901  24.759  1.00  0.00     0.178 C 
HETATM   25  C22 UNL     1      22.963  19.415  24.689  1.00  0.00     0.179 C 
HETATM   26  O6  UNL     1      22.313  19.852  23.563  1.00  0.00    -0.351 OA
BRANCH  23  27
HETATM   27  O3  UNL     1      21.721  16.954  23.048  1.00  0.00    -0.393 OA
ATOM     28  H3  UNL     1      21.994  16.045  22.997  1.00  0.00     0.210 HD
ENDBRANCH  23  27
BRANCH  24  29
HETATM   29  O4  UNL     1      23.375  17.493  26.045  1.00  0.00    -0.390 OA
ATOM     30  H4  UNL     1      23.749  18.218  26.533  1.00  0.00     0.210 HD
ENDBRANCH  24  29
BRANCH  25  31
HETATM   31  C23 UNL     1      24.422  19.865  24.540  1.00  0.00     0.198 C 
BRANCH  31  32
HETATM   32  O5  UNL     1      25.272  18.763  24.520  1.00  0.00    -0.398 OA
ATOM     33  H5  UNL     1      25.887  18.829  23.799  1.00  0.00     0.209 HD
ENDBRANCH  31  32
ENDBRANCH  25  31
ENDBRANCH  20  21
ENDBRANCH  17  20
BRANCH  18  34
HETATM   34  O7  UNL     1      18.201  18.124  22.015  1.00  0.00    -0.358 OA
ATOM     35  H7  UNL     1      18.011  17.286  21.610  1.00  0.00     0.217 HD
ENDBRANCH  18  34
ENDBRANCH  13  14
ENDBRANCH  12  13
ENDBRANCH  11  12
ENDBRANCH  10  11
ENDBRANCH   9  10
ENDBRANCH   7   9
BRANCH   6  36
HETATM   36  C7  UNL     1      11.627  19.520  22.439  1.00  0.00     0.203 C 
BRANCH  36  37
HETATM   37  O1  UNL     1      12.445  18.689  23.221  1.00  0.00    -0.396 OA
ATOM     38  H1  UNL     1      12.527  17.841  22.801  1.00  0.00     0.209 HD
ENDBRANCH  36  37
ENDBRANCH   6  36
TORSDOF 15
ENDMDL
MODEL 3
REMARK VINA RESULT: -8.424379744      1.712      2.975
REMARK  15 active torsions:
REMARK  status: ('A' for Active; 'I' for Inactive)
REMARK    1  A    between atoms: C6_6  and  C7_7 
REMARK    2  A    between atoms: C7_7  and  O1_8 
REMARK    3  A    between atoms: C8_10  and  C9_11 
REMARK    4  A    between atoms: C9_11  and  C10_12 
REMARK    5  A    between atoms: C10_12  and  C11_13 
REMARK    6  A    between atoms: C11_13  and  C12_14 
REMARK    7  A    between atoms: C12_14  and  C13_15 
REMARK    8  A    between atoms: C13_15  and  C14_16 
REMARK    9  A    between atoms: C17_19  and  O2_20 
REMARK   10  A    between atoms: O2_20  and  C18_21 
REMARK   11  A    between atoms: C20_23  and  O3_24 
REMARK   12  A    between atoms: C21_26  and  O4_27 
REMARK   13  A    between atoms: C22_29  and  C23_30 
REMARK   14  A    between atoms: C23_30  and  O5_31 
REMARK   15  A    between atoms: C24_34  and  O7_35 
ROOT
HETATM    1  C1  UNL     1      16.398  15.705  24.128  1.00  0.00     0.018 C 
HETATM    2  C2  UNL     1      17.202  16.475  24.590  1.00  0.00    -0.078 C 
HETATM    3  C3  UNL     1      18.139  17.411  25.150  1.00  0.00     0.017 A 
HETATM    4  C4  UNL     1      18.323  17.510  26.512  1.00  0.00     0.021 A 
HETATM    5  C5  UNL     1      19.222  18.407  27.041  1.00  0.00     0.011 A 
HETATM    6  C6  UNL     1      19.985  19.254  26.239  1.00  0.00    -0.028 A 
HETATM    7  C8  UNL     1      19.817  19.169  24.882  1.00  0.00    -0.048 A 
HETATM    8  C26 UNL     1      18.899  18.251  24.365  1.00  0.00     0.028 A 
ENDROOT
BRANCH   7   9
HETATM    9  C9  UNL     1      20.584  20.004  23.933  1.00  0.00     0.039 C 
BRANCH   9  10
HETATM   10  C10 UNL     1      20.684  19.494  22.542  1.00  0.00     0.005 C 
BRANCH  10  11
HETATM   11  C11 UNL     1      20.453  20.521  21.455  1.00  0.00     0.001 C 
BRANCH  11  12
HETATM   12  C12 UNL     1      20.151  19.935  20.113  1.00  0.00     0.005 C 
BRANCH  12  13
HETATM   13  C13 UNL     1      19.131  20.799  19.410  1.00  0.00     0.038 C 
BRANCH  13  14
HETATM   14  C14 UNL     1      17.872  20.972  20.172  1.00  0.00    -0.055 A 
HETATM   15  C15 UNL     1      17.125  22.145  20.145  1.00  0.00     0.010 A 
HETATM   16  C16 UNL     1      15.957  22.254  20.870  1.00  0.00     0.040 A 
HETATM   17  C17 UNL     1      15.493  21.210  21.640  1.00  0.00     0.105 A 
HETATM   18  C24 UNL     1      16.251  20.036  21.659  1.00  0.00     0.099 A 
HETATM   19  C25 UNL     1      17.416  19.907  20.945  1.00  0.00     0.046 A 
BRANCH  17  20
HETATM   20  O2  UNL     1      14.351  21.249  22.378  1.00  0.00    -0.318 OA
BRANCH  20  21
HETATM   21  C18 UNL     1      13.158  21.916  22.114  1.00  0.00     0.269 C 
HETATM   22  C19 UNL     1      12.043  20.962  21.711  1.00  0.00     0.095 C 
HETATM   23  C20 UNL     1      11.642  20.149  22.915  1.00  0.00     0.154 C 
HETATM   24  C21 UNL     1      11.024  21.086  23.926  1.00  0.00     0.178 C 
HETATM   25  C22 UNL     1      11.448  22.501  23.583  1.00  0.00     0.179 C 
HETATM   26  O6  UNL     1      12.782  22.576  23.276  1.00  0.00    -0.351 OA
BRANCH  23  27
HETATM   27  O3  UNL     1      12.778  19.583  23.508  1.00  0.00    -0.393 OA
ATOM     28  H3  UNL     1      13.131  20.175  24.162  1.00  0.00     0.210 HD
ENDBRANCH  23  27
BRANCH  24  29
HETATM   29  O4  UNL     1       9.633  20.982  23.902  1.00  0.00    -0.390 OA
ATOM     30  H4  UNL     1       9.369  20.080  23.756  1.00  0.00     0.210 HD
ENDBRANCH  24  29
BRANCH  25  31
HETATM   31  C23 UNL     1      11.264  23.300  24.880  1.00  0.00     0.198 C 
BRANCH  31  32
HETATM   32  O5  UNL     1      12.056  24.444  24.865  1.00  0.00    -0.398 OA
ATOM     33  H5  UNL     1      11.555  25.192  24.562  1.00  0.00     0.209 HD
ENDBRANCH  31  32
ENDBRANCH  25  31
ENDBRANCH  20  21
ENDBRANCH  17  20
BRANCH  18  34
HETATM   34  O7  UNL     1      15.784  18.987  22.433  1.00  0.00    -0.358 OA
ATOM     35  H7  UNL     1      16.361  18.243  22.557  1.00  0.00     0.217 HD
ENDBRANCH  18  34
ENDBRANCH  13  14
ENDBRANCH  12  13
ENDBRANCH  11  12
ENDBRANCH  10  11
ENDBRANCH   9  10
ENDBRANCH   7   9
BRANCH   6  36
HETATM   36  C7  UNL     1      20.925  20.230  26.897  1.00  0.00     0.203 C 
BRANCH  36  37
HETATM   37  O1  UNL     1      22.129  19.579  27.208  1.00  0.00    -0.396 OA
ATOM     38  H1  UNL     1      22.004  18.639  27.151  1.00  0.00     0.209 HD
ENDBRANCH  36  37
ENDBRANCH   6  36
TORSDOF 15
ENDMDL
MODEL 4
REMARK VINA RESULT: -8.015904386      2.228      7.443
REMARK  15 active torsions:
REMARK  status: ('A' for Active; 'I' for Inactive)
REMARK    1  A    between atoms: C6_6  and  C7_7 
REMARK    2  A    between atoms: C7_7  and  O1_8 
REMARK    3  A    between atoms: C8_10  and  C9_11 
REMARK    4  A    between atoms: C9_11  and  C10_12 
REMARK    5  A    between atoms: C10_12  and  C11_13 
REMARK    6  A    between atoms: C11_13  and  C12_14 
REMARK    7  A    between atoms: C12_14  and  C13_15 
REMARK    8  A    between atoms: C13_15  and  C14_16 
REMARK    9  A    between atoms: C17_19  and  O2_20 
REMARK   10  A    between atoms: O2_20  and  C18_21 
REMARK   11  A    between atoms: C20_23  and  O3_24 
REMARK   12  A    between atoms: C21_26  and  O4_27 
REMARK   13  A    between atoms: C22_29  and  C23_30 
REMARK   14  A    between atoms: C23_30  and  O5_31 
REMARK   15  A    between atoms: C24_34  and  O7_35 
ROOT
HETATM    1  C1  UNL     1      12.024  25.986  25.005  1.00  0.00     0.018 C 
HETATM    2  C2  UNL     1      11.969  24.876  24.538  1.00  0.00    -0.078 C 
HETATM    3  C3  UNL     1      11.916  23.541  24.005  1.00  0.00     0.017 A 
HETATM    4  C4  UNL     1      10.959  22.642  24.425  1.00  0.00     0.021 A 
HETATM    5  C5  UNL     1      10.914  21.367  23.911  1.00  0.00     0.011 A 
HETATM    6  C6  UNL     1      11.820  20.920  22.952  1.00  0.00    -0.028 A 
HETATM    7  C8  UNL     1      12.778  21.801  22.520  1.00  0.00    -0.048 A 
HETATM    8  C26 UNL     1      12.807  23.091  23.056  1.00  0.00     0.028 A 
ENDROOT
BRANCH   7   9
HETATM    9  C9  UNL     1      13.780  21.444  21.494  1.00  0.00     0.039 C 
BRANCH   9  10
HETATM   10  C10 UNL     1      13.795  22.285  20.271  1.00  0.00     0.005 C 
BRANCH  10  11
HETATM   11  C11 UNL     1      14.586  21.725  19.108  1.00  0.00     0.001 C 
BRANCH  11  12
HETATM   12  C12 UNL     1      15.487  20.589  19.472  1.00  0.00     0.005 C 
BRANCH  12  13
HETATM   13  C13 UNL     1      16.922  21.057  19.427  1.00  0.00     0.038 C 
BRANCH  13  14
HETATM   14  C14 UNL     1      17.770  20.482  20.497  1.00  0.00    -0.055 A 
HETATM   15  C15 UNL     1      19.124  20.212  20.328  1.00  0.00     0.010 A 
HETATM   16  C16 UNL     1      19.870  19.678  21.358  1.00  0.00     0.040 A 
HETATM   17  C17 UNL     1      19.303  19.398  22.582  1.00  0.00     0.105 A 
HETATM   18  C24 UNL     1      17.942  19.673  22.740  1.00  0.00     0.099 A 
HETATM   19  C25 UNL     1      17.181  20.204  21.728  1.00  0.00     0.046 A 
BRANCH  17  20
HETATM   20  O2  UNL     1      19.978  18.872  23.638  1.00  0.00    -0.318 OA
BRANCH  20  21
HETATM   21  C18 UNL     1      20.111  17.539  24.019  1.00  0.00     0.269 C 
HETATM   22  C19 UNL     1      20.805  17.392  25.366  1.00  0.00     0.095 C 
HETATM   23  C20 UNL     1      19.881  17.896  26.445  1.00  0.00     0.154 C 
HETATM   24  C21 UNL     1      18.687  16.971  26.505  1.00  0.00     0.178 C 
HETATM   25  C22 UNL     1      18.621  16.196  25.203  1.00  0.00     0.179 C 
HETATM   26  O6  UNL     1      18.834  17.002  24.114  1.00  0.00    -0.351 OA
BRANCH  23  27
HETATM   27  O3  UNL     1      19.408  19.171  26.110  1.00  0.00    -0.393 OA
ATOM     28  H3  UNL     1      20.038  19.830  26.377  1.00  0.00     0.210 HD
ENDBRANCH  23  27
BRANCH  24  29
HETATM   29  O4  UNL     1      18.803  16.093  27.582  1.00  0.00    -0.390 OA
ATOM     30  H4  UNL     1      19.717  15.951  27.799  1.00  0.00     0.210 HD
ENDBRANCH  24  29
BRANCH  25  31
HETATM   31  C23 UNL     1      17.169  15.713  25.097  1.00  0.00     0.198 C 
BRANCH  31  32
HETATM   32  O5  UNL     1      16.422  16.584  24.309  1.00  0.00    -0.398 OA
ATOM     33  H5  UNL     1      15.885  16.099  23.694  1.00  0.00     0.209 HD
ENDBRANCH  31  32
ENDBRANCH  25  31
ENDBRANCH  20  21
ENDBRANCH  17  20
BRANCH  18  34
HETATM   34  O7  UNL     1      17.372  19.391  23.971  1.00  0.00    -0.358 OA
ATOM     35  H7  UNL     1      16.763  20.027  24.327  1.00  0.00     0.217 HD
ENDBRANCH  18  34
ENDBRANCH  13  14
ENDBRANCH  12  13
ENDBRANCH  11  12
ENDBRANCH  10  11
ENDBRANCH   9  10
ENDBRANCH   7   9
BRANCH   6  36
HETATM   36  C7  UNL     1      11.722  19.500  22.462  1.00  0.00     0.203 C 
BRANCH  36  37
HETATM   37  O1  UNL     1      12.458  18.661  23.313  1.00  0.00    -0.396 OA
ATOM     38  H1  UNL     1      12.126  18.741  24.200  1.00  0.00     0.209 HD
ENDBRANCH  36  37
ENDBRANCH   6  36
TORSDOF 15
ENDMDL
MODEL 5
REMARK VINA RESULT: -7.978909781      2.954      8.302
REMARK  15 active torsions:
REMARK  status: ('A' for Active; 'I' for Inactive)
REMARK    1  A    between atoms: C6_6  and  C7_7 
REMARK    2  A    between atoms: C7_7  and  O1_8 
REMARK    3  A    between atoms: C8_10  and  C9_11 
REMARK    4  A    between atoms: C9_11  and  C10_12 
REMARK    5  A    between atoms: C10_12  and  C11_13 
REMARK    6  A    between atoms: C11_13  and  C12_14 
REMARK    7  A    between atoms: C12_14  and  C13_15 
REMARK    8  A    between atoms: C13_15  and  C14_16 
REMARK    9  A    between atoms: C17_19  and  O2_20 
REMARK   10  A    between atoms: O2_20  and  C18_21 
REMARK   11  A    between atoms: C20_23  and  O3_24 
REMARK   12  A    between atoms: C21_26  and  O4_27 
REMARK   13  A    between atoms: C22_29  and  C23_30 
REMARK   14  A    between atoms: C23_30  and  O5_31 
REMARK   15  A    between atoms: C24_34  and  O7_35 
ROOT
HETATM    1  C1  UNL     1      12.060  26.044  25.015  1.00  0.00     0.018 C 
HETATM    2  C2  UNL     1      11.961  24.939  24.545  1.00  0.00    -0.078 C 
HETATM    3  C3  UNL     1      11.861  23.610  24.004  1.00  0.00     0.017 A 
HETATM    4  C4  UNL     1      11.104  22.640  24.627  1.00  0.00     0.021 A 
HETATM    5  C5  UNL     1      11.011  21.371  24.105  1.00  0.00     0.011 A 
HETATM    6  C6  UNL     1      11.669  21.000  22.933  1.00  0.00    -0.028 A 
HETATM    7  C8  UNL     1      12.425  21.952  22.299  1.00  0.00    -0.048 A 
HETATM    8  C26 UNL     1      12.506  23.235  22.846  1.00  0.00     0.028 A 
ENDROOT
BRANCH   7   9
HETATM    9  C9  UNL     1      13.153  21.678  21.041  1.00  0.00     0.039 C 
BRANCH   9  10
HETATM   10  C10 UNL     1      14.592  21.339  21.177  1.00  0.00     0.005 C 
BRANCH  10  11
HETATM   11  C11 UNL     1      15.487  21.850  20.069  1.00  0.00     0.001 C 
BRANCH  11  12
HETATM   12  C12 UNL     1      16.869  22.208  20.514  1.00  0.00     0.005 C 
BRANCH  12  13
HETATM   13  C13 UNL     1      17.865  21.319  19.809  1.00  0.00     0.038 C 
BRANCH  13  14
HETATM   14  C14 UNL     1      18.398  20.230  20.661  1.00  0.00    -0.055 A 
HETATM   15  C15 UNL     1      17.708  19.045  20.895  1.00  0.00     0.010 A 
HETATM   16  C16 UNL     1      18.249  18.060  21.695  1.00  0.00     0.040 A 
HETATM   17  C17 UNL     1      19.484  18.216  22.284  1.00  0.00     0.105 A 
HETATM   18  C24 UNL     1      20.168  19.411  22.043  1.00  0.00     0.099 A 
HETATM   19  C25 UNL     1      19.648  20.403  21.251  1.00  0.00     0.046 A 
BRANCH  17  20
HETATM   20  O2  UNL     1      20.076  17.288  23.083  1.00  0.00    -0.318 OA
BRANCH  20  21
HETATM   21  C18 UNL     1      20.054  17.183  24.471  1.00  0.00     0.269 C 
HETATM   22  C19 UNL     1      21.007  16.111  24.982  1.00  0.00     0.095 C 
HETATM   23  C20 UNL     1      22.423  16.578  24.764  1.00  0.00     0.154 C 
HETATM   24  C21 UNL     1      22.660  17.780  25.648  1.00  0.00     0.178 C 
HETATM   25  C22 UNL     1      21.311  18.345  26.051  1.00  0.00     0.179 C 
HETATM   26  O6  UNL     1      20.445  18.410  24.989  1.00  0.00    -0.351 OA
BRANCH  23  27
HETATM   27  O3  UNL     1      22.589  16.994  23.437  1.00  0.00    -0.393 OA
ATOM     28  H3  UNL     1      22.846  16.255  22.896  1.00  0.00     0.210 HD
ENDBRANCH  23  27
BRANCH  24  29
HETATM   29  O4  UNL     1      23.386  17.417  26.782  1.00  0.00    -0.390 OA
ATOM     30  H4  UNL     1      23.096  17.917  27.537  1.00  0.00     0.210 HD
ENDBRANCH  24  29
BRANCH  25  31
HETATM   31  C23 UNL     1      21.592  19.797  26.460  1.00  0.00     0.198 C 
BRANCH  31  32
HETATM   32  O5  UNL     1      22.057  20.529  25.372  1.00  0.00    -0.398 OA
ATOM     33  H5  UNL     1      22.475  21.330  25.663  1.00  0.00     0.209 HD
ENDBRANCH  31  32
ENDBRANCH  25  31
ENDBRANCH  20  21
ENDBRANCH  17  20
BRANCH  18  34
HETATM   34  O7  UNL     1      21.410  19.567  22.636  1.00  0.00    -0.358 OA
ATOM     35  H7  UNL     1      22.088  19.997  22.127  1.00  0.00     0.217 HD
ENDBRANCH  18  34
ENDBRANCH  13  14
ENDBRANCH  12  13
ENDBRANCH  11  12
ENDBRANCH  10  11
ENDBRANCH   9  10
ENDBRANCH   7   9
BRANCH   6  36
HETATM   36  C7  UNL     1      11.542  19.583  22.443  1.00  0.00     0.203 C 
BRANCH  36  37
HETATM   37  O1  UNL     1      12.380  18.750  23.202  1.00  0.00    -0.396 OA
ATOM     38  H1  UNL     1      12.170  17.842  23.022  1.00  0.00     0.209 HD
ENDBRANCH  36  37
ENDBRANCH   6  36
TORSDOF 15
ENDMDL
