MODEL 1
REMARK VINA RESULT: -7.978633524      0.000      0.000
REMARK  12 active torsions:
REMARK  status: ('A' for Active; 'I' for Inactive)
REMARK    1  A    between atoms: C2_2  and  C3_3 
REMARK    2  A    between atoms: C3_3  and  C4_4 
REMARK    3  A    between atoms: C4_4  and  C5_5 
REMARK    4  A    between atoms: C5_5  and  N1_6 
REMARK    5  A    between atoms: N4_20  and  C14_21 
REMARK    6  A    between atoms: C15_23  and  C16_24 
REMARK    7  A    between atoms: C16_24  and  N5_25 
REMARK       I    between atoms: N5_25  and  C17_27 
REMARK       I    between atoms: C17_27  and  N6_29 
REMARK    8  A    between atoms: N6_29  and  C18_31 
REMARK    9  A    between atoms: C18_31  and  C19_32 
REMARK   10  A    between atoms: C19_32  and  C20_33 
REMARK   11  A    between atoms: C22_35  and  O3_36 
REMARK   12  A    between atoms: C23_38  and  O4_39 
ROOT
HETATM    1  N1  UNL     1      21.478  18.786  23.275  1.00  0.00    -0.374 N 
ATOM      2  H1  UNL     1      21.840  19.528  22.674  1.00  0.00     0.161 HD
HETATM    3  C6  UNL     1      20.241  18.417  23.146  1.00  0.00     0.131 A 
HETATM    4  N2  UNL     1      19.669  17.473  23.867  1.00  0.00    -0.344 N 
ATOM      5  H2  UNL     1      20.198  16.974  24.583  1.00  0.00     0.167 HD
HETATM    6  C7  UNL     1      18.381  17.178  23.645  1.00  0.00     0.015 A 
HETATM    7  C8  UNL     1      17.737  16.103  24.469  1.00  0.00     0.069 C 
HETATM    8  C9  UNL     1      17.598  17.814  22.689  1.00  0.00    -0.010 A 
HETATM    9  C10 UNL     1      16.190  17.457  22.479  1.00  0.00     0.052 C 
HETATM   10  C11 UNL     1      18.183  18.794  21.937  1.00  0.00     0.076 A 
HETATM   11  C12 UNL     1      19.510  19.085  22.179  1.00  0.00     0.105 A 
HETATM   12  N3  UNL     1      19.831  20.069  21.318  1.00  0.00    -0.347 N 
ATOM     13  H3  UNL     1      20.743  20.517  21.235  1.00  0.00     0.167 HD
HETATM   14  C13 UNL     1      18.751  20.356  20.594  1.00  0.00     0.186 A 
HETATM   15  N4  UNL     1      17.700  19.563  20.968  1.00  0.00    -0.310 N 
ENDROOT
BRANCH  15  16
HETATM   16  C14 UNL     1      16.420  19.659  20.356  1.00  0.00     0.261 C 
HETATM   17  O1  UNL     1      15.701  20.609  21.136  1.00  0.00    -0.354 OA
HETATM   18  C15 UNL     1      15.224  21.581  20.354  1.00  0.00     0.173 C 
HETATM   19  C22 UNL     1      15.928  21.607  19.042  1.00  0.00     0.181 C 
HETATM   20  C23 UNL     1      16.481  20.234  18.949  1.00  0.00     0.198 C 
BRANCH  18  21
HETATM   21  C16 UNL     1      13.725  21.421  20.224  1.00  0.00     0.159 C 
BRANCH  21  22
HETATM   22  N5  UNL     1      13.084  21.032  21.434  1.00  0.00    -0.341 N 
HETATM   23  C17 UNL     1      12.282  21.960  22.137  1.00  0.00     0.316 C 
HETATM   24  O2  UNL     1      12.135  23.118  21.699  1.00  0.00    -0.247 OA
HETATM   25  N6  UNL     1      11.616  21.606  23.366  1.00  0.00    -0.343 N 
ATOM     26  H6  UNL     1      11.706  20.672  23.767  1.00  0.00     0.164 HD
ATOM     27  H5  UNL     1      13.203  20.085  21.793  1.00  0.00     0.164 HD
BRANCH  25  28
HETATM   28  C18 UNL     1      10.832  22.603  23.999  1.00  0.00     0.124 C 
BRANCH  28  29
HETATM   29  C19 UNL     1      11.465  23.444  25.037  1.00  0.00     0.019 C 
BRANCH  29  30
HETATM   30  C20 UNL     1      11.163  24.893  25.058  1.00  0.00    -0.003 C 
HETATM   31  C21 UNL     1      12.290  25.834  24.841  1.00  0.00     0.005 C 
ENDBRANCH  29  30
ENDBRANCH  28  29
ENDBRANCH  25  28
ENDBRANCH  21  22
ENDBRANCH  18  21
BRANCH  19  32
HETATM   32  O3  UNL     1      16.938  22.563  18.973  1.00  0.00    -0.390 OA
ATOM     33  H3  UNL     1      17.792  22.197  18.779  1.00  0.00     0.210 HD
ENDBRANCH  19  32
BRANCH  20  34
HETATM   34  O4  UNL     1      15.749  19.435  18.048  1.00  0.00    -0.388 OA
ATOM     35  H4  UNL     1      15.877  19.729  17.154  1.00  0.00     0.210 HD
ENDBRANCH  20  34
ENDBRANCH  15  16
BRANCH   1  36
HETATM   36  C5  UNL     1      22.372  18.165  24.263  1.00  0.00     0.121 C 
BRANCH  36  37
HETATM   37  C4  UNL     1      22.704  19.088  25.367  1.00  0.00     0.020 C 
BRANCH  37  38
HETATM   38  C3  UNL     1      22.143  20.444  25.383  1.00  0.00     0.001 C 
BRANCH  38  39
HETATM   39  C2  UNL     1      21.026  20.780  26.283  1.00  0.00    -0.004 C 
HETATM   40  C1  UNL     1      20.294  19.626  26.897  1.00  0.00     0.005 C 
ENDBRANCH  38  39
ENDBRANCH  37  38
ENDBRANCH  36  37
ENDBRANCH   1  36
TORSDOF 12
ENDMDL
MODEL 2
REMARK VINA RESULT: -7.825721173      3.742     10.096
REMARK  12 active torsions:
REMARK  status: ('A' for Active; 'I' for Inactive)
REMARK    1  A    between atoms: C2_2  and  C3_3 
REMARK    2  A    between atoms: C3_3  and  C4_4 
REMARK    3  A    between atoms: C4_4  and  C5_5 
REMARK    4  A    between atoms: C5_5  and  N1_6 
REMARK    5  A    between atoms: N4_20  and  C14_21 
REMARK    6  A    between atoms: C15_23  and  C16_24 
REMARK    7  A    between atoms: C16_24  and  N5_25 
REMARK       I    between atoms: N5_25  and  C17_27 
REMARK       I    between atoms: C17_27  and  N6_29 
REMARK    8  A    between atoms: N6_29  and  C18_31 
REMARK    9  A    between atoms: C18_31  and  C19_32 
REMARK   10  A    between atoms: C19_32  and  C20_33 
REMARK   11  A    between atoms: C22_35  and  O3_36 
REMARK   12  A    between atoms: C23_38  and  O4_39 
ROOT
HETATM    1  N1  UNL     1      15.023  20.772  22.097  1.00  0.00    -0.374 N 
ATOM      2  H1  UNL     1      14.884  20.397  23.036  1.00  0.00     0.161 HD
HETATM    3  C6  UNL     1      16.195  20.677  21.548  1.00  0.00     0.131 A 
HETATM    4  N2  UNL     1      16.488  21.126  20.342  1.00  0.00    -0.344 N 
ATOM      5  H2  UNL     1      15.777  21.583  19.772  1.00  0.00     0.167 HD
HETATM    6  C7  UNL     1      17.736  20.971  19.879  1.00  0.00     0.015 A 
HETATM    7  C8  UNL     1      18.063  21.484  18.509  1.00  0.00     0.069 C 
HETATM    8  C9  UNL     1      18.755  20.358  20.599  1.00  0.00    -0.010 A 
HETATM    9  C10 UNL     1      20.108  20.209  20.051  1.00  0.00     0.052 C 
HETATM   10  C11 UNL     1      18.459  19.891  21.849  1.00  0.00     0.076 A 
HETATM   11  C12 UNL     1      17.170  20.058  22.310  1.00  0.00     0.105 A 
HETATM   12  N3  UNL     1      17.151  19.519  23.543  1.00  0.00    -0.347 N 
ATOM     13  H3  UNL     1      16.343  19.477  24.165  1.00  0.00     0.167 HD
HETATM   14  C13 UNL     1      18.368  19.050  23.811  1.00  0.00     0.186 A 
HETATM   15  N4  UNL     1      19.209  19.274  22.755  1.00  0.00    -0.310 N 
ENDROOT
BRANCH  15  16
HETATM   16  C14 UNL     1      20.573  18.873  22.772  1.00  0.00     0.261 C 
HETATM   17  O1  UNL     1      21.278  19.965  23.355  1.00  0.00    -0.354 OA
HETATM   18  C15 UNL     1      22.007  19.543  24.391  1.00  0.00     0.173 C 
HETATM   19  C22 UNL     1      21.541  18.211  24.867  1.00  0.00     0.181 C 
HETATM   20  C23 UNL     1      20.826  17.680  23.682  1.00  0.00     0.198 C 
BRANCH  18  21
HETATM   21  C16 UNL     1      23.471  19.559  24.006  1.00  0.00     0.159 C 
BRANCH  21  22
HETATM   22  N5  UNL     1      24.279  18.690  24.790  1.00  0.00    -0.341 N 
HETATM   23  C17 UNL     1      24.774  17.490  24.229  1.00  0.00     0.316 C 
HETATM   24  O2  UNL     1      24.504  17.194  23.049  1.00  0.00    -0.247 OA
HETATM   25  N6  UNL     1      25.595  16.581  24.991  1.00  0.00    -0.343 N 
ATOM     26  H6  UNL     1      25.843  16.778  25.961  1.00  0.00     0.164 HD
ATOM     27  H5  UNL     1      24.500  18.932  25.757  1.00  0.00     0.164 HD
BRANCH  25  28
HETATM   28  C18 UNL     1      26.046  15.404  24.343  1.00  0.00     0.124 C 
BRANCH  28  29
HETATM   29  C19 UNL     1      27.445  15.352  23.868  1.00  0.00     0.019 C 
BRANCH  29  30
HETATM   30  C20 UNL     1      27.732  15.717  22.463  1.00  0.00    -0.003 C 
HETATM   31  C21 UNL     1      28.429  17.004  22.215  1.00  0.00     0.005 C 
ENDBRANCH  29  30
ENDBRANCH  28  29
ENDBRANCH  25  28
ENDBRANCH  21  22
ENDBRANCH  18  21
BRANCH  19  32
HETATM   32  O3  UNL     1      20.698  18.282  25.973  1.00  0.00    -0.390 OA
ATOM     33  H3  UNL     1      21.145  18.131  26.798  1.00  0.00     0.210 HD
ENDBRANCH  19  32
BRANCH  20  34
HETATM   34  O4  UNL     1      21.579  16.692  23.015  1.00  0.00    -0.388 OA
ATOM     35  H4  UNL     1      22.246  16.332  23.588  1.00  0.00     0.210 HD
ENDBRANCH  20  34
ENDBRANCH  15  16
BRANCH   1  36
HETATM   36  C5  UNL     1      13.892  21.407  21.404  1.00  0.00     0.121 C 
BRANCH  36  37
HETATM   37  C4  UNL     1      13.524  22.700  22.014  1.00  0.00     0.020 C 
BRANCH  37  38
HETATM   38  C3  UNL     1      12.116  23.009  22.286  1.00  0.00     0.001 C 
BRANCH  38  39
HETATM   39  C2  UNL     1      11.462  22.502  23.505  1.00  0.00    -0.004 C 
HETATM   40  C1  UNL     1      11.241  23.494  24.606  1.00  0.00     0.005 C 
ENDBRANCH  38  39
ENDBRANCH  37  38
ENDBRANCH  36  37
ENDBRANCH   1  36
TORSDOF 12
ENDMDL
MODEL 3
REMARK VINA RESULT: -7.742368667      2.858      8.293
REMARK  12 active torsions:
REMARK  status: ('A' for Active; 'I' for Inactive)
REMARK    1  A    between atoms: C2_2  and  C3_3 
REMARK    2  A    between atoms: C3_3  and  C4_4 
REMARK    3  A    between atoms: C4_4  and  C5_5 
REMARK    4  A    between atoms: C5_5  and  N1_6 
REMARK    5  A    between atoms: N4_20  and  C14_21 
REMARK    6  A    between atoms: C15_23  and  C16_24 
REMARK    7  A    between atoms: C16_24  and  N5_25 
REMARK       I    between atoms: N5_25  and  C17_27 
REMARK       I    between atoms: C17_27  and  N6_29 
REMARK    8  A    between atoms: N6_29  and  C18_31 
REMARK    9  A    between atoms: C18_31  and  C19_32 
REMARK   10  A    between atoms: C19_32  and  C20_33 
REMARK   11  A    between atoms: C22_35  and  O3_36 
REMARK   12  A    between atoms: C23_38  and  O4_39 
ROOT
HETATM    1  N1  UNL     1      13.894  21.525  21.867  1.00  0.00    -0.374 N 
ATOM      2  H1  UNL     1      13.169  20.873  22.168  1.00  0.00     0.161 HD
HETATM    3  C6  UNL     1      15.108  21.094  21.715  1.00  0.00     0.131 A 
HETATM    4  N2  UNL     1      16.121  21.846  21.331  1.00  0.00    -0.344 N 
ATOM      5  H2  UNL     1      15.984  22.836  21.129  1.00  0.00     0.167 HD
HETATM    6  C7  UNL     1      17.333  21.288  21.210  1.00  0.00     0.015 A 
HETATM    7  C8  UNL     1      18.481  22.149  20.773  1.00  0.00     0.069 C 
HETATM    8  C9  UNL     1      17.594  19.947  21.467  1.00  0.00    -0.010 A 
HETATM    9  C10 UNL     1      18.939  19.378  21.319  1.00  0.00     0.052 C 
HETATM   10  C11 UNL     1      16.550  19.161  21.866  1.00  0.00     0.076 A 
HETATM   11  C12 UNL     1      15.308  19.752  21.985  1.00  0.00     0.105 A 
HETATM   12  N3  UNL     1      14.476  18.772  22.386  1.00  0.00    -0.347 N 
ATOM     13  H3  UNL     1      13.477  18.874  22.569  1.00  0.00     0.167 HD
HETATM   14  C13 UNL     1      15.180  17.648  22.501  1.00  0.00     0.186 A 
HETATM   15  N4  UNL     1      16.492  17.871  22.178  1.00  0.00    -0.310 N 
ENDROOT
BRANCH  15  16
HETATM   16  C14 UNL     1      17.469  16.839  22.215  1.00  0.00     0.261 C 
HETATM   17  O1  UNL     1      18.185  17.044  23.430  1.00  0.00    -0.354 OA
HETATM   18  C15 UNL     1      18.185  15.925  24.159  1.00  0.00     0.173 C 
HETATM   19  C22 UNL     1      17.119  14.990  23.705  1.00  0.00     0.181 C 
HETATM   20  C23 UNL     1      16.857  15.450  22.320  1.00  0.00     0.198 C 
BRANCH  18  21
HETATM   21  C16 UNL     1      19.569  15.313  24.126  1.00  0.00     0.159 C 
BRANCH  21  22
HETATM   22  N5  UNL     1      20.575  16.200  23.651  1.00  0.00    -0.341 N 
HETATM   23  C17 UNL     1      21.238  17.062  24.555  1.00  0.00     0.316 C 
HETATM   24  O2  UNL     1      20.943  17.046  25.765  1.00  0.00    -0.247 OA
HETATM   25  N6  UNL     1      22.263  17.977  24.114  1.00  0.00    -0.343 N 
ATOM     26  H6  UNL     1      22.540  18.028  23.134  1.00  0.00     0.164 HD
ATOM     27  H5  UNL     1      20.818  16.214  22.660  1.00  0.00     0.164 HD
BRANCH  25  28
HETATM   28  C18 UNL     1      22.873  18.801  25.093  1.00  0.00     0.124 C 
BRANCH  28  29
HETATM   29  C19 UNL     1      22.536  20.240  25.111  1.00  0.00     0.019 C 
BRANCH  29  30
HETATM   30  C20 UNL     1      21.258  20.663  25.727  1.00  0.00    -0.003 C 
HETATM   31  C21 UNL     1      21.021  20.292  27.144  1.00  0.00     0.005 C 
ENDBRANCH  29  30
ENDBRANCH  28  29
ENDBRANCH  25  28
ENDBRANCH  21  22
ENDBRANCH  18  21
BRANCH  19  32
HETATM   32  O3  UNL     1      15.964  15.047  24.482  1.00  0.00    -0.390 OA
ATOM     33  H3  UNL     1      15.947  15.786  25.079  1.00  0.00     0.210 HD
ENDBRANCH  19  32
BRANCH  20  34
HETATM   34  O4  UNL     1      17.420  14.580  21.365  1.00  0.00    -0.388 OA
ATOM     35  H4  UNL     1      16.818  14.435  20.645  1.00  0.00     0.210 HD
ENDBRANCH  20  34
ENDBRANCH  15  16
BRANCH   1  36
HETATM   36  C5  UNL     1      13.535  22.929  21.616  1.00  0.00     0.121 C 
BRANCH  36  37
HETATM   37  C4  UNL     1      12.199  23.262  22.149  1.00  0.00     0.020 C 
BRANCH  37  38
HETATM   38  C3  UNL     1      11.672  22.539  23.313  1.00  0.00     0.001 C 
BRANCH  38  39
HETATM   39  C2  UNL     1      11.342  23.262  24.554  1.00  0.00    -0.004 C 
HETATM   40  C1  UNL     1      11.805  24.683  24.642  1.00  0.00     0.005 C 
ENDBRANCH  38  39
ENDBRANCH  37  38
ENDBRANCH  36  37
ENDBRANCH   1  36
TORSDOF 12
ENDMDL
MODEL 4
REMARK VINA RESULT: -7.702212835      3.668      9.991
REMARK  12 active torsions:
REMARK  status: ('A' for Active; 'I' for Inactive)
REMARK    1  A    between atoms: C2_2  and  C3_3 
REMARK    2  A    between atoms: C3_3  and  C4_4 
REMARK    3  A    between atoms: C4_4  and  C5_5 
REMARK    4  A    between atoms: C5_5  and  N1_6 
REMARK    5  A    between atoms: N4_20  and  C14_21 
REMARK    6  A    between atoms: C15_23  and  C16_24 
REMARK    7  A    between atoms: C16_24  and  N5_25 
REMARK       I    between atoms: N5_25  and  C17_27 
REMARK       I    between atoms: C17_27  and  N6_29 
REMARK    8  A    between atoms: N6_29  and  C18_31 
REMARK    9  A    between atoms: C18_31  and  C19_32 
REMARK   10  A    between atoms: C19_32  and  C20_33 
REMARK   11  A    between atoms: C22_35  and  O3_36 
REMARK   12  A    between atoms: C23_38  and  O4_39 
ROOT
HETATM    1  N1  UNL     1      14.809  20.785  21.954  1.00  0.00    -0.374 N 
ATOM      2  H1  UNL     1      14.661  20.406  22.890  1.00  0.00     0.161 HD
HETATM    3  C6  UNL     1      15.987  20.702  21.418  1.00  0.00     0.131 A 
HETATM    4  N2  UNL     1      16.291  21.156  20.218  1.00  0.00    -0.344 N 
ATOM      5  H2  UNL     1      15.582  21.608  19.640  1.00  0.00     0.167 HD
HETATM    6  C7  UNL     1      17.545  21.015  19.769  1.00  0.00     0.015 A 
HETATM    7  C8  UNL     1      17.884  21.534  18.403  1.00  0.00     0.069 C 
HETATM    8  C9  UNL     1      18.562  20.410  20.500  1.00  0.00    -0.010 A 
HETATM    9  C10 UNL     1      19.923  20.276  19.967  1.00  0.00     0.052 C 
HETATM   10  C11 UNL     1      18.256  19.937  21.745  1.00  0.00     0.076 A 
HETATM   11  C12 UNL     1      16.959  20.091  22.191  1.00  0.00     0.105 A 
HETATM   12  N3  UNL     1      16.930  19.549  23.423  1.00  0.00    -0.347 N 
ATOM     13  H3  UNL     1      16.116  19.498  24.035  1.00  0.00     0.167 HD
HETATM   14  C13 UNL     1      18.149  19.091  23.704  1.00  0.00     0.186 A 
HETATM   15  N4  UNL     1      19.001  19.326  22.658  1.00  0.00    -0.310 N 
ENDROOT
BRANCH  15  16
HETATM   16  C14 UNL     1      20.368  18.938  22.691  1.00  0.00     0.261 C 
HETATM   17  O1  UNL     1      21.057  20.041  23.272  1.00  0.00    -0.354 OA
HETATM   18  C15 UNL     1      21.781  19.633  24.318  1.00  0.00     0.173 C 
HETATM   19  C22 UNL     1      21.323  18.301  24.800  1.00  0.00     0.181 C 
HETATM   20  C23 UNL     1      20.624  17.754  23.612  1.00  0.00     0.198 C 
BRANCH  18  21
HETATM   21  C16 UNL     1      23.248  19.661  23.946  1.00  0.00     0.159 C 
BRANCH  21  22
HETATM   22  N5  UNL     1      24.089  19.005  24.887  1.00  0.00    -0.341 N 
HETATM   23  C17 UNL     1      24.622  17.731  24.586  1.00  0.00     0.316 C 
HETATM   24  O2  UNL     1      24.358  17.182  23.499  1.00  0.00    -0.247 OA
HETATM   25  N6  UNL     1      25.479  17.031  25.513  1.00  0.00    -0.343 N 
ATOM     26  H6  UNL     1      25.724  17.437  26.416  1.00  0.00     0.164 HD
ATOM     27  H5  UNL     1      24.307  19.453  25.777  1.00  0.00     0.164 HD
BRANCH  25  28
HETATM   28  C18 UNL     1      25.967  15.759  25.124  1.00  0.00     0.124 C 
BRANCH  28  29
HETATM   29  C19 UNL     1      26.805  15.003  26.078  1.00  0.00     0.019 C 
BRANCH  29  30
HETATM   30  C20 UNL     1      26.678  15.297  27.523  1.00  0.00    -0.003 C 
HETATM   31  C21 UNL     1      27.743  16.115  28.155  1.00  0.00     0.005 C 
ENDBRANCH  29  30
ENDBRANCH  28  29
ENDBRANCH  25  28
ENDBRANCH  21  22
ENDBRANCH  18  21
BRANCH  19  32
HETATM   32  O3  UNL     1      20.470  18.372  25.898  1.00  0.00    -0.390 OA
ATOM     33  H3  UNL     1      19.698  18.905  25.743  1.00  0.00     0.210 HD
ENDBRANCH  19  32
BRANCH  20  34
HETATM   34  O4  UNL     1      21.393  16.769  22.960  1.00  0.00    -0.388 OA
ATOM     35  H4  UNL     1      20.842  16.059  22.653  1.00  0.00     0.210 HD
ENDBRANCH  20  34
ENDBRANCH  15  16
BRANCH   1  36
HETATM   36  C5  UNL     1      13.680  21.410  21.249  1.00  0.00     0.121 C 
BRANCH  36  37
HETATM   37  C4  UNL     1      13.399  22.770  21.750  1.00  0.00     0.020 C 
BRANCH  37  38
HETATM   38  C3  UNL     1      12.048  23.121  22.201  1.00  0.00     0.001 C 
BRANCH  38  39
HETATM   39  C2  UNL     1      11.485  22.512  23.419  1.00  0.00    -0.004 C 
HETATM   40  C1  UNL     1      11.212  23.439  24.564  1.00  0.00     0.005 C 
ENDBRANCH  38  39
ENDBRANCH  37  38
ENDBRANCH  36  37
ENDBRANCH   1  36
TORSDOF 12
ENDMDL
MODEL 5
REMARK VINA RESULT: -7.684960573      3.662      9.935
REMARK  12 active torsions:
REMARK  status: ('A' for Active; 'I' for Inactive)
REMARK    1  A    between atoms: C2_2  and  C3_3 
REMARK    2  A    between atoms: C3_3  and  C4_4 
REMARK    3  A    between atoms: C4_4  and  C5_5 
REMARK    4  A    between atoms: C5_5  and  N1_6 
REMARK    5  A    between atoms: N4_20  and  C14_21 
REMARK    6  A    between atoms: C15_23  and  C16_24 
REMARK    7  A    between atoms: C16_24  and  N5_25 
REMARK       I    between atoms: N5_25  and  C17_27 
REMARK       I    between atoms: C17_27  and  N6_29 
REMARK    8  A    between atoms: N6_29  and  C18_31 
REMARK    9  A    between atoms: C18_31  and  C19_32 
REMARK   10  A    between atoms: C19_32  and  C20_33 
REMARK   11  A    between atoms: C22_35  and  O3_36 
REMARK   12  A    between atoms: C23_38  and  O4_39 
ROOT
HETATM    1  N1  UNL     1      15.056  20.661  22.158  1.00  0.00    -0.374 N 
ATOM      2  H1  UNL     1      14.894  20.275  23.088  1.00  0.00     0.161 HD
HETATM    3  C6  UNL     1      16.246  20.592  21.645  1.00  0.00     0.131 A 
HETATM    4  N2  UNL     1      16.570  21.056  20.454  1.00  0.00    -0.344 N 
ATOM      5  H2  UNL     1      15.869  21.506  19.865  1.00  0.00     0.167 HD
HETATM    6  C7  UNL     1      17.834  20.928  20.029  1.00  0.00     0.015 A 
HETATM    7  C8  UNL     1      18.195  21.459  18.674  1.00  0.00     0.069 C 
HETATM    8  C9  UNL     1      18.841  20.327  20.776  1.00  0.00    -0.010 A 
HETATM    9  C10 UNL     1      20.213  20.206  20.270  1.00  0.00     0.052 C 
HETATM   10  C11 UNL     1      18.514  19.842  22.011  1.00  0.00     0.076 A 
HETATM   11  C12 UNL     1      17.207  19.983  22.433  1.00  0.00     0.105 A 
HETATM   12  N3  UNL     1      17.159  19.432  23.660  1.00  0.00    -0.347 N 
ATOM     13  H3  UNL     1      16.332  19.371  24.256  1.00  0.00     0.167 HD
HETATM   14  C13 UNL     1      18.375  18.982  23.963  1.00  0.00     0.186 A 
HETATM   15  N4  UNL     1      19.245  19.231  22.936  1.00  0.00    -0.310 N 
ENDROOT
BRANCH  15  16
HETATM   16  C14 UNL     1      20.615  18.853  22.993  1.00  0.00     0.261 C 
HETATM   17  O1  UNL     1      21.271  19.923  23.667  1.00  0.00    -0.354 OA
HETATM   18  C15 UNL     1      21.961  19.456  24.710  1.00  0.00     0.173 C 
HETATM   19  C22 UNL     1      21.501  18.091  25.090  1.00  0.00     0.181 C 
HETATM   20  C23 UNL     1      20.851  17.616  23.846  1.00  0.00     0.198 C 
BRANCH  18  21
HETATM   21  C16 UNL     1      23.440  19.520  24.394  1.00  0.00     0.159 C 
BRANCH  21  22
HETATM   22  N5  UNL     1      24.190  18.444  24.945  1.00  0.00    -0.341 N 
HETATM   23  C17 UNL     1      24.997  17.644  24.104  1.00  0.00     0.316 C 
HETATM   24  O2  UNL     1      25.052  17.879  22.881  1.00  0.00    -0.247 OA
HETATM   25  N6  UNL     1      25.772  16.543  24.622  1.00  0.00    -0.343 N 
ATOM     26  H6  UNL     1      25.759  16.309  25.616  1.00  0.00     0.164 HD
ATOM     27  H5  UNL     1      24.146  18.250  25.946  1.00  0.00     0.164 HD
BRANCH  25  28
HETATM   28  C18 UNL     1      26.552  15.798  23.703  1.00  0.00     0.124 C 
BRANCH  28  29
HETATM   29  C19 UNL     1      25.953  14.598  23.082  1.00  0.00     0.019 C 
BRANCH  29  30
HETATM   30  C20 UNL     1      25.595  14.645  21.646  1.00  0.00    -0.003 C 
HETATM   31  C21 UNL     1      24.157  14.761  21.299  1.00  0.00     0.005 C 
ENDBRANCH  29  30
ENDBRANCH  28  29
ENDBRANCH  25  28
ENDBRANCH  21  22
ENDBRANCH  18  21
BRANCH  19  32
HETATM   32  O3  UNL     1      20.609  18.086  26.159  1.00  0.00    -0.390 OA
ATOM     33  H3  UNL     1      20.904  17.562  26.894  1.00  0.00     0.210 HD
ENDBRANCH  19  32
BRANCH  20  34
HETATM   34  O4  UNL     1      21.653  16.680  23.161  1.00  0.00    -0.388 OA
ATOM     35  H4  UNL     1      22.401  16.427  23.688  1.00  0.00     0.210 HD
ENDBRANCH  20  34
ENDBRANCH  15  16
BRANCH   1  36
HETATM   36  C5  UNL     1      13.937  21.282  21.435  1.00  0.00     0.121 C 
BRANCH  36  37
HETATM   37  C4  UNL     1      13.610  22.621  21.964  1.00  0.00     0.020 C 
BRANCH  37  38
HETATM   38  C3  UNL     1      12.211  22.996  22.201  1.00  0.00     0.001 C 
BRANCH  38  39
HETATM   39  C2  UNL     1      11.478  22.452  23.358  1.00  0.00    -0.004 C 
HETATM   40  C1  UNL     1      11.183  23.410  24.471  1.00  0.00     0.005 C 
ENDBRANCH  38  39
ENDBRANCH  37  38
ENDBRANCH  36  37
ENDBRANCH   1  36
TORSDOF 12
ENDMDL
