MODEL 1
REMARK VINA RESULT: -9.156987873      0.000      0.000
REMARK  14 active torsions:
REMARK  status: ('A' for Active; 'I' for Inactive)
REMARK    1  A    between atoms: O1_1  and  C1_3 
REMARK    2  A    between atoms: C1_3  and  C2_4 
REMARK    3  A    between atoms: C2_4  and  O2_5 
REMARK    4  A    between atoms: C2_4  and  C3_7 
REMARK    5  A    between atoms: C3_7  and  N1_8 
REMARK    6  A    between atoms: N1_8  and  C4_10 
REMARK    7  A    between atoms: C4_10  and  C5_11 
REMARK    8  A    between atoms: C4_10  and  C21_38 
REMARK    9  A    between atoms: C5_11  and  N2_12 
REMARK   10  A    between atoms: N2_12  and  C6_13 
REMARK   11  A    between atoms: C7_16  and  C8_17 
REMARK   12  A    between atoms: C14_25  and  N5_26 
REMARK   13  A    between atoms: N5_26  and  C15_28 
REMARK   14  A    between atoms: C15_28  and  C16_29 
ROOT
HETATM    1  C6  UNL     1      17.842  21.179  20.593  1.00  0.00     0.274 A 
HETATM    2  N3  UNL     1      17.677  21.002  19.251  1.00  0.00    -0.301 N 
ATOM      3  H3  UNL     1      18.371  20.441  18.756  1.00  0.00     0.171 HD
HETATM    4  C7  UNL     1      16.667  21.514  18.541  1.00  0.00     0.134 A 
HETATM    5  N4  UNL     1      15.742  22.254  19.173  1.00  0.00    -0.176 N 
ATOM      6  H4  UNL     1      14.961  22.654  18.652  1.00  0.00     0.186 HD
HETATM    7  C14 UNL     1      15.850  22.463  20.481  1.00  0.00     0.683 A 
HETATM    8  N7  UNL     1      16.870  21.944  21.183  1.00  0.00    -0.149 N 
ATOM      9  H7  UNL     1      16.923  22.123  22.186  1.00  0.00     0.188 HD
ENDROOT
BRANCH   1  10
HETATM   10  N2  UNL     1      18.743  20.717  21.181  1.00  0.00    -0.385 NA
BRANCH  10  11
HETATM   11  C5  UNL     1      19.728  20.178  21.849  1.00  0.00     0.188 C 
BRANCH  11  12
HETATM   12  C4  UNL     1      19.338  19.256  23.036  1.00  0.00     0.163 C 
BRANCH  12  13
HETATM   13  N1  UNL     1      19.309  17.941  22.553  1.00  0.00    -0.406 N 
ATOM     14  H1  UNL     1      20.169  17.393  22.547  1.00  0.00     0.154 HD
BRANCH  13  15
HETATM   15  C3  UNL     1      18.125  17.362  22.077  1.00  0.00     0.148 C 
BRANCH  15  16
HETATM   16  C2  UNL     1      16.969  17.948  22.908  1.00  0.00     0.159 C 
BRANCH  16  17
HETATM   17  C1  UNL     1      15.900  18.503  22.011  1.00  0.00     0.197 C 
BRANCH  17  18
HETATM   18  O1  UNL     1      15.351  19.639  22.597  1.00  0.00    -0.398 OA
ATOM     19  H1  UNL     1      14.853  20.119  21.946  1.00  0.00     0.209 HD
ENDBRANCH  17  18
ENDBRANCH  16  17
BRANCH  16  20
HETATM   20  O2  UNL     1      16.437  16.938  23.721  1.00  0.00    -0.392 OA
ATOM     21  H2  UNL     1      17.097  16.629  24.331  1.00  0.00     0.210 HD
ENDBRANCH  16  20
ENDBRANCH  15  16
ENDBRANCH  13  15
ENDBRANCH  12  13
BRANCH  12  22
HETATM   22  C21 UNL     1      20.214  19.551  24.178  1.00  0.00    -0.030 A 
HETATM   23  C22 UNL     1      19.725  19.614  25.464  1.00  0.00     0.009 A 
HETATM   24  C23 UNL     1      20.484  19.864  26.587  1.00  0.00     0.001 A 
HETATM   25  C24 UNL     1      21.837  20.061  26.370  1.00  0.00     0.000 A 
HETATM   26  C25 UNL     1      22.386  20.010  25.122  1.00  0.00     0.001 A 
HETATM   27  C26 UNL     1      21.574  19.755  24.029  1.00  0.00     0.009 A 
ENDBRANCH  12  22
ENDBRANCH  11  12
ENDBRANCH  10  11
ENDBRANCH   1  10
BRANCH   4  28
HETATM   28  C8  UNL     1      16.626  21.232  17.104  1.00  0.00     0.009 A 
HETATM   29  C9  UNL     1      17.381  21.944  16.224  1.00  0.00     0.015 A 
HETATM   30  C10 UNL     1      17.314  21.642  14.864  1.00  0.00     0.001 A 
HETATM   31  C11 UNL     1      16.475  20.619  14.429  1.00  0.00     0.000 A 
HETATM   32  C12 UNL     1      15.723  19.918  15.342  1.00  0.00     0.001 A 
HETATM   33  C13 UNL     1      15.781  20.206  16.684  1.00  0.00     0.015 A 
ENDBRANCH   4  28
BRANCH   7  34
HETATM   34  N5  UNL     1      14.956  23.185  21.106  1.00  0.00    -0.220 N 
ATOM     35  H5  UNL     1      15.220  23.775  21.895  1.00  0.00     0.178 HD
BRANCH  34  36
HETATM   36  C15 UNL     1      13.597  23.128  20.656  1.00  0.00     0.195 C 
BRANCH  36  37
HETATM   37  C16 UNL     1      12.734  22.464  21.693  1.00  0.00     0.027 A 
HETATM   38  C17 UNL     1      12.077  23.215  22.648  1.00  0.00     0.027 A 
HETATM   39  C18 UNL     1      11.288  22.549  23.581  1.00  0.00     0.003 A 
HETATM   40  C19 UNL     1      11.163  21.175  23.556  1.00  0.00     0.017 A 
HETATM   41  C20 UNL     1      11.847  20.495  22.572  1.00  0.00     0.088 A 
HETATM   42  N6  UNL     1      12.626  21.131  21.649  1.00  0.00    -0.368 N 
ATOM     43  H6  UNL     1      13.120  20.597  20.934  1.00  0.00     0.165 HD
ENDBRANCH  36  37
ENDBRANCH  34  36
ENDBRANCH   7  34
TORSDOF 14
ENDMDL
MODEL 2
REMARK VINA RESULT: -9.072022325      0.791      1.316
REMARK  14 active torsions:
REMARK  status: ('A' for Active; 'I' for Inactive)
REMARK    1  A    between atoms: O1_1  and  C1_3 
REMARK    2  A    between atoms: C1_3  and  C2_4 
REMARK    3  A    between atoms: C2_4  and  O2_5 
REMARK    4  A    between atoms: C2_4  and  C3_7 
REMARK    5  A    between atoms: C3_7  and  N1_8 
REMARK    6  A    between atoms: N1_8  and  C4_10 
REMARK    7  A    between atoms: C4_10  and  C5_11 
REMARK    8  A    between atoms: C4_10  and  C21_38 
REMARK    9  A    between atoms: C5_11  and  N2_12 
REMARK   10  A    between atoms: N2_12  and  C6_13 
REMARK   11  A    between atoms: C7_16  and  C8_17 
REMARK   12  A    between atoms: C14_25  and  N5_26 
REMARK   13  A    between atoms: N5_26  and  C15_28 
REMARK   14  A    between atoms: C15_28  and  C16_29 
ROOT
HETATM    1  C6  UNL     1      17.676  21.199  20.738  1.00  0.00     0.274 A 
HETATM    2  N3  UNL     1      17.530  20.987  19.399  1.00  0.00    -0.301 N 
ATOM      3  H3  UNL     1      18.215  20.393  18.933  1.00  0.00     0.171 HD
HETATM    4  C7  UNL     1      16.547  21.506  18.657  1.00  0.00     0.134 A 
HETATM    5  N4  UNL     1      15.632  22.290  19.251  1.00  0.00    -0.176 N 
ATOM      6  H4  UNL     1      14.872  22.696  18.704  1.00  0.00     0.186 HD
HETATM    7  C14 UNL     1      15.723  22.534  20.554  1.00  0.00     0.683 A 
HETATM    8  N7  UNL     1      16.716  22.007  21.289  1.00  0.00    -0.149 N 
ATOM      9  H7  UNL     1      16.756  22.214  22.287  1.00  0.00     0.188 HD
ENDROOT
BRANCH   1  10
HETATM   10  N2  UNL     1      18.554  20.729  21.355  1.00  0.00    -0.385 NA
BRANCH  10  11
HETATM   11  C5  UNL     1      19.511  20.200  22.070  1.00  0.00     0.188 C 
BRANCH  11  12
HETATM   12  C4  UNL     1      19.083  19.458  23.364  1.00  0.00     0.163 C 
BRANCH  12  13
HETATM   13  N1  UNL     1      18.756  18.143  23.004  1.00  0.00    -0.406 N 
ATOM     14  H1  UNL     1      19.437  17.582  22.493  1.00  0.00     0.154 HD
BRANCH  13  15
HETATM   15  C3  UNL     1      17.514  17.583  23.329  1.00  0.00     0.148 C 
BRANCH  15  16
HETATM   16  C2  UNL     1      16.706  17.483  22.023  1.00  0.00     0.159 C 
BRANCH  16  17
HETATM   17  C1  UNL     1      15.611  18.510  21.998  1.00  0.00     0.197 C 
BRANCH  17  18
HETATM   18  O1  UNL     1      15.908  19.522  22.904  1.00  0.00    -0.398 OA
ATOM     19  H1  UNL     1      15.705  20.364  22.514  1.00  0.00     0.209 HD
ENDBRANCH  17  18
ENDBRANCH  16  17
BRANCH  16  20
HETATM   20  O2  UNL     1      17.572  17.678  20.937  1.00  0.00    -0.392 OA
ATOM     21  H2  UNL     1      18.205  16.971  20.895  1.00  0.00     0.210 HD
ENDBRANCH  16  20
ENDBRANCH  15  16
ENDBRANCH  13  15
ENDBRANCH  12  13
BRANCH  12  22
HETATM   22  C21 UNL     1      20.114  19.654  24.391  1.00  0.00    -0.030 A 
HETATM   23  C22 UNL     1      19.797  19.695  25.731  1.00  0.00     0.009 A 
HETATM   24  C23 UNL     1      20.708  19.853  26.755  1.00  0.00     0.001 A 
HETATM   25  C24 UNL     1      22.032  19.979  26.370  1.00  0.00     0.000 A 
HETATM   26  C25 UNL     1      22.413  19.947  25.060  1.00  0.00     0.001 A 
HETATM   27  C26 UNL     1      21.454  19.784  24.074  1.00  0.00     0.009 A 
ENDBRANCH  12  22
ENDBRANCH  11  12
ENDBRANCH  10  11
ENDBRANCH   1  10
BRANCH   4  28
HETATM   28  C8  UNL     1      16.522  21.184  17.228  1.00  0.00     0.009 A 
HETATM   29  C9  UNL     1      15.751  20.171  16.747  1.00  0.00     0.015 A 
HETATM   30  C10 UNL     1      15.755  19.898  15.379  1.00  0.00     0.001 A 
HETATM   31  C11 UNL     1      16.547  20.665  14.529  1.00  0.00     0.000 A 
HETATM   32  C12 UNL     1      17.316  21.683  15.045  1.00  0.00     0.001 A 
HETATM   33  C13 UNL     1      17.320  21.960  16.390  1.00  0.00     0.015 A 
ENDBRANCH   4  28
BRANCH   7  34
HETATM   34  N5  UNL     1      14.839  23.299  21.142  1.00  0.00    -0.220 N 
ATOM     35  H5  UNL     1      15.114  23.935  21.890  1.00  0.00     0.178 HD
BRANCH  34  36
HETATM   36  C15 UNL     1      13.475  23.221  20.711  1.00  0.00     0.195 C 
BRANCH  36  37
HETATM   37  C16 UNL     1      12.627  22.595  21.782  1.00  0.00     0.027 A 
HETATM   38  C17 UNL     1      12.444  21.227  21.826  1.00  0.00     0.027 A 
HETATM   39  C18 UNL     1      11.652  20.701  22.843  1.00  0.00     0.003 A 
HETATM   40  C19 UNL     1      11.064  21.521  23.783  1.00  0.00     0.017 A 
HETATM   41  C20 UNL     1      11.294  22.875  23.676  1.00  0.00     0.088 A 
HETATM   42  N6  UNL     1      12.067  23.409  22.685  1.00  0.00    -0.368 N 
ATOM     43  H6  UNL     1      12.216  24.417  22.633  1.00  0.00     0.165 HD
ENDBRANCH  36  37
ENDBRANCH  34  36
ENDBRANCH   7  34
TORSDOF 14
ENDMDL
MODEL 3
REMARK VINA RESULT: -9.067900551      0.290      1.168
REMARK  14 active torsions:
REMARK  status: ('A' for Active; 'I' for Inactive)
REMARK    1  A    between atoms: O1_1  and  C1_3 
REMARK    2  A    between atoms: C1_3  and  C2_4 
REMARK    3  A    between atoms: C2_4  and  O2_5 
REMARK    4  A    between atoms: C2_4  and  C3_7 
REMARK    5  A    between atoms: C3_7  and  N1_8 
REMARK    6  A    between atoms: N1_8  and  C4_10 
REMARK    7  A    between atoms: C4_10  and  C5_11 
REMARK    8  A    between atoms: C4_10  and  C21_38 
REMARK    9  A    between atoms: C5_11  and  N2_12 
REMARK   10  A    between atoms: N2_12  and  C6_13 
REMARK   11  A    between atoms: C7_16  and  C8_17 
REMARK   12  A    between atoms: C14_25  and  N5_26 
REMARK   13  A    between atoms: N5_26  and  C15_28 
REMARK   14  A    between atoms: C15_28  and  C16_29 
ROOT
HETATM    1  C6  UNL     1      17.750  21.064  20.762  1.00  0.00     0.274 A 
HETATM    2  N3  UNL     1      17.596  20.907  19.417  1.00  0.00    -0.301 N 
ATOM      3  H3  UNL     1      18.276  20.327  18.924  1.00  0.00     0.171 HD
HETATM    4  C7  UNL     1      16.614  21.462  18.700  1.00  0.00     0.134 A 
HETATM    5  N4  UNL     1      15.708  22.229  19.328  1.00  0.00    -0.176 N 
ATOM      6  H4  UNL     1      14.948  22.662  18.801  1.00  0.00     0.186 HD
HETATM    7  C14 UNL     1      15.806  22.420  20.640  1.00  0.00     0.683 A 
HETATM    8  N7  UNL     1      16.798  21.857  21.349  1.00  0.00    -0.149 N 
ATOM      9  H7  UNL     1      16.844  22.023  22.354  1.00  0.00     0.188 HD
ENDROOT
BRANCH   1  10
HETATM   10  N2  UNL     1      18.626  20.564  21.356  1.00  0.00    -0.385 NA
BRANCH  10  11
HETATM   11  C5  UNL     1      19.582  19.981  22.030  1.00  0.00     0.188 C 
BRANCH  11  12
HETATM   12  C4  UNL     1      19.146  19.084  23.219  1.00  0.00     0.163 C 
BRANCH  12  13
HETATM   13  N1  UNL     1      19.167  17.756  22.771  1.00  0.00    -0.406 N 
ATOM     14  H1  UNL     1      20.002  17.191  22.924  1.00  0.00     0.154 HD
BRANCH  13  15
HETATM   15  C3  UNL     1      18.066  17.188  22.117  1.00  0.00     0.148 C 
BRANCH  15  16
HETATM   16  C2  UNL     1      16.801  17.754  22.785  1.00  0.00     0.159 C 
BRANCH  16  17
HETATM   17  C1  UNL     1      15.788  18.154  21.751  1.00  0.00     0.197 C 
BRANCH  17  18
HETATM   18  O1  UNL     1      15.063  19.246  22.215  1.00  0.00    -0.398 OA
ATOM     19  H1  UNL     1      14.638  19.676  21.482  1.00  0.00     0.209 HD
ENDBRANCH  17  18
ENDBRANCH  16  17
BRANCH  16  20
HETATM   20  O2  UNL     1      16.260  16.777  23.634  1.00  0.00    -0.392 OA
ATOM     21  H2  UNL     1      16.466  15.909  23.305  1.00  0.00     0.210 HD
ENDBRANCH  16  20
ENDBRANCH  15  16
ENDBRANCH  13  15
ENDBRANCH  12  13
BRANCH  12  22
HETATM   22  C21 UNL     1      19.955  19.426  24.397  1.00  0.00    -0.030 A 
HETATM   23  C22 UNL     1      21.212  19.974  24.273  1.00  0.00     0.009 A 
HETATM   24  C23 UNL     1      22.022  20.341  25.327  1.00  0.00     0.001 A 
HETATM   25  C24 UNL     1      21.501  20.127  26.592  1.00  0.00     0.000 A 
HETATM   26  C25 UNL     1      20.262  19.589  26.785  1.00  0.00     0.001 A 
HETATM   27  C26 UNL     1      19.491  19.240  25.688  1.00  0.00     0.009 A 
ENDBRANCH  12  22
ENDBRANCH  11  12
ENDBRANCH  10  11
ENDBRANCH   1  10
BRANCH   4  28
HETATM   28  C8  UNL     1      16.581  21.197  17.259  1.00  0.00     0.009 A 
HETATM   29  C9  UNL     1      15.786  20.223  16.740  1.00  0.00     0.015 A 
HETATM   30  C10 UNL     1      15.783  20.005  15.362  1.00  0.00     0.001 A 
HETATM   31  C11 UNL     1      16.593  20.784  14.542  1.00  0.00     0.000 A 
HETATM   32  C12 UNL     1      17.387  21.762  15.097  1.00  0.00     0.001 A 
HETATM   33  C13 UNL     1      17.399  21.986  16.452  1.00  0.00     0.015 A 
ENDBRANCH   4  28
BRANCH   7  34
HETATM   34  N5  UNL     1      14.930  23.167  21.261  1.00  0.00    -0.220 N 
ATOM     35  H5  UNL     1      15.206  23.742  22.057  1.00  0.00     0.178 HD
BRANCH  34  36
HETATM   36  C15 UNL     1      13.574  23.158  20.798  1.00  0.00     0.195 C 
BRANCH  36  37
HETATM   37  C16 UNL     1      12.687  22.476  21.803  1.00  0.00     0.027 A 
HETATM   38  C17 UNL     1      12.056  23.203  22.792  1.00  0.00     0.027 A 
HETATM   39  C18 UNL     1      11.242  22.521  23.693  1.00  0.00     0.003 A 
HETATM   40  C19 UNL     1      11.069  21.156  23.602  1.00  0.00     0.017 A 
HETATM   41  C20 UNL     1      11.731  20.499  22.587  1.00  0.00     0.088 A 
HETATM   42  N6  UNL     1      12.533  21.151  21.696  1.00  0.00    -0.368 N 
ATOM     43  H6  UNL     1      13.010  20.634  20.956  1.00  0.00     0.165 HD
ENDBRANCH  36  37
ENDBRANCH  34  36
ENDBRANCH   7  34
TORSDOF 14
ENDMDL
MODEL 4
REMARK VINA RESULT: -8.811108930      1.867      2.476
REMARK  14 active torsions:
REMARK  status: ('A' for Active; 'I' for Inactive)
REMARK    1  A    between atoms: O1_1  and  C1_3 
REMARK    2  A    between atoms: C1_3  and  C2_4 
REMARK    3  A    between atoms: C2_4  and  O2_5 
REMARK    4  A    between atoms: C2_4  and  C3_7 
REMARK    5  A    between atoms: C3_7  and  N1_8 
REMARK    6  A    between atoms: N1_8  and  C4_10 
REMARK    7  A    between atoms: C4_10  and  C5_11 
REMARK    8  A    between atoms: C4_10  and  C21_38 
REMARK    9  A    between atoms: C5_11  and  N2_12 
REMARK   10  A    between atoms: N2_12  and  C6_13 
REMARK   11  A    between atoms: C7_16  and  C8_17 
REMARK   12  A    between atoms: C14_25  and  N5_26 
REMARK   13  A    between atoms: N5_26  and  C15_28 
REMARK   14  A    between atoms: C15_28  and  C16_29 
ROOT
HETATM    1  C6  UNL     1      18.073  21.193  20.425  1.00  0.00     0.274 A 
HETATM    2  N3  UNL     1      17.811  21.028  19.097  1.00  0.00    -0.301 N 
ATOM      3  H3  UNL     1      18.498  20.526  18.535  1.00  0.00     0.171 HD
HETATM    4  C7  UNL     1      16.713  21.479  18.483  1.00  0.00     0.134 A 
HETATM    5  N4  UNL     1      15.794  22.142  19.205  1.00  0.00    -0.176 N 
ATOM      6  H4  UNL     1      14.947  22.495  18.758  1.00  0.00     0.186 HD
HETATM    7  C14 UNL     1      15.994  22.335  20.504  1.00  0.00     0.683 A 
HETATM    8  N7  UNL     1      17.102  21.877  21.110  1.00  0.00    -0.149 N 
ATOM      9  H7  UNL     1      17.224  22.042  22.109  1.00  0.00     0.188 HD
ENDROOT
BRANCH   1  10
HETATM   10  N2  UNL     1      19.048  20.785  20.928  1.00  0.00    -0.385 NA
BRANCH  10  11
HETATM   11  C5  UNL     1      20.133  20.301  21.472  1.00  0.00     0.188 C 
BRANCH  11  12
HETATM   12  C4  UNL     1      19.944  19.128  22.471  1.00  0.00     0.163 C 
BRANCH  12  13
HETATM   13  N1  UNL     1      20.422  17.967  21.847  1.00  0.00    -0.406 N 
ATOM     14  H1  UNL     1      21.225  18.031  21.222  1.00  0.00     0.154 HD
BRANCH  13  15
HETATM   15  C3  UNL     1      19.821  16.720  22.063  1.00  0.00     0.148 C 
BRANCH  15  16
HETATM   16  C2  UNL     1      20.955  15.704  22.286  1.00  0.00     0.159 C 
BRANCH  16  17
HETATM   17  C1  UNL     1      21.280  14.982  21.010  1.00  0.00     0.197 C 
BRANCH  17  18
HETATM   18  O1  UNL     1      22.001  15.829  20.174  1.00  0.00    -0.398 OA
ATOM     19  H1  UNL     1      21.779  15.640  19.269  1.00  0.00     0.209 HD
ENDBRANCH  17  18
ENDBRANCH  16  17
BRANCH  16  20
HETATM   20  O2  UNL     1      22.088  16.384  22.755  1.00  0.00    -0.392 OA
ATOM     21  H2  UNL     1      21.838  17.231  23.105  1.00  0.00     0.210 HD
ENDBRANCH  16  20
ENDBRANCH  15  16
ENDBRANCH  13  15
ENDBRANCH  12  13
BRANCH  12  22
HETATM   22  C21 UNL     1      20.527  19.504  23.765  1.00  0.00    -0.030 A 
HETATM   23  C22 UNL     1      21.868  19.792  23.895  1.00  0.00     0.009 A 
HETATM   24  C23 UNL     1      22.485  20.172  25.068  1.00  0.00     0.001 A 
HETATM   25  C24 UNL     1      21.665  20.260  26.181  1.00  0.00     0.000 A 
HETATM   26  C25 UNL     1      20.329  19.989  26.121  1.00  0.00     0.001 A 
HETATM   27  C26 UNL     1      19.763  19.612  24.914  1.00  0.00     0.009 A 
ENDBRANCH  12  22
ENDBRANCH  11  12
ENDBRANCH  10  11
ENDBRANCH   1  10
BRANCH   4  28
HETATM   28  C8  UNL     1      16.573  21.220  17.048  1.00  0.00     0.009 A 
HETATM   29  C9  UNL     1      15.730  20.258  16.585  1.00  0.00     0.015 A 
HETATM   30  C10 UNL     1      15.625  20.044  15.210  1.00  0.00     0.001 A 
HETATM   31  C11 UNL     1      16.383  20.817  14.336  1.00  0.00     0.000 A 
HETATM   32  C12 UNL     1      17.227  21.783  14.834  1.00  0.00     0.001 A 
HETATM   33  C13 UNL     1      17.339  22.002  16.186  1.00  0.00     0.015 A 
ENDBRANCH   4  28
BRANCH   7  34
HETATM   34  N5  UNL     1      15.107  22.982  21.216  1.00  0.00    -0.220 N 
ATOM     35  H5  UNL     1      15.367  23.429  22.095  1.00  0.00     0.178 HD
BRANCH  34  36
HETATM   36  C15 UNL     1      13.760  23.048  20.731  1.00  0.00     0.195 C 
BRANCH  36  37
HETATM   37  C16 UNL     1      12.814  22.468  21.746  1.00  0.00     0.027 A 
HETATM   38  C17 UNL     1      12.255  23.266  22.724  1.00  0.00     0.027 A 
HETATM   39  C18 UNL     1      11.382  22.677  23.635  1.00  0.00     0.003 A 
HETATM   40  C19 UNL     1      11.082  21.332  23.565  1.00  0.00     0.017 A 
HETATM   41  C20 UNL     1      11.678  20.601  22.561  1.00  0.00     0.088 A 
HETATM   42  N6  UNL     1      12.537  21.161  21.659  1.00  0.00    -0.368 N 
ATOM     43  H6  UNL     1      12.962  20.591  20.928  1.00  0.00     0.165 HD
ENDBRANCH  36  37
ENDBRANCH  34  36
ENDBRANCH   7  34
TORSDOF 14
ENDMDL
MODEL 5
REMARK VINA RESULT: -8.740504944      1.318      1.908
REMARK  14 active torsions:
REMARK  status: ('A' for Active; 'I' for Inactive)
REMARK    1  A    between atoms: O1_1  and  C1_3 
REMARK    2  A    between atoms: C1_3  and  C2_4 
REMARK    3  A    between atoms: C2_4  and  O2_5 
REMARK    4  A    between atoms: C2_4  and  C3_7 
REMARK    5  A    between atoms: C3_7  and  N1_8 
REMARK    6  A    between atoms: N1_8  and  C4_10 
REMARK    7  A    between atoms: C4_10  and  C5_11 
REMARK    8  A    between atoms: C4_10  and  C21_38 
REMARK    9  A    between atoms: C5_11  and  N2_12 
REMARK   10  A    between atoms: N2_12  and  C6_13 
REMARK   11  A    between atoms: C7_16  and  C8_17 
REMARK   12  A    between atoms: C14_25  and  N5_26 
REMARK   13  A    between atoms: N5_26  and  C15_28 
REMARK   14  A    between atoms: C15_28  and  C16_29 
ROOT
HETATM    1  C6  UNL     1      17.205  20.682  20.909  1.00  0.00     0.274 A 
HETATM    2  N3  UNL     1      17.148  20.579  19.550  1.00  0.00    -0.301 N 
ATOM      3  H3  UNL     1      17.741  19.882  19.101  1.00  0.00     0.171 HD
HETATM    4  C7  UNL     1      16.368  21.332  18.769  1.00  0.00     0.134 A 
HETATM    5  N4  UNL     1      15.578  22.256  19.340  1.00  0.00    -0.176 N 
ATOM      6  H4  UNL     1      14.973  22.841  18.763  1.00  0.00     0.186 HD
HETATM    7  C14 UNL     1      15.590  22.404  20.660  1.00  0.00     0.683 A 
HETATM    8  N7  UNL     1      16.379  21.642  21.435  1.00  0.00    -0.149 N 
ATOM      9  H7  UNL     1      16.364  21.781  22.445  1.00  0.00     0.188 HD
ENDROOT
BRANCH   1  10
HETATM   10  N2  UNL     1      17.904  20.007  21.561  1.00  0.00    -0.385 NA
BRANCH  10  11
HETATM   11  C5  UNL     1      18.695  19.237  22.262  1.00  0.00     0.188 C 
BRANCH  11  12
HETATM   12  C4  UNL     1      18.606  19.374  23.805  1.00  0.00     0.163 C 
BRANCH  12  13
HETATM   13  N1  UNL     1      17.944  18.237  24.289  1.00  0.00    -0.406 N 
ATOM     14  H1  UNL     1      17.053  18.348  24.774  1.00  0.00     0.154 HD
BRANCH  13  15
HETATM   15  C3  UNL     1      18.477  16.953  24.121  1.00  0.00     0.148 C 
BRANCH  15  16
HETATM   16  C2  UNL     1      18.017  16.111  25.325  1.00  0.00     0.159 C 
BRANCH  16  17
HETATM   17  C1  UNL     1      18.846  16.424  26.538  1.00  0.00     0.197 C 
BRANCH  17  18
HETATM   18  O1  UNL     1      18.261  17.475  27.236  1.00  0.00    -0.398 OA
ATOM     19  H1  UNL     1      18.926  17.922  27.747  1.00  0.00     0.209 HD
ENDBRANCH  17  18
ENDBRANCH  16  17
BRANCH  16  20
HETATM   20  O2  UNL     1      16.667  16.387  25.583  1.00  0.00    -0.392 OA
ATOM     21  H2  UNL     1      16.218  15.594  25.853  1.00  0.00     0.210 HD
ENDBRANCH  16  20
ENDBRANCH  15  16
ENDBRANCH  13  15
ENDBRANCH  12  13
BRANCH  12  22
HETATM   22  C21 UNL     1      19.944  19.669  24.336  1.00  0.00    -0.030 A 
HETATM   23  C22 UNL     1      20.130  20.053  25.646  1.00  0.00     0.009 A 
HETATM   24  C23 UNL     1      21.352  20.326  26.224  1.00  0.00     0.001 A 
HETATM   25  C24 UNL     1      22.454  20.196  25.395  1.00  0.00     0.000 A 
HETATM   26  C25 UNL     1      22.339  19.818  24.089  1.00  0.00     0.001 A 
HETATM   27  C26 UNL     1      21.085  19.556  23.562  1.00  0.00     0.009 A 
ENDBRANCH  12  22
ENDBRANCH  11  12
ENDBRANCH  10  11
ENDBRANCH   1  10
BRANCH   4  28
HETATM   28  C8  UNL     1      16.417  21.100  17.323  1.00  0.00     0.009 A 
HETATM   29  C9  UNL     1      15.704  20.095  16.745  1.00  0.00     0.015 A 
HETATM   30  C10 UNL     1      15.778  19.910  15.364  1.00  0.00     0.001 A 
HETATM   31  C11 UNL     1      16.578  20.754  14.601  1.00  0.00     0.000 A 
HETATM   32  C12 UNL     1      17.288  21.761  15.213  1.00  0.00     0.001 A 
HETATM   33  C13 UNL     1      17.224  21.953  16.572  1.00  0.00     0.015 A 
ENDBRANCH   4  28
BRANCH   7  34
HETATM   34  N5  UNL     1      14.827  23.303  21.227  1.00  0.00    -0.220 N 
ATOM     35  H5  UNL     1      15.205  23.946  21.922  1.00  0.00     0.178 HD
BRANCH  34  36
HETATM   36  C15 UNL     1      13.446  23.362  20.848  1.00  0.00     0.195 C 
BRANCH  36  37
HETATM   37  C16 UNL     1      12.589  22.722  21.905  1.00  0.00     0.027 A 
HETATM   38  C17 UNL     1      12.056  23.477  22.931  1.00  0.00     0.027 A 
HETATM   39  C18 UNL     1      11.266  22.833  23.879  1.00  0.00     0.003 A 
HETATM   40  C19 UNL     1      11.022  21.478  23.800  1.00  0.00     0.017 A 
HETATM   41  C20 UNL     1      11.587  20.792  22.747  1.00  0.00     0.088 A 
HETATM   42  N6  UNL     1      12.364  21.406  21.808  1.00  0.00    -0.368 N 
ATOM     43  H6  UNL     1      12.769  20.869  21.041  1.00  0.00     0.165 HD
ENDBRANCH  36  37
ENDBRANCH  34  36
ENDBRANCH   7  34
TORSDOF 14
ENDMDL
