MODEL 1
REMARK VINA RESULT: -7.384106065      0.000      0.000
REMARK  15 active torsions:
REMARK  status: ('A' for Active; 'I' for Inactive)
REMARK    1  A    between atoms: C2_2  and  C3_3 
REMARK    2  A    between atoms: C2_2  and  C16_21 
REMARK    3  A    between atoms: C3_3  and  C4_4 
REMARK    4  A    between atoms: C4_4  and  C5_5 
REMARK    5  A    between atoms: C9_10  and  O2_11 
REMARK    6  A    between atoms: C14_17  and  C15_18 
REMARK    7  A    between atoms: C17_22  and  O5_23 
REMARK    8  A    between atoms: C18_26  and  C19_27 
REMARK    9  A    between atoms: C19_27  and  C20_28 
REMARK   10  A    between atoms: C20_28  and  O7_29 
REMARK   11  A    between atoms: C20_28  and  C21_31 
REMARK   12  A    between atoms: C21_31  and  C22_32 
REMARK   13  A    between atoms: C22_32  and  C23_33 
REMARK   14  A    between atoms: C23_33  and  C24_34 
REMARK   15  A    between atoms: C24_34  and  O8_35 
ROOT
HETATM    1  C1  UNL     1      18.451  22.440  21.197  1.00  0.00     0.019 C 
HETATM    2  C2  UNL     1      18.437  21.334  20.572  1.00  0.00    -0.056 C 
ENDROOT
BRANCH   2   3
HETATM    3  C3  UNL     1      19.540  20.441  20.416  1.00  0.00     0.007 C 
BRANCH   3   4
HETATM    4  C4  UNL     1      19.666  19.203  20.825  1.00  0.00     0.013 C 
BRANCH   4   5
HETATM    5  C5  UNL     1      20.007  18.824  22.167  1.00  0.00     0.011 C 
HETATM    6  C6  UNL     1      18.600  17.863  22.258  1.00  0.00     0.163 C 
HETATM    7  O1  UNL     1      18.414  17.084  21.393  1.00  0.00    -0.292 OA
HETATM    8  C7  UNL     1      17.972  18.315  23.469  1.00  0.00     0.092 C 
HETATM    9  C8  UNL     1      17.047  19.501  23.290  1.00  0.00     0.021 C 
HETATM   10  C9  UNL     1      19.126  18.593  24.385  1.00  0.00     0.091 C 
HETATM   11  C10 UNL     1      19.486  17.321  25.109  1.00  0.00     0.051 C 
HETATM   12  C14 UNL     1      20.335  18.460  23.455  1.00  0.00     0.117 C 
HETATM   13  C11 UNL     1      20.573  17.125  24.045  1.00  0.00    -0.020 C 
HETATM   14  C12 UNL     1      21.900  17.003  24.849  1.00  0.00     0.016 C 
HETATM   15  C13 UNL     1      20.405  15.863  23.284  1.00  0.00     0.016 C 
BRANCH  10  16
HETATM   16  O2  UNL     1      19.036  19.723  25.139  1.00  0.00    -0.387 OA
ATOM     17  H2  UNL     1      19.668  19.809  25.843  1.00  0.00     0.210 HD
ENDBRANCH  10  16
BRANCH  12  18
HETATM   18  C15 UNL     1      21.479  19.354  24.036  1.00  0.00     0.190 C 
HETATM   19  O3  UNL     1      22.326  19.731  23.203  1.00  0.00    -0.647 OA
HETATM   20  O4  UNL     1      21.553  19.705  25.346  1.00  0.00    -0.647 OA
ENDBRANCH  12  18
ENDBRANCH   4   5
ENDBRANCH   3   4
ENDBRANCH   2   3
BRANCH   2  21
HETATM   21  C16 UNL     1      17.137  20.911  19.908  1.00  0.00     0.102 C 
HETATM   22  C17 UNL     1      17.009  21.463  18.507  1.00  0.00     0.268 C 
HETATM   23  O6  UNL     1      16.183  22.498  18.943  1.00  0.00    -0.354 OA
HETATM   24  C18 UNL     1      15.992  21.831  20.156  1.00  0.00     0.140 C 
BRANCH  22  25
HETATM   25  O5  UNL     1      18.184  22.017  17.997  1.00  0.00    -0.370 OA
ATOM     26  H5  UNL     1      18.297  21.901  17.061  1.00  0.00     0.212 HD
ENDBRANCH  22  25
BRANCH  24  27
HETATM   27  C19 UNL     1      14.625  21.173  20.113  1.00  0.00     0.064 C 
BRANCH  27  28
HETATM   28  C20 UNL     1      13.538  22.123  20.535  1.00  0.00     0.120 C 
BRANCH  28  29
HETATM   29  O7  UNL     1      13.353  23.171  19.637  1.00  0.00    -0.395 OA
ATOM     30  H7  UNL     1      14.160  23.454  19.225  1.00  0.00     0.210 HD
ENDBRANCH  28  29
BRANCH  28  31
HETATM   31  C21 UNL     1      13.598  22.550  21.965  1.00  0.00     0.032 C 
BRANCH  31  32
HETATM   32  C22 UNL     1      13.085  23.970  22.149  1.00  0.00     0.004 C 
BRANCH  32  33
HETATM   33  C23 UNL     1      12.223  24.091  23.387  1.00  0.00     0.026 C 
BRANCH  33  34
HETATM   34  C24 UNL     1      11.447  22.827  23.697  1.00  0.00     0.164 C 
BRANCH  34  35
HETATM   35  O8  UNL     1      10.335  23.144  24.463  1.00  0.00    -0.401 OA
ATOM     36  H8  UNL     1      10.178  22.451  25.094  1.00  0.00     0.209 HD
ENDBRANCH  34  35
ENDBRANCH  33  34
ENDBRANCH  32  33
ENDBRANCH  31  32
ENDBRANCH  28  31
ENDBRANCH  27  28
ENDBRANCH  24  27
ENDBRANCH   2  21
TORSDOF 15
ENDMDL
MODEL 2
REMARK VINA RESULT: -7.361129455      1.965      3.001
REMARK  15 active torsions:
REMARK  status: ('A' for Active; 'I' for Inactive)
REMARK    1  A    between atoms: C2_2  and  C3_3 
REMARK    2  A    between atoms: C2_2  and  C16_21 
REMARK    3  A    between atoms: C3_3  and  C4_4 
REMARK    4  A    between atoms: C4_4  and  C5_5 
REMARK    5  A    between atoms: C9_10  and  O2_11 
REMARK    6  A    between atoms: C14_17  and  C15_18 
REMARK    7  A    between atoms: C17_22  and  O5_23 
REMARK    8  A    between atoms: C18_26  and  C19_27 
REMARK    9  A    between atoms: C19_27  and  C20_28 
REMARK   10  A    between atoms: C20_28  and  O7_29 
REMARK   11  A    between atoms: C20_28  and  C21_31 
REMARK   12  A    between atoms: C21_31  and  C22_32 
REMARK   13  A    between atoms: C22_32  and  C23_33 
REMARK   14  A    between atoms: C23_33  and  C24_34 
REMARK   15  A    between atoms: C24_34  and  O8_35 
ROOT
HETATM    1  C1  UNL     1      17.917  21.181  21.777  1.00  0.00     0.019 C 
HETATM    2  C2  UNL     1      17.289  20.245  22.363  1.00  0.00    -0.056 C 
ENDROOT
BRANCH   2   3
HETATM    3  C3  UNL     1      17.870  19.204  23.150  1.00  0.00     0.007 C 
BRANCH   3   4
HETATM    4  C4  UNL     1      18.534  19.292  24.276  1.00  0.00     0.013 C 
BRANCH   4   5
HETATM    5  C5  UNL     1      19.736  18.564  24.566  1.00  0.00     0.011 C 
HETATM    6  C6  UNL     1      19.495  18.821  26.235  1.00  0.00     0.163 C 
HETATM    7  O1  UNL     1      18.443  18.538  26.685  1.00  0.00    -0.292 OA
HETATM    8  C7  UNL     1      20.751  19.368  26.668  1.00  0.00     0.092 C 
HETATM    9  C8  UNL     1      20.858  20.874  26.539  1.00  0.00     0.021 C 
HETATM   10  C9  UNL     1      21.764  18.627  25.846  1.00  0.00     0.091 C 
HETATM   11  C10 UNL     1      22.131  17.353  26.563  1.00  0.00     0.051 C 
HETATM   12  C14 UNL     1      20.891  17.865  24.844  1.00  0.00     0.117 C 
HETATM   13  C11 UNL     1      21.106  16.652  25.662  1.00  0.00    -0.020 C 
HETATM   14  C12 UNL     1      21.910  15.527  24.947  1.00  0.00     0.016 C 
HETATM   15  C13 UNL     1      20.024  15.994  26.433  1.00  0.00     0.016 C 
BRANCH  10  16
HETATM   16  O2  UNL     1      22.791  19.368  25.347  1.00  0.00    -0.387 OA
ATOM     17  H2  UNL     1      23.563  19.438  25.896  1.00  0.00     0.210 HD
ENDBRANCH  10  16
BRANCH  12  18
HETATM   18  C15 UNL     1      21.748  17.627  23.557  1.00  0.00     0.190 C 
HETATM   19  O3  UNL     1      21.091  17.477  22.509  1.00  0.00    -0.647 OA
HETATM   20  O4  UNL     1      23.106  17.589  23.567  1.00  0.00    -0.647 OA
ENDBRANCH  12  18
ENDBRANCH   4   5
ENDBRANCH   3   4
ENDBRANCH   2   3
BRANCH   2  21
HETATM   21  C16 UNL     1      15.777  20.201  22.212  1.00  0.00     0.102 C 
HETATM   22  C17 UNL     1      15.352  19.457  20.967  1.00  0.00     0.268 C 
HETATM   23  O6  UNL     1      15.159  20.647  20.268  1.00  0.00    -0.354 OA
HETATM   24  C18 UNL     1      15.201  21.357  21.471  1.00  0.00     0.140 C 
BRANCH  22  25
HETATM   25  O5  UNL     1      16.376  18.739  20.348  1.00  0.00    -0.370 OA
ATOM     26  H5  UNL     1      16.537  17.882  20.726  1.00  0.00     0.212 HD
ENDBRANCH  22  25
BRANCH  24  27
HETATM   27  C19 UNL     1      13.773  21.710  21.850  1.00  0.00     0.064 C 
BRANCH  27  28
HETATM   28  C20 UNL     1      13.369  23.052  21.305  1.00  0.00     0.120 C 
BRANCH  28  29
HETATM   29  O7  UNL     1      14.442  23.772  20.784  1.00  0.00    -0.395 OA
ATOM     30  H7  UNL     1      14.215  24.668  20.565  1.00  0.00     0.210 HD
ENDBRANCH  28  29
BRANCH  28  31
HETATM   31  C21 UNL     1      12.476  23.849  22.197  1.00  0.00     0.032 C 
BRANCH  31  32
HETATM   32  C22 UNL     1      11.787  22.973  23.231  1.00  0.00     0.004 C 
BRANCH  32  33
HETATM   33  C23 UNL     1      11.413  23.764  24.466  1.00  0.00     0.026 C 
BRANCH  33  34
HETATM   34  C24 UNL     1      11.777  25.232  24.365  1.00  0.00     0.164 C 
BRANCH  34  35
HETATM   35  O8  UNL     1      12.836  25.505  25.217  1.00  0.00    -0.401 OA
ATOM     36  H8  UNL     1      12.535  26.059  25.928  1.00  0.00     0.209 HD
ENDBRANCH  34  35
ENDBRANCH  33  34
ENDBRANCH  32  33
ENDBRANCH  31  32
ENDBRANCH  28  31
ENDBRANCH  27  28
ENDBRANCH  24  27
ENDBRANCH   2  21
TORSDOF 15
ENDMDL
MODEL 3
REMARK VINA RESULT: -7.360710936      1.653      2.570
REMARK  15 active torsions:
REMARK  status: ('A' for Active; 'I' for Inactive)
REMARK    1  A    between atoms: C2_2  and  C3_3 
REMARK    2  A    between atoms: C2_2  and  C16_21 
REMARK    3  A    between atoms: C3_3  and  C4_4 
REMARK    4  A    between atoms: C4_4  and  C5_5 
REMARK    5  A    between atoms: C9_10  and  O2_11 
REMARK    6  A    between atoms: C14_17  and  C15_18 
REMARK    7  A    between atoms: C17_22  and  O5_23 
REMARK    8  A    between atoms: C18_26  and  C19_27 
REMARK    9  A    between atoms: C19_27  and  C20_28 
REMARK   10  A    between atoms: C20_28  and  O7_29 
REMARK   11  A    between atoms: C20_28  and  C21_31 
REMARK   12  A    between atoms: C21_31  and  C22_32 
REMARK   13  A    between atoms: C22_32  and  C23_33 
REMARK   14  A    between atoms: C23_33  and  C24_34 
REMARK   15  A    between atoms: C24_34  and  O8_35 
ROOT
HETATM    1  C1  UNL     1      18.726  20.942  20.007  1.00  0.00     0.019 C 
HETATM    2  C2  UNL     1      18.680  20.341  21.125  1.00  0.00    -0.056 C 
ENDROOT
BRANCH   2   3
HETATM    3  C3  UNL     1      19.792  19.789  21.831  1.00  0.00     0.007 C 
BRANCH   3   4
HETATM    4  C4  UNL     1      19.869  19.403  23.081  1.00  0.00     0.013 C 
BRANCH   4   5
HETATM    5  C5  UNL     1      21.095  19.096  23.759  1.00  0.00     0.011 C 
HETATM    6  C6  UNL     1      20.314  17.841  24.612  1.00  0.00     0.163 C 
HETATM    7  O1  UNL     1      19.706  17.050  23.984  1.00  0.00    -0.292 OA
HETATM    8  C7  UNL     1      20.638  18.126  25.983  1.00  0.00     0.092 C 
HETATM    9  C8  UNL     1      19.677  19.075  26.669  1.00  0.00     0.021 C 
HETATM   10  C9  UNL     1      22.042  18.647  25.916  1.00  0.00     0.091 C 
HETATM   11  C10 UNL     1      22.995  17.480  25.989  1.00  0.00     0.051 C 
HETATM   12  C14 UNL     1      22.273  18.800  24.410  1.00  0.00     0.117 C 
HETATM   13  C11 UNL     1      23.057  17.546  24.458  1.00  0.00    -0.020 C 
HETATM   14  C12 UNL     1      24.568  17.718  24.128  1.00  0.00     0.016 C 
HETATM   15  C13 UNL     1      22.608  16.288  23.814  1.00  0.00     0.016 C 
BRANCH  10  16
HETATM   16  O2  UNL     1      22.324  19.718  26.707  1.00  0.00    -0.387 OA
ATOM     17  H2  UNL     1      23.113  20.203  26.491  1.00  0.00     0.210 HD
ENDBRANCH  10  16
BRANCH  12  18
HETATM   18  C15 UNL     1      23.344  19.923  24.209  1.00  0.00     0.190 C 
HETATM   19  O3  UNL     1      23.419  20.375  23.049  1.00  0.00    -0.647 OA
HETATM   20  O4  UNL     1      24.134  20.383  25.213  1.00  0.00    -0.647 OA
ENDBRANCH  12  18
ENDBRANCH   4   5
ENDBRANCH   3   4
ENDBRANCH   2   3
BRANCH   2  21
HETATM   21  C16 UNL     1      17.320  20.170  21.783  1.00  0.00     0.102 C 
HETATM   22  C17 UNL     1      16.757  18.784  21.569  1.00  0.00     0.268 C 
HETATM   23  O6  UNL     1      15.943  19.228  20.528  1.00  0.00    -0.354 OA
HETATM   24  C18 UNL     1      16.168  20.550  20.920  1.00  0.00     0.140 C 
BRANCH  22  25
HETATM   25  O5  UNL     1      17.672  17.863  21.056  1.00  0.00    -0.370 OA
ATOM     26  H5  UNL     1      17.752  17.066  21.566  1.00  0.00     0.212 HD
ENDBRANCH  22  25
BRANCH  24  27
HETATM   27  C19 UNL     1      14.938  21.026  21.671  1.00  0.00     0.064 C 
BRANCH  27  28
HETATM   28  C20 UNL     1      14.275  22.183  20.975  1.00  0.00     0.120 C 
BRANCH  28  29
HETATM   29  O7  UNL     1      15.148  23.239  20.725  1.00  0.00    -0.395 OA
ATOM     30  H7  UNL     1      14.977  23.674  19.898  1.00  0.00     0.210 HD
ENDBRANCH  28  29
BRANCH  28  31
HETATM   31  C21 UNL     1      12.966  22.601  21.560  1.00  0.00     0.032 C 
BRANCH  31  32
HETATM   32  C22 UNL     1      13.036  24.001  22.150  1.00  0.00     0.004 C 
BRANCH  32  33
HETATM   33  C23 UNL     1      12.220  24.107  23.420  1.00  0.00     0.026 C 
BRANCH  33  34
HETATM   34  C24 UNL     1      11.450  22.841  23.741  1.00  0.00     0.164 C 
BRANCH  34  35
HETATM   35  O8  UNL     1      10.331  23.160  24.494  1.00  0.00    -0.401 OA
ATOM     36  H8  UNL     1       9.556  22.804  24.074  1.00  0.00     0.209 HD
ENDBRANCH  34  35
ENDBRANCH  33  34
ENDBRANCH  32  33
ENDBRANCH  31  32
ENDBRANCH  28  31
ENDBRANCH  27  28
ENDBRANCH  24  27
ENDBRANCH   2  21
TORSDOF 15
ENDMDL
MODEL 4
REMARK VINA RESULT: -7.323493962      3.552      5.487
REMARK  15 active torsions:
REMARK  status: ('A' for Active; 'I' for Inactive)
REMARK    1  A    between atoms: C2_2  and  C3_3 
REMARK    2  A    between atoms: C2_2  and  C16_21 
REMARK    3  A    between atoms: C3_3  and  C4_4 
REMARK    4  A    between atoms: C4_4  and  C5_5 
REMARK    5  A    between atoms: C9_10  and  O2_11 
REMARK    6  A    between atoms: C14_17  and  C15_18 
REMARK    7  A    between atoms: C17_22  and  O5_23 
REMARK    8  A    between atoms: C18_26  and  C19_27 
REMARK    9  A    between atoms: C19_27  and  C20_28 
REMARK   10  A    between atoms: C20_28  and  O7_29 
REMARK   11  A    between atoms: C20_28  and  C21_31 
REMARK   12  A    between atoms: C21_31  and  C22_32 
REMARK   13  A    between atoms: C22_32  and  C23_33 
REMARK   14  A    between atoms: C23_33  and  C24_34 
REMARK   15  A    between atoms: C24_34  and  O8_35 
ROOT
HETATM    1  C1  UNL     1      16.719  20.133  22.527  1.00  0.00     0.019 C 
HETATM    2  C2  UNL     1      16.762  19.578  21.385  1.00  0.00    -0.056 C 
ENDROOT
BRANCH   2   3
HETATM    3  C3  UNL     1      17.321  18.297  21.092  1.00  0.00     0.007 C 
BRANCH   3   4
HETATM    4  C4  UNL     1      16.769  17.272  20.492  1.00  0.00     0.013 C 
BRANCH   4   5
HETATM    5  C5  UNL     1      15.366  16.974  20.525  1.00  0.00     0.011 C 
HETATM    6  C6  UNL     1      15.427  16.486  18.891  1.00  0.00     0.163 C 
HETATM    7  O1  UNL     1      16.249  15.698  18.587  1.00  0.00    -0.292 OA
HETATM    8  C7  UNL     1      14.368  17.243  18.283  1.00  0.00     0.092 C 
HETATM    9  C8  UNL     1      14.780  18.619  17.798  1.00  0.00     0.021 C 
HETATM   10  C9  UNL     1      13.304  17.279  19.339  1.00  0.00     0.091 C 
HETATM   11  C10 UNL     1      12.438  16.054  19.194  1.00  0.00     0.051 C 
HETATM   12  C14 UNL     1      14.019  16.686  20.557  1.00  0.00     0.117 C 
HETATM   13  C11 UNL     1      13.299  15.421  20.295  1.00  0.00    -0.020 C 
HETATM   14  C12 UNL     1      12.288  15.013  21.406  1.00  0.00     0.016 C 
HETATM   15  C13 UNL     1      13.979  14.182  19.846  1.00  0.00     0.016 C 
BRANCH  10  16
HETATM   16  O2  UNL     1      12.661  18.468  19.505  1.00  0.00    -0.387 OA
ATOM     17  H2  UNL     1      12.006  18.685  18.853  1.00  0.00     0.210 HD
ENDBRANCH  10  16
BRANCH  12  18
HETATM   18  C15 UNL     1      13.332  17.269  21.837  1.00  0.00     0.190 C 
HETATM   19  O3  UNL     1      13.992  17.147  22.888  1.00  0.00    -0.647 OA
HETATM   20  O4  UNL     1      12.114  17.869  21.817  1.00  0.00    -0.647 OA
ENDBRANCH  12  18
ENDBRANCH   4   5
ENDBRANCH   3   4
ENDBRANCH   2   3
BRANCH   2  21
HETATM   21  C16 UNL     1      16.183  20.340  20.204  1.00  0.00     0.102 C 
HETATM   22  C17 UNL     1      17.216  21.213  19.530  1.00  0.00     0.268 C 
HETATM   23  O6  UNL     1      16.754  22.348  20.195  1.00  0.00    -0.354 OA
HETATM   24  C18 UNL     1      15.592  21.660  20.555  1.00  0.00     0.140 C 
BRANCH  22  25
HETATM   25  O5  UNL     1      18.529  20.966  19.932  1.00  0.00    -0.370 OA
ATOM     26  H5  UNL     1      18.800  21.449  20.704  1.00  0.00     0.212 HD
ENDBRANCH  22  25
BRANCH  24  27
HETATM   27  C19 UNL     1      14.477  22.124  19.635  1.00  0.00     0.064 C 
BRANCH  27  28
HETATM   28  C20 UNL     1      13.363  22.783  20.402  1.00  0.00     0.120 C 
BRANCH  28  29
HETATM   29  O7  UNL     1      13.063  24.061  19.935  1.00  0.00    -0.395 OA
ATOM     30  H7  UNL     1      12.985  24.102  18.990  1.00  0.00     0.210 HD
ENDBRANCH  28  29
BRANCH  28  31
HETATM   31  C21 UNL     1      13.482  22.691  21.888  1.00  0.00     0.032 C 
BRANCH  31  32
HETATM   32  C22 UNL     1      12.705  23.797  22.584  1.00  0.00     0.004 C 
BRANCH  32  33
HETATM   33  C23 UNL     1      11.628  23.234  23.486  1.00  0.00     0.026 C 
BRANCH  33  34
HETATM   34  C24 UNL     1      11.346  21.767  23.231  1.00  0.00     0.164 C 
BRANCH  34  35
HETATM   35  O8  UNL     1      10.179  21.402  23.884  1.00  0.00    -0.401 OA
ATOM     36  H8  UNL     1      10.040  20.466  23.785  1.00  0.00     0.209 HD
ENDBRANCH  34  35
ENDBRANCH  33  34
ENDBRANCH  32  33
ENDBRANCH  31  32
ENDBRANCH  28  31
ENDBRANCH  27  28
ENDBRANCH  24  27
ENDBRANCH   2  21
TORSDOF 15
ENDMDL
MODEL 5
REMARK VINA RESULT: -7.312215310      4.214      5.809
REMARK  15 active torsions:
REMARK  status: ('A' for Active; 'I' for Inactive)
REMARK    1  A    between atoms: C2_2  and  C3_3 
REMARK    2  A    between atoms: C2_2  and  C16_21 
REMARK    3  A    between atoms: C3_3  and  C4_4 
REMARK    4  A    between atoms: C4_4  and  C5_5 
REMARK    5  A    between atoms: C9_10  and  O2_11 
REMARK    6  A    between atoms: C14_17  and  C15_18 
REMARK    7  A    between atoms: C17_22  and  O5_23 
REMARK    8  A    between atoms: C18_26  and  C19_27 
REMARK    9  A    between atoms: C19_27  and  C20_28 
REMARK   10  A    between atoms: C20_28  and  O7_29 
REMARK   11  A    between atoms: C20_28  and  C21_31 
REMARK   12  A    between atoms: C21_31  and  C22_32 
REMARK   13  A    between atoms: C22_32  and  C23_33 
REMARK   14  A    between atoms: C23_33  and  C24_34 
REMARK   15  A    between atoms: C24_34  and  O8_35 
ROOT
HETATM    1  C1  UNL     1      16.285  19.736  20.139  1.00  0.00     0.019 C 
HETATM    2  C2  UNL     1      15.303  19.620  19.341  1.00  0.00    -0.056 C 
ENDROOT
BRANCH   2   3
HETATM    3  C3  UNL     1      15.173  18.650  18.301  1.00  0.00     0.007 C 
BRANCH   3   4
HETATM    4  C4  UNL     1      14.609  17.468  18.339  1.00  0.00     0.013 C 
BRANCH   4   5
HETATM    5  C5  UNL     1      14.190  16.810  19.543  1.00  0.00     0.011 C 
HETATM    6  C6  UNL     1      13.000  15.956  18.666  1.00  0.00     0.163 C 
HETATM    7  O1  UNL     1      13.345  15.378  17.699  1.00  0.00    -0.292 OA
HETATM    8  C7  UNL     1      11.799  16.207  19.414  1.00  0.00     0.092 C 
HETATM    9  C8  UNL     1      11.064  17.470  19.014  1.00  0.00     0.021 C 
HETATM   10  C9  UNL     1      12.262  16.214  20.840  1.00  0.00     0.091 C 
HETATM   11  C10 UNL     1      12.232  14.801  21.365  1.00  0.00     0.051 C 
HETATM   12  C14 UNL     1      13.787  16.176  20.698  1.00  0.00     0.117 C 
HETATM   13  C11 UNL     1      13.728  14.738  21.036  1.00  0.00    -0.020 C 
HETATM   14  C12 UNL     1      14.416  14.364  22.381  1.00  0.00     0.016 C 
HETATM   15  C13 UNL     1      14.054  13.666  20.065  1.00  0.00     0.016 C 
BRANCH  10  16
HETATM   16  O2  UNL     1      11.729  17.177  21.640  1.00  0.00    -0.387 OA
ATOM     17  H2  UNL     1      12.032  18.065  21.487  1.00  0.00     0.210 HD
ENDBRANCH  10  16
BRANCH  12  18
HETATM   18  C15 UNL     1      14.395  16.853  21.971  1.00  0.00     0.190 C 
HETATM   19  O3  UNL     1      15.639  16.941  21.976  1.00  0.00    -0.647 OA
HETATM   20  O4  UNL     1      13.638  17.318  22.998  1.00  0.00    -0.647 OA
ENDBRANCH  12  18
ENDBRANCH   4   5
ENDBRANCH   3   4
ENDBRANCH   2   3
BRANCH   2  21
HETATM   21  C16 UNL     1      14.156  20.608  19.479  1.00  0.00     0.102 C 
HETATM   22  C17 UNL     1      14.500  21.963  18.906  1.00  0.00     0.268 C 
HETATM   23  O6  UNL     1      14.791  22.473  20.170  1.00  0.00    -0.354 OA
HETATM   24  C18 UNL     1      14.156  21.375  20.756  1.00  0.00     0.140 C 
BRANCH  22  25
HETATM   25  O5  UNL     1      15.666  21.984  18.139  1.00  0.00    -0.370 OA
ATOM     26  H5  UNL     1      16.043  22.849  18.023  1.00  0.00     0.212 HD
ENDBRANCH  22  25
BRANCH  24  27
HETATM   27  C19 UNL     1      12.786  21.828  21.227  1.00  0.00     0.064 C 
BRANCH  27  28
HETATM   28  C20 UNL     1      12.441  21.248  22.571  1.00  0.00     0.120 C 
BRANCH  28  29
HETATM   29  O7  UNL     1      12.174  19.882  22.522  1.00  0.00    -0.395 OA
ATOM     30  H7  UNL     1      11.551  19.650  21.843  1.00  0.00     0.210 HD
ENDBRANCH  28  29
BRANCH  28  31
HETATM   31  C21 UNL     1      11.444  22.035  23.358  1.00  0.00     0.032 C 
BRANCH  31  32
HETATM   32  C22 UNL     1      11.790  23.516  23.383  1.00  0.00     0.004 C 
BRANCH  32  33
HETATM   33  C23 UNL     1      11.429  24.146  24.711  1.00  0.00     0.026 C 
BRANCH  33  34
HETATM   34  C24 UNL     1      11.847  25.599  24.814  1.00  0.00     0.164 C 
BRANCH  34  35
HETATM   35  O8  UNL     1      13.184  25.720  24.465  1.00  0.00    -0.401 OA
ATOM     36  H8  UNL     1      13.250  26.067  23.583  1.00  0.00     0.209 HD
ENDBRANCH  34  35
ENDBRANCH  33  34
ENDBRANCH  32  33
ENDBRANCH  31  32
ENDBRANCH  28  31
ENDBRANCH  27  28
ENDBRANCH  24  27
ENDBRANCH   2  21
TORSDOF 15
ENDMDL
