MODEL 1
REMARK VINA RESULT: -8.183902072      0.000      0.000
REMARK  11 active torsions:
REMARK  status: ('A' for Active; 'I' for Inactive)
REMARK    1  A    between atoms: C2_2  and  C3_3 
REMARK    2  A    between atoms: C3_3  and  C4_4 
REMARK    3  A    between atoms: C4_4  and  C5_5 
REMARK    4  A    between atoms: C7_11  and  C8_12 
REMARK    5  A    between atoms: C8_12  and  N3_13 
REMARK    6  A    between atoms: N3_13  and  C9_15 
REMARK    7  A    between atoms: C11_20  and  N5_21 
REMARK    8  A    between atoms: C16_28  and  S1_29 
REMARK    9  A    between atoms: S1_29  and  N7_30 
REMARK   10  A    between atoms: C18_36  and  C19_37 
REMARK   11  A    between atoms: C19_37  and  C20_38 
ROOT
HETATM    1  C5  UNL     1      18.432  18.169  24.174  1.00  0.00     0.018 A 
HETATM    2  N1  UNL     1      17.236  17.631  23.876  1.00  0.00    -0.345 N 
ATOM      3  H1  UNL     1      16.743  16.949  24.453  1.00  0.00     0.167 HD
HETATM    4  C6  UNL     1      16.788  18.114  22.720  1.00  0.00     0.118 A 
HETATM    5  N2  UNL     1      15.660  17.875  22.025  1.00  0.00    -0.344 N 
ATOM      6  H2  UNL     1      14.983  17.210  22.398  1.00  0.00     0.167 HD
HETATM    7  C7  UNL     1      15.398  18.479  20.865  1.00  0.00     0.030 A 
HETATM    8  C15 UNL     1      16.327  19.372  20.394  1.00  0.00     0.053 A 
HETATM    9  C16 UNL     1      17.541  19.687  21.057  1.00  0.00     0.095 A 
HETATM   10  C17 UNL     1      17.750  19.017  22.244  1.00  0.00     0.040 A 
HETATM   11  C18 UNL     1      18.805  19.051  23.158  1.00  0.00    -0.020 A 
ENDROOT
BRANCH   7  12
HETATM   12  C8  UNL     1      14.167  18.246  20.051  1.00  0.00     0.195 C 
BRANCH  12  13
HETATM   13  N3  UNL     1      13.587  19.461  19.574  1.00  0.00    -0.220 N 
ATOM     14  H3  UNL     1      13.459  19.618  18.575  1.00  0.00     0.178 HD
BRANCH  13  15
HETATM   15  C9  UNL     1      13.193  20.444  20.514  1.00  0.00     0.681 A 
HETATM   16  N4  UNL     1      13.570  21.725  20.375  1.00  0.00    -0.154 N 
HETATM   17  C10 UNL     1      13.209  22.683  21.248  1.00  0.00     0.287 A 
ATOM     18  H4  UNL     1      14.151  21.982  19.577  1.00  0.00     0.187 HD
HETATM   19  O1  UNL     1      13.604  23.852  21.045  1.00  0.00    -0.265 OA
HETATM   20  C11 UNL     1      12.425  22.391  22.343  1.00  0.00     0.115 A 
HETATM   21  C14 UNL     1      12.040  21.060  22.476  1.00  0.00     0.141 A 
HETATM   22  N6  UNL     1      12.429  20.143  21.575  1.00  0.00    -0.200 N 
ATOM     23  H6  UNL     1      12.130  19.176  21.703  1.00  0.00     0.183 HD
BRANCH  20  24
HETATM   24  N5  UNL     1      12.022  23.352  23.280  1.00  0.00    -0.384 N 
HETATM   25  C12 UNL     1      10.948  23.023  24.215  1.00  0.00     0.149 C 
HETATM   26  C13 UNL     1      12.620  24.648  23.357  1.00  0.00     0.149 C 
ENDBRANCH  20  24
ENDBRANCH  13  15
ENDBRANCH  12  13
ENDBRANCH   7  12
BRANCH   9  27
HETATM   27  S1  UNL     1      18.548  20.946  20.514  1.00  0.00     0.257 S 
HETATM   28  O2  UNL     1      19.859  20.700  19.936  1.00  0.00    -0.201 OA
HETATM   29  O3  UNL     1      17.842  21.398  19.176  1.00  0.00    -0.201 OA
BRANCH  27  30
HETATM   30  N7  UNL     1      18.323  22.480  21.316  1.00  0.00    -0.324 N 
ATOM     31  H72 UNL     1      18.806  22.701  22.186  1.00  0.00     0.169 HD
ATOM     32  H71 UNL     1      17.683  23.125  20.853  1.00  0.00     0.169 HD
ENDBRANCH  27  30
ENDBRANCH   9  27
BRANCH   1  33
HETATM   33  C4  UNL     1      19.180  17.964  25.439  1.00  0.00     0.057 C 
BRANCH  33  34
HETATM   34  C3  UNL     1      19.080  19.259  26.273  1.00  0.00     0.006 C 
BRANCH  34  35
HETATM   35  C2  UNL     1      20.425  19.544  26.859  1.00  0.00    -0.004 C 
HETATM   36  C1  UNL     1      20.765  21.020  26.586  1.00  0.00     0.005 C 
ENDBRANCH  34  35
ENDBRANCH  33  34
ENDBRANCH   1  33
BRANCH  11  37
HETATM   37  C19 UNL     1      20.089  19.708  22.972  1.00  0.00     0.041 C 
BRANCH  37  38
HETATM   38  C20 UNL     1      21.316  18.864  23.287  1.00  0.00     0.000 C 
HETATM   39  C21 UNL     1      22.524  19.552  23.806  1.00  0.00     0.005 C 
ENDBRANCH  37  38
ENDBRANCH  11  37
TORSDOF 11
ENDMDL
MODEL 2
REMARK VINA RESULT: -8.018770665      2.601      3.493
REMARK  11 active torsions:
REMARK  status: ('A' for Active; 'I' for Inactive)
REMARK    1  A    between atoms: C2_2  and  C3_3 
REMARK    2  A    between atoms: C3_3  and  C4_4 
REMARK    3  A    between atoms: C4_4  and  C5_5 
REMARK    4  A    between atoms: C7_11  and  C8_12 
REMARK    5  A    between atoms: C8_12  and  N3_13 
REMARK    6  A    between atoms: N3_13  and  C9_15 
REMARK    7  A    between atoms: C11_20  and  N5_21 
REMARK    8  A    between atoms: C16_28  and  S1_29 
REMARK    9  A    between atoms: S1_29  and  N7_30 
REMARK   10  A    between atoms: C18_36  and  C19_37 
REMARK   11  A    between atoms: C19_37  and  C20_38 
ROOT
HETATM    1  C5  UNL     1      18.852  19.224  22.991  1.00  0.00     0.018 A 
HETATM    2  N1  UNL     1      18.497  20.147  22.079  1.00  0.00    -0.345 N 
ATOM      3  H1  UNL     1      19.039  20.982  21.853  1.00  0.00     0.167 HD
HETATM    4  C6  UNL     1      17.339  19.816  21.514  1.00  0.00     0.118 A 
HETATM    5  N2  UNL     1      16.599  20.422  20.566  1.00  0.00    -0.344 N 
ATOM      6  H2  UNL     1      16.930  21.301  20.168  1.00  0.00     0.167 HD
HETATM    7  C7  UNL     1      15.446  19.911  20.131  1.00  0.00     0.030 A 
HETATM    8  C15 UNL     1      15.032  18.726  20.683  1.00  0.00     0.053 A 
HETATM    9  C16 UNL     1      15.746  18.018  21.684  1.00  0.00     0.095 A 
HETATM   10  C17 UNL     1      16.922  18.610  22.094  1.00  0.00     0.040 A 
HETATM   11  C18 UNL     1      17.873  18.231  23.042  1.00  0.00    -0.020 A 
ENDROOT
BRANCH   7  12
HETATM   12  C8  UNL     1      14.583  20.545  19.088  1.00  0.00     0.195 C 
BRANCH  12  13
HETATM   13  N3  UNL     1      14.441  21.954  19.277  1.00  0.00    -0.220 N 
ATOM     14  H3  UNL     1      14.804  22.609  18.585  1.00  0.00     0.178 HD
BRANCH  13  15
HETATM   15  C9  UNL     1      13.787  22.424  20.440  1.00  0.00     0.681 A 
HETATM   16  N4  UNL     1      12.850  21.684  21.055  1.00  0.00    -0.154 N 
HETATM   17  C10 UNL     1      12.213  22.102  22.164  1.00  0.00     0.287 A 
ATOM     18  H4  UNL     1      12.613  20.771  20.667  1.00  0.00     0.187 HD
HETATM   19  O1  UNL     1      11.353  21.351  22.674  1.00  0.00    -0.265 OA
HETATM   20  C11 UNL     1      12.495  23.327  22.731  1.00  0.00     0.115 A 
HETATM   21  C14 UNL     1      13.468  24.084  22.085  1.00  0.00     0.141 A 
HETATM   22  N6  UNL     1      14.073  23.620  20.979  1.00  0.00    -0.200 N 
ATOM     23  H6  UNL     1      14.781  24.200  20.530  1.00  0.00     0.183 HD
BRANCH  20  24
HETATM   24  N5  UNL     1      11.860  23.806  23.885  1.00  0.00    -0.384 N 
HETATM   25  C12 UNL     1      12.113  25.180  24.312  1.00  0.00     0.149 C 
HETATM   26  C13 UNL     1      10.972  23.001  24.664  1.00  0.00     0.149 C 
ENDBRANCH  20  24
ENDBRANCH  13  15
ENDBRANCH  12  13
ENDBRANCH   7  12
BRANCH   9  27
HETATM   27  S1  UNL     1      15.271  16.460  22.178  1.00  0.00     0.257 S 
HETATM   28  O2  UNL     1      14.579  16.219  23.434  1.00  0.00    -0.201 OA
HETATM   29  O3  UNL     1      14.042  16.159  21.233  1.00  0.00    -0.201 OA
BRANCH  27  30
HETATM   30  N7  UNL     1      16.247  15.152  21.560  1.00  0.00    -0.324 N 
ATOM     31  H72 UNL     1      16.566  14.395  22.165  1.00  0.00     0.169 HD
ATOM     32  H71 UNL     1      16.468  15.204  20.566  1.00  0.00     0.169 HD
ENDBRANCH  27  30
ENDBRANCH   9  27
BRANCH   1  33
HETATM   33  C4  UNL     1      20.137  19.191  23.731  1.00  0.00     0.057 C 
BRANCH  33  34
HETATM   34  C3  UNL     1      20.039  20.178  24.913  1.00  0.00     0.006 C 
BRANCH  34  35
HETATM   35  C2  UNL     1      20.870  19.649  26.037  1.00  0.00    -0.004 C 
HETATM   36  C1  UNL     1      20.795  20.650  27.203  1.00  0.00     0.005 C 
ENDBRANCH  34  35
ENDBRANCH  33  34
ENDBRANCH   1  33
BRANCH  11  37
HETATM   37  C19 UNL     1      17.750  17.146  24.004  1.00  0.00     0.041 C 
BRANCH  37  38
HETATM   38  C20 UNL     1      17.531  17.567  25.451  1.00  0.00     0.000 C 
HETATM   39  C21 UNL     1      18.414  16.983  26.490  1.00  0.00     0.005 C 
ENDBRANCH  37  38
ENDBRANCH  11  37
TORSDOF 11
ENDMDL
MODEL 3
REMARK VINA RESULT: -7.971750657      3.947      5.854
REMARK  11 active torsions:
REMARK  status: ('A' for Active; 'I' for Inactive)
REMARK    1  A    between atoms: C2_2  and  C3_3 
REMARK    2  A    between atoms: C3_3  and  C4_4 
REMARK    3  A    between atoms: C4_4  and  C5_5 
REMARK    4  A    between atoms: C7_11  and  C8_12 
REMARK    5  A    between atoms: C8_12  and  N3_13 
REMARK    6  A    between atoms: N3_13  and  C9_15 
REMARK    7  A    between atoms: C11_20  and  N5_21 
REMARK    8  A    between atoms: C16_28  and  S1_29 
REMARK    9  A    between atoms: S1_29  and  N7_30 
REMARK   10  A    between atoms: C18_36  and  C19_37 
REMARK   11  A    between atoms: C19_37  and  C20_38 
ROOT
HETATM    1  C5  UNL     1      17.893  19.661  22.881  1.00  0.00     0.018 A 
HETATM    2  N1  UNL     1      16.933  18.761  23.162  1.00  0.00    -0.345 N 
ATOM      3  H1  UNL     1      17.025  18.004  23.839  1.00  0.00     0.167 HD
HETATM    4  C6  UNL     1      15.848  19.000  22.429  1.00  0.00     0.118 A 
HETATM    5  N2  UNL     1      14.657  18.376  22.362  1.00  0.00    -0.344 N 
ATOM      6  H2  UNL     1      14.493  17.562  22.956  1.00  0.00     0.167 HD
HETATM    7  C7  UNL     1      13.685  18.785  21.546  1.00  0.00     0.030 A 
HETATM    8  C15 UNL     1      13.937  19.885  20.766  1.00  0.00     0.053 A 
HETATM    9  C16 UNL     1      15.160  20.605  20.770  1.00  0.00     0.095 A 
HETATM   10  C17 UNL     1      16.122  20.118  21.629  1.00  0.00     0.040 A 
HETATM   11  C18 UNL     1      17.424  20.540  21.902  1.00  0.00    -0.020 A 
ENDROOT
BRANCH   7  12
HETATM   12  C8  UNL     1      12.349  18.126  21.427  1.00  0.00     0.195 C 
BRANCH  12  13
HETATM   13  N3  UNL     1      12.169  17.478  20.166  1.00  0.00    -0.220 N 
ATOM     14  H3  UNL     1      12.199  18.014  19.299  1.00  0.00     0.178 HD
BRANCH  13  15
HETATM   15  C9  UNL     1      11.949  16.081  20.142  1.00  0.00     0.681 A 
HETATM   16  N4  UNL     1      12.053  15.344  21.260  1.00  0.00    -0.154 N 
HETATM   17  C10 UNL     1      11.847  14.014  21.270  1.00  0.00     0.287 A 
ATOM     18  H4  UNL     1      12.297  15.810  22.134  1.00  0.00     0.187 HD
HETATM   19  O1  UNL     1      11.964  13.403  22.356  1.00  0.00    -0.265 OA
HETATM   20  C11 UNL     1      11.514  13.335  20.118  1.00  0.00     0.115 A 
HETATM   21  C14 UNL     1      11.409  14.109  18.966  1.00  0.00     0.141 A 
HETATM   22  N6  UNL     1      11.626  15.434  19.011  1.00  0.00    -0.200 N 
ATOM     23  H6  UNL     1      11.542  15.972  18.149  1.00  0.00     0.183 HD
BRANCH  20  24
HETATM   24  N5  UNL     1      11.289  11.952  20.078  1.00  0.00    -0.384 N 
HETATM   25  C12 UNL     1      12.413  11.060  19.804  1.00  0.00     0.149 C 
HETATM   26  C13 UNL     1       9.999  11.377  20.293  1.00  0.00     0.149 C 
ENDBRANCH  20  24
ENDBRANCH  13  15
ENDBRANCH  12  13
ENDBRANCH   7  12
BRANCH   9  27
HETATM   27  S1  UNL     1      15.329  22.071  19.923  1.00  0.00     0.257 S 
HETATM   28  O2  UNL     1      16.321  22.254  18.875  1.00  0.00    -0.201 OA
HETATM   29  O3  UNL     1      14.065  22.070  18.978  1.00  0.00    -0.201 OA
BRANCH  27  30
HETATM   30  N7  UNL     1      14.847  23.500  20.801  1.00  0.00    -0.324 N 
ATOM     31  H72 UNL     1      14.293  23.438  21.656  1.00  0.00     0.169 HD
ATOM     32  H71 UNL     1      15.157  24.384  20.399  1.00  0.00     0.169 HD
ENDBRANCH  27  30
ENDBRANCH   9  27
BRANCH   1  33
HETATM   33  C4  UNL     1      19.191  19.788  23.586  1.00  0.00     0.057 C 
BRANCH  33  34
HETATM   34  C3  UNL     1      18.942  19.583  25.095  1.00  0.00     0.006 C 
BRANCH  34  35
HETATM   35  C2  UNL     1      20.258  19.331  25.758  1.00  0.00    -0.004 C 
HETATM   36  C1  UNL     1      20.538  20.493  26.727  1.00  0.00     0.005 C 
ENDBRANCH  34  35
ENDBRANCH  33  34
ENDBRANCH   1  33
BRANCH  11  37
HETATM   37  C19 UNL     1      18.178  21.546  21.171  1.00  0.00     0.041 C 
BRANCH  37  38
HETATM   38  C20 UNL     1      19.111  21.018  20.089  1.00  0.00     0.000 C 
HETATM   39  C21 UNL     1      20.490  21.560  20.028  1.00  0.00     0.005 C 
ENDBRANCH  37  38
ENDBRANCH  11  37
TORSDOF 11
ENDMDL
MODEL 4
REMARK VINA RESULT: -7.962269807      2.354      3.320
REMARK  11 active torsions:
REMARK  status: ('A' for Active; 'I' for Inactive)
REMARK    1  A    between atoms: C2_2  and  C3_3 
REMARK    2  A    between atoms: C3_3  and  C4_4 
REMARK    3  A    between atoms: C4_4  and  C5_5 
REMARK    4  A    between atoms: C7_11  and  C8_12 
REMARK    5  A    between atoms: C8_12  and  N3_13 
REMARK    6  A    between atoms: N3_13  and  C9_15 
REMARK    7  A    between atoms: C11_20  and  N5_21 
REMARK    8  A    between atoms: C16_28  and  S1_29 
REMARK    9  A    between atoms: S1_29  and  N7_30 
REMARK   10  A    between atoms: C18_36  and  C19_37 
REMARK   11  A    between atoms: C19_37  and  C20_38 
ROOT
HETATM    1  C5  UNL     1      21.127  18.766  23.710  1.00  0.00     0.018 A 
HETATM    2  N1  UNL     1      20.963  19.779  22.842  1.00  0.00    -0.345 N 
ATOM      3  H1  UNL     1      21.621  20.548  22.710  1.00  0.00     0.167 HD
HETATM    4  C6  UNL     1      19.818  19.637  22.178  1.00  0.00     0.118 A 
HETATM    5  N2  UNL     1      19.234  20.390  21.226  1.00  0.00    -0.344 N 
ATOM      6  H2  UNL     1      19.704  21.239  20.912  1.00  0.00     0.167 HD
HETATM    7  C7  UNL     1      18.062  20.061  20.680  1.00  0.00     0.030 A 
HETATM    8  C15 UNL     1      17.460  18.911  21.122  1.00  0.00     0.053 A 
HETATM    9  C16 UNL     1      18.001  18.057  22.118  1.00  0.00     0.095 A 
HETATM   10  C17 UNL     1      19.208  18.465  22.645  1.00  0.00     0.040 A 
HETATM   11  C18 UNL     1      20.028  17.909  23.628  1.00  0.00    -0.020 A 
ENDROOT
BRANCH   7  12
HETATM   12  C8  UNL     1      17.367  20.863  19.627  1.00  0.00     0.195 C 
BRANCH  12  13
HETATM   13  N3  UNL     1      15.981  20.537  19.518  1.00  0.00    -0.220 N 
ATOM     14  H3  UNL     1      15.660  19.859  18.827  1.00  0.00     0.178 HD
BRANCH  13  15
HETATM   15  C9  UNL     1      15.060  21.170  20.385  1.00  0.00     0.681 A 
HETATM   16  N4  UNL     1      14.687  22.445  20.189  1.00  0.00    -0.154 N 
HETATM   17  C10 UNL     1      13.811  23.074  20.994  1.00  0.00     0.287 A 
ATOM     18  H4  UNL     1      15.083  22.956  19.399  1.00  0.00     0.187 HD
HETATM   19  O1  UNL     1      13.519  24.263  20.739  1.00  0.00    -0.265 OA
HETATM   20  C11 UNL     1      13.246  22.431  22.074  1.00  0.00     0.115 A 
HETATM   21  C14 UNL     1      13.639  21.110  22.267  1.00  0.00     0.141 A 
HETATM   22  N6  UNL     1      14.519  20.529  21.433  1.00  0.00    -0.200 N 
ATOM     23  H6  UNL     1      14.786  19.560  21.604  1.00  0.00     0.183 HD
BRANCH  20  24
HETATM   24  N5  UNL     1      12.329  23.042  22.940  1.00  0.00    -0.384 N 
HETATM   25  C12 UNL     1      11.176  22.275  23.404  1.00  0.00     0.149 C 
HETATM   26  C13 UNL     1      12.477  24.391  23.388  1.00  0.00     0.149 C 
ENDBRANCH  20  24
ENDBRANCH  13  15
ENDBRANCH  12  13
ENDBRANCH   7  12
BRANCH   9  27
HETATM   27  S1  UNL     1      17.296  16.550  22.472  1.00  0.00     0.257 S 
HETATM   28  O2  UNL     1      16.490  16.327  23.662  1.00  0.00    -0.201 OA
HETATM   29  O3  UNL     1      16.110  16.472  21.433  1.00  0.00    -0.201 OA
BRANCH  27  30
HETATM   30  N7  UNL     1      18.138  15.163  21.829  1.00  0.00    -0.324 N 
ATOM     31  H72 UNL     1      19.114  15.220  21.539  1.00  0.00     0.169 HD
ATOM     32  H71 UNL     1      17.587  14.307  21.767  1.00  0.00     0.169 HD
ENDBRANCH  27  30
ENDBRANCH   9  27
BRANCH   1  33
HETATM   33  C4  UNL     1      22.338  18.521  24.531  1.00  0.00     0.057 C 
BRANCH  33  34
HETATM   34  C3  UNL     1      22.608  19.780  25.382  1.00  0.00     0.006 C 
BRANCH  34  35
HETATM   35  C2  UNL     1      21.820  19.670  26.647  1.00  0.00    -0.004 C 
HETATM   36  C1  UNL     1      20.829  20.846  26.699  1.00  0.00     0.005 C 
ENDBRANCH  34  35
ENDBRANCH  33  34
ENDBRANCH   1  33
BRANCH  11  37
HETATM   37  C19 UNL     1      19.697  16.796  24.503  1.00  0.00     0.041 C 
BRANCH  37  38
HETATM   38  C20 UNL     1      19.282  17.169  25.920  1.00  0.00     0.000 C 
HETATM   39  C21 UNL     1      18.255  18.225  26.094  1.00  0.00     0.005 C 
ENDBRANCH  37  38
ENDBRANCH  11  37
TORSDOF 11
ENDMDL
MODEL 5
REMARK VINA RESULT: -7.917533773      1.481      1.849
REMARK  11 active torsions:
REMARK  status: ('A' for Active; 'I' for Inactive)
REMARK    1  A    between atoms: C2_2  and  C3_3 
REMARK    2  A    between atoms: C3_3  and  C4_4 
REMARK    3  A    between atoms: C4_4  and  C5_5 
REMARK    4  A    between atoms: C7_11  and  C8_12 
REMARK    5  A    between atoms: C8_12  and  N3_13 
REMARK    6  A    between atoms: N3_13  and  C9_15 
REMARK    7  A    between atoms: C11_20  and  N5_21 
REMARK    8  A    between atoms: C16_28  and  S1_29 
REMARK    9  A    between atoms: S1_29  and  N7_30 
REMARK   10  A    between atoms: C18_36  and  C19_37 
REMARK   11  A    between atoms: C19_37  and  C20_38 
ROOT
HETATM    1  C5  UNL     1      18.484  19.525  23.257  1.00  0.00     0.018 A 
HETATM    2  N1  UNL     1      17.535  18.592  23.450  1.00  0.00    -0.345 N 
ATOM      3  H1  UNL     1      17.527  17.917  24.215  1.00  0.00     0.167 HD
HETATM    4  C6  UNL     1      16.606  18.675  22.501  1.00  0.00     0.118 A 
HETATM    5  N2  UNL     1      15.485  17.963  22.279  1.00  0.00    -0.344 N 
ATOM      6  H2  UNL     1      15.247  17.206  22.919  1.00  0.00     0.167 HD
HETATM    7  C7  UNL     1      14.675  18.216  21.250  1.00  0.00     0.030 A 
HETATM    8  C15 UNL     1      15.022  19.244  20.411  1.00  0.00     0.053 A 
HETATM    9  C16 UNL     1      16.181  20.047  20.567  1.00  0.00     0.095 A 
HETATM   10  C17 UNL     1      16.977  19.722  21.645  1.00  0.00     0.040 A 
HETATM   11  C18 UNL     1      18.176  20.262  22.112  1.00  0.00    -0.020 A 
ENDROOT
BRANCH   7  12
HETATM   12  C8  UNL     1      13.424  17.454  20.953  1.00  0.00     0.195 C 
BRANCH  12  13
HETATM   13  N3  UNL     1      12.305  18.310  20.715  1.00  0.00    -0.220 N 
ATOM     14  H3  UNL     1      11.548  18.015  20.099  1.00  0.00     0.178 HD
BRANCH  13  15
HETATM   15  C9  UNL     1      12.265  19.573  21.352  1.00  0.00     0.681 A 
HETATM   16  N4  UNL     1      12.648  20.686  20.706  1.00  0.00    -0.154 N 
HETATM   17  C10 UNL     1      12.618  21.902  21.283  1.00  0.00     0.287 A 
ATOM     18  H4  UNL     1      12.974  20.608  19.743  1.00  0.00     0.187 HD
HETATM   19  O1  UNL     1      12.993  22.888  20.610  1.00  0.00    -0.265 OA
HETATM   20  C11 UNL     1      12.187  22.066  22.581  1.00  0.00     0.115 A 
HETATM   21  C14 UNL     1      11.792  20.904  23.240  1.00  0.00     0.141 A 
HETATM   22  N6  UNL     1      11.842  19.715  22.618  1.00  0.00    -0.200 N 
ATOM     23  H6  UNL     1      11.546  18.884  23.129  1.00  0.00     0.183 HD
BRANCH  20  24
HETATM   24  N5  UNL     1      12.137  23.309  23.225  1.00  0.00    -0.384 N 
HETATM   25  C12 UNL     1      11.225  23.486  24.352  1.00  0.00     0.149 C 
HETATM   26  C13 UNL     1      12.943  24.417  22.820  1.00  0.00     0.149 C 
ENDBRANCH  20  24
ENDBRANCH  13  15
ENDBRANCH  12  13
ENDBRANCH   7  12
BRANCH   9  27
HETATM   27  S1  UNL     1      16.441  21.426  19.605  1.00  0.00     0.257 S 
HETATM   28  O2  UNL     1      17.432  21.458  18.542  1.00  0.00    -0.201 OA
HETATM   29  O3  UNL     1      15.170  21.437  18.669  1.00  0.00    -0.201 OA
BRANCH  27  30
HETATM   30  N7  UNL     1      16.067  22.950  20.369  1.00  0.00    -0.324 N 
ATOM     31  H72 UNL     1      15.432  23.004  21.165  1.00  0.00     0.169 HD
ATOM     32  H71 UNL     1      16.525  23.766  19.964  1.00  0.00     0.169 HD
ENDBRANCH  27  30
ENDBRANCH   9  27
BRANCH   1  33
HETATM   33  C4  UNL     1      19.608  19.816  24.179  1.00  0.00     0.057 C 
BRANCH  33  34
HETATM   34  C3  UNL     1      19.170  19.438  25.610  1.00  0.00     0.006 C 
BRANCH  34  35
HETATM   35  C2  UNL     1      20.371  19.488  26.498  1.00  0.00    -0.004 C 
HETATM   36  C1  UNL     1      20.851  20.948  26.576  1.00  0.00     0.005 C 
ENDBRANCH  34  35
ENDBRANCH  33  34
ENDBRANCH   1  33
BRANCH  11  37
HETATM   37  C19 UNL     1      19.009  21.239  21.428  1.00  0.00     0.041 C 
BRANCH  37  38
HETATM   38  C20 UNL     1      20.090  20.668  20.521  1.00  0.00     0.000 C 
HETATM   39  C21 UNL     1      20.470  21.441  19.314  1.00  0.00     0.005 C 
ENDBRANCH  37  38
ENDBRANCH  11  37
TORSDOF 11
ENDMDL
