MODEL 1
REMARK VINA RESULT: -8.886647539      0.000      0.000
REMARK  12 active torsions:
REMARK  status: ('A' for Active; 'I' for Inactive)
REMARK    1  A    between atoms: O1_1  and  C1_3 
REMARK    2  A    between atoms: C1_3  and  C2_4 
REMARK    3  A    between atoms: C1_3  and  C6_18 
REMARK    4  A    between atoms: C2_4  and  O2_5 
REMARK    5  A    between atoms: O2_5  and  C3_6 
REMARK    6  A    between atoms: C3_6  and  C4_7 
REMARK    7  A    between atoms: C4_7  and  N1_8 
REMARK    8  A    between atoms: N1_8  and  C5_10 
REMARK    9  A    between atoms: C6_18  and  O3_19 
REMARK   10  A    between atoms: O3_19  and  C7_20 
REMARK   11  A    between atoms: C11_26  and  C12_27 
REMARK   12  A    between atoms: C12_27  and  C13_28 
ROOT
HETATM    1  C7  UNL     1      17.364  19.950  21.885  1.00  0.00     0.099 A 
HETATM    2  C8  UNL     1      18.005  21.021  21.305  1.00  0.00     0.056 A 
HETATM    3  C9  UNL     1      17.309  22.113  20.801  1.00  0.00     0.091 A 
HETATM    4  N6  UNL     1      15.979  22.130  20.877  1.00  0.00    -0.363 N 
ATOM      5  H6  UNL     1      15.456  22.925  20.510  1.00  0.00     0.165 HD
HETATM    6  C10 UNL     1      15.329  21.097  21.439  1.00  0.00     0.070 A 
HETATM    7  C11 UNL     1      13.979  20.907  21.620  1.00  0.00    -0.009 A 
HETATM    8  C21 UNL     1      13.845  19.689  22.241  1.00  0.00     0.098 A 
HETATM    9  N8  UNL     1      15.052  19.135  22.442  1.00  0.00    -0.361 N 
ATOM     10  H8  UNL     1      15.233  18.234  22.883  1.00  0.00     0.165 HD
HETATM   11  C22 UNL     1      15.987  19.986  21.955  1.00  0.00     0.093 A 
ENDROOT
BRANCH   1  12
HETATM   12  O3  UNL     1      18.029  18.850  22.397  1.00  0.00    -0.346 OA
BRANCH  12  13
HETATM   13  C6  UNL     1      19.363  18.518  22.039  1.00  0.00     0.209 C 
BRANCH  13  14
HETATM   14  C1  UNL     1      20.299  18.761  23.228  1.00  0.00     0.166 C 
BRANCH  14  15
HETATM   15  O1  UNL     1      21.399  17.968  23.053  1.00  0.00    -0.391 OA
ATOM     16  H1  UNL     1      21.251  17.048  22.871  1.00  0.00     0.210 HD
ENDBRANCH  14  15
BRANCH  14  17
HETATM   17  C2  UNL     1      19.523  18.586  24.475  1.00  0.00     0.201 C 
BRANCH  17  18
HETATM   18  O2  UNL     1      19.440  19.619  25.342  1.00  0.00    -0.387 OA
BRANCH  18  19
HETATM   19  C3  UNL     1      19.957  19.487  26.590  1.00  0.00     0.188 C 
BRANCH  19  20
HETATM   20  C4  UNL     1      21.167  20.427  26.753  1.00  0.00     0.164 C 
BRANCH  20  21
HETATM   21  N1  UNL     1      22.342  19.583  26.724  1.00  0.00    -0.222 N 
ATOM     22  H1  UNL     1      22.661  19.109  27.569  1.00  0.00     0.177 HD
BRANCH  21  23
HETATM   23  C5  UNL     1      22.981  19.440  25.607  1.00  0.00     0.706 A 
HETATM   24  N2  UNL     1      23.063  20.353  24.619  1.00  0.00    -0.118 N 
HETATM   25  N3  UNL     1      23.792  19.842  23.660  1.00  0.00    -0.212 N 
ATOM     26  H2  UNL     1      22.632  21.278  24.619  1.00  0.00     0.207 HD
HETATM   27  N4  UNL     1      24.188  18.623  23.993  1.00  0.00     0.009 NA
ATOM     28  H3  UNL     1      24.022  20.314  22.785  1.00  0.00     0.206 HD
HETATM   29  N5  UNL     1      23.686  18.370  25.202  1.00  0.00    -0.114 N 
ATOM     30  H5  UNL     1      23.814  17.507  25.731  1.00  0.00     0.203 HD
ENDBRANCH  21  23
ENDBRANCH  20  21
ENDBRANCH  19  20
ENDBRANCH  18  19
ENDBRANCH  17  18
ENDBRANCH  14  17
ENDBRANCH  13  14
ENDBRANCH  12  13
ENDBRANCH   1  12
BRANCH   7  31
HETATM   31  C12 UNL     1      12.890  21.815  21.236  1.00  0.00     0.083 C 
BRANCH  31  32
HETATM   32  C13 UNL     1      12.088  22.188  22.415  1.00  0.00    -0.026 A 
HETATM   33  C14 UNL     1      11.133  21.413  23.019  1.00  0.00     0.096 A 
HETATM   34  N7  UNL     1      10.586  22.059  24.062  1.00  0.00    -0.365 N 
HETATM   35  C15 UNL     1      11.182  23.271  24.151  1.00  0.00     0.042 A 
ATOM     36  H7  UNL     1       9.853  21.701  24.675  1.00  0.00     0.165 HD
HETATM   37  C16 UNL     1      11.025  24.337  25.017  1.00  0.00     0.030 A 
HETATM   38  C20 UNL     1      12.122  23.364  23.129  1.00  0.00    -0.002 A 
HETATM   39  C17 UNL     1      11.760  25.499  24.918  1.00  0.00     0.002 A 
HETATM   40  C18 UNL     1      12.688  25.551  23.884  1.00  0.00     0.001 A 
HETATM   41  C19 UNL     1      12.875  24.525  23.009  1.00  0.00     0.014 A 
ENDBRANCH  31  32
ENDBRANCH   7  31
TORSDOF 12
ENDMDL
MODEL 2
REMARK VINA RESULT: -8.751535510      1.219      1.897
REMARK  12 active torsions:
REMARK  status: ('A' for Active; 'I' for Inactive)
REMARK    1  A    between atoms: O1_1  and  C1_3 
REMARK    2  A    between atoms: C1_3  and  C2_4 
REMARK    3  A    between atoms: C1_3  and  C6_18 
REMARK    4  A    between atoms: C2_4  and  O2_5 
REMARK    5  A    between atoms: O2_5  and  C3_6 
REMARK    6  A    between atoms: C3_6  and  C4_7 
REMARK    7  A    between atoms: C4_7  and  N1_8 
REMARK    8  A    between atoms: N1_8  and  C5_10 
REMARK    9  A    between atoms: C6_18  and  O3_19 
REMARK   10  A    between atoms: O3_19  and  C7_20 
REMARK   11  A    between atoms: C11_26  and  C12_27 
REMARK   12  A    between atoms: C12_27  and  C13_28 
ROOT
HETATM    1  C7  UNL     1      17.714  19.945  21.887  1.00  0.00     0.099 A 
HETATM    2  C8  UNL     1      18.337  21.027  21.308  1.00  0.00     0.056 A 
HETATM    3  C9  UNL     1      17.623  22.091  20.771  1.00  0.00     0.091 A 
HETATM    4  N6  UNL     1      16.292  22.069  20.813  1.00  0.00    -0.363 N 
ATOM      5  H6  UNL     1      15.755  22.843  20.421  1.00  0.00     0.165 HD
HETATM    6  C10 UNL     1      15.658  21.024  21.372  1.00  0.00     0.070 A 
HETATM    7  C11 UNL     1      14.310  20.797  21.521  1.00  0.00    -0.009 A 
HETATM    8  C21 UNL     1      14.196  19.583  22.155  1.00  0.00     0.098 A 
HETATM    9  N8  UNL     1      15.414  19.069  22.395  1.00  0.00    -0.361 N 
ATOM     10  H8  UNL     1      15.609  18.179  22.854  1.00  0.00     0.165 HD
HETATM   11  C22 UNL     1      16.335  19.941  21.920  1.00  0.00     0.093 A 
ENDROOT
BRANCH   1  12
HETATM   12  O3  UNL     1      18.398  18.873  22.431  1.00  0.00    -0.346 OA
BRANCH  12  13
HETATM   13  C6  UNL     1      19.018  18.920  23.708  1.00  0.00     0.209 C 
BRANCH  13  14
HETATM   14  C1  UNL     1      20.474  18.451  23.599  1.00  0.00     0.166 C 
BRANCH  14  15
HETATM   15  O1  UNL     1      21.193  19.473  23.042  1.00  0.00    -0.391 OA
ATOM     16  H1  UNL     1      21.329  20.251  23.570  1.00  0.00     0.210 HD
ENDBRANCH  14  15
BRANCH  14  17
HETATM   17  C2  UNL     1      20.492  17.145  22.904  1.00  0.00     0.201 C 
BRANCH  17  18
HETATM   18  O2  UNL     1      21.663  16.480  22.797  1.00  0.00    -0.387 OA
BRANCH  18  19
HETATM   19  C3  UNL     1      22.281  16.031  23.918  1.00  0.00     0.188 C 
BRANCH  19  20
HETATM   20  C4  UNL     1      23.801  16.245  23.796  1.00  0.00     0.164 C 
BRANCH  20  21
HETATM   21  N1  UNL     1      24.165  17.173  24.845  1.00  0.00    -0.222 N 
ATOM     22  H1  UNL     1      24.580  16.837  25.714  1.00  0.00     0.177 HD
BRANCH  21  23
HETATM   23  C5  UNL     1      23.955  18.438  24.660  1.00  0.00     0.706 A 
HETATM   24  N2  UNL     1      24.256  19.136  23.549  1.00  0.00    -0.118 N 
HETATM   25  N3  UNL     1      23.893  20.378  23.745  1.00  0.00    -0.212 N 
ATOM     26  H2  UNL     1      24.690  18.763  22.704  1.00  0.00     0.207 HD
HETATM   27  N4  UNL     1      23.365  20.510  24.952  1.00  0.00     0.009 NA
ATOM     28  H3  UNL     1      24.002  21.134  23.068  1.00  0.00     0.206 HD
HETATM   29  N5  UNL     1      23.402  19.306  25.524  1.00  0.00    -0.114 N 
ATOM     30  H5  UNL     1      23.067  19.082  26.461  1.00  0.00     0.203 HD
ENDBRANCH  21  23
ENDBRANCH  20  21
ENDBRANCH  19  20
ENDBRANCH  18  19
ENDBRANCH  17  18
ENDBRANCH  14  17
ENDBRANCH  13  14
ENDBRANCH  12  13
ENDBRANCH   1  12
BRANCH   7  31
HETATM   31  C12 UNL     1      13.205  21.666  21.096  1.00  0.00     0.083 C 
BRANCH  31  32
HETATM   32  C13 UNL     1      12.311  21.958  22.231  1.00  0.00    -0.026 A 
HETATM   33  C14 UNL     1      11.368  21.112  22.754  1.00  0.00     0.096 A 
HETATM   34  N7  UNL     1      10.720  21.696  23.776  1.00  0.00    -0.365 N 
HETATM   35  C15 UNL     1      11.239  22.936  23.934  1.00  0.00     0.042 A 
ATOM     36  H7  UNL     1       9.974  21.279  24.332  1.00  0.00     0.165 HD
HETATM   37  C16 UNL     1      10.967  23.966  24.815  1.00  0.00     0.030 A 
HETATM   38  C20 UNL     1      12.233  23.112  22.976  1.00  0.00    -0.002 A 
HETATM   39  C17 UNL     1      11.637  25.170  24.793  1.00  0.00     0.002 A 
HETATM   40  C18 UNL     1      12.623  25.305  23.822  1.00  0.00     0.001 A 
HETATM   41  C19 UNL     1      12.923  24.317  22.934  1.00  0.00     0.014 A 
ENDBRANCH  31  32
ENDBRANCH   7  31
TORSDOF 12
ENDMDL
MODEL 3
REMARK VINA RESULT: -8.704154103      0.922      1.231
REMARK  12 active torsions:
REMARK  status: ('A' for Active; 'I' for Inactive)
REMARK    1  A    between atoms: O1_1  and  C1_3 
REMARK    2  A    between atoms: C1_3  and  C2_4 
REMARK    3  A    between atoms: C1_3  and  C6_18 
REMARK    4  A    between atoms: C2_4  and  O2_5 
REMARK    5  A    between atoms: O2_5  and  C3_6 
REMARK    6  A    between atoms: C3_6  and  C4_7 
REMARK    7  A    between atoms: C4_7  and  N1_8 
REMARK    8  A    between atoms: N1_8  and  C5_10 
REMARK    9  A    between atoms: C6_18  and  O3_19 
REMARK   10  A    between atoms: O3_19  and  C7_20 
REMARK   11  A    between atoms: C11_26  and  C12_27 
REMARK   12  A    between atoms: C12_27  and  C13_28 
ROOT
HETATM    1  C7  UNL     1      17.548  20.014  21.872  1.00  0.00     0.099 A 
HETATM    2  C8  UNL     1      18.166  21.067  21.238  1.00  0.00     0.056 A 
HETATM    3  C9  UNL     1      17.449  22.124  20.691  1.00  0.00     0.091 A 
HETATM    4  N6  UNL     1      16.120  22.124  20.780  1.00  0.00    -0.363 N 
ATOM      5  H6  UNL     1      15.581  22.894  20.383  1.00  0.00     0.165 HD
HETATM    6  C10 UNL     1      15.492  21.109  21.395  1.00  0.00     0.070 A 
HETATM    7  C11 UNL     1      14.146  20.907  21.598  1.00  0.00    -0.009 A 
HETATM    8  C21 UNL     1      14.037  19.717  22.275  1.00  0.00     0.098 A 
HETATM    9  N8  UNL     1      15.254  19.191  22.489  1.00  0.00    -0.361 N 
ATOM     10  H8  UNL     1      15.453  18.313  22.969  1.00  0.00     0.165 HD
HETATM   11  C22 UNL     1      16.171  20.033  21.954  1.00  0.00     0.093 A 
ENDROOT
BRANCH   1  12
HETATM   12  O3  UNL     1      18.235  18.949  22.427  1.00  0.00    -0.346 OA
BRANCH  12  13
HETATM   13  C6  UNL     1      19.230  19.108  23.427  1.00  0.00     0.209 C 
BRANCH  13  14
HETATM   14  C1  UNL     1      18.821  18.353  24.697  1.00  0.00     0.166 C 
BRANCH  14  15
HETATM   15  O1  UNL     1      17.462  18.201  24.664  1.00  0.00    -0.391 OA
ATOM     16  H1  UNL     1      17.088  17.496  25.179  1.00  0.00     0.210 HD
ENDBRANCH  14  15
BRANCH  14  17
HETATM   17  C2  UNL     1      19.401  19.056  25.863  1.00  0.00     0.201 C 
BRANCH  17  18
HETATM   18  O2  UNL     1      19.846  20.322  25.707  1.00  0.00    -0.387 OA
BRANCH  18  19
HETATM   19  C3  UNL     1      20.869  20.769  26.478  1.00  0.00     0.188 C 
BRANCH  19  20
HETATM   20  C4  UNL     1      22.059  19.796  26.379  1.00  0.00     0.164 C 
BRANCH  20  21
HETATM   21  N1  UNL     1      22.847  20.235  25.247  1.00  0.00    -0.222 N 
ATOM     22  H1  UNL     1      22.778  21.194  24.907  1.00  0.00     0.177 HD
BRANCH  21  23
HETATM   23  C5  UNL     1      23.642  19.388  24.674  1.00  0.00     0.706 A 
HETATM   24  N2  UNL     1      24.958  19.245  24.920  1.00  0.00    -0.118 N 
HETATM   25  N3  UNL     1      25.410  18.291  24.147  1.00  0.00    -0.212 N 
ATOM     26  H2  UNL     1      25.506  19.786  25.590  1.00  0.00     0.207 HD
HETATM   27  N4  UNL     1      24.427  17.807  23.404  1.00  0.00     0.009 NA
ATOM     28  H3  UNL     1      26.377  17.967  24.121  1.00  0.00     0.206 HD
HETATM   29  N5  UNL     1      23.326  18.486  23.728  1.00  0.00    -0.114 N 
ATOM     30  H5  UNL     1      22.400  18.346  23.325  1.00  0.00     0.203 HD
ENDBRANCH  21  23
ENDBRANCH  20  21
ENDBRANCH  19  20
ENDBRANCH  18  19
ENDBRANCH  17  18
ENDBRANCH  14  17
ENDBRANCH  13  14
ENDBRANCH  12  13
ENDBRANCH   1  12
BRANCH   7  31
HETATM   31  C12 UNL     1      13.040  21.780  21.184  1.00  0.00     0.083 C 
BRANCH  31  32
HETATM   32  C13 UNL     1      12.192  22.124  22.340  1.00  0.00    -0.026 A 
HETATM   33  C14 UNL     1      11.235  21.324  22.905  1.00  0.00     0.096 A 
HETATM   34  N7  UNL     1      10.641  21.948  23.936  1.00  0.00    -0.365 N 
HETATM   35  C15 UNL     1      11.210  23.171  24.056  1.00  0.00     0.042 A 
ATOM     36  H7  UNL     1       9.896  21.569  24.521  1.00  0.00     0.165 HD
HETATM   37  C16 UNL     1      11.003  24.224  24.927  1.00  0.00     0.030 A 
HETATM   38  C20 UNL     1      12.180  23.293  23.066  1.00  0.00    -0.002 A 
HETATM   39  C17 UNL     1      11.717  25.401  24.864  1.00  0.00     0.002 A 
HETATM   40  C18 UNL     1      12.676  25.483  23.861  1.00  0.00     0.001 A 
HETATM   41  C19 UNL     1      12.912  24.470  22.982  1.00  0.00     0.014 A 
ENDBRANCH  31  32
ENDBRANCH   7  31
TORSDOF 12
ENDMDL
MODEL 4
REMARK VINA RESULT: -8.640562039      2.854      8.805
REMARK  12 active torsions:
REMARK  status: ('A' for Active; 'I' for Inactive)
REMARK    1  A    between atoms: O1_1  and  C1_3 
REMARK    2  A    between atoms: C1_3  and  C2_4 
REMARK    3  A    between atoms: C1_3  and  C6_18 
REMARK    4  A    between atoms: C2_4  and  O2_5 
REMARK    5  A    between atoms: O2_5  and  C3_6 
REMARK    6  A    between atoms: C3_6  and  C4_7 
REMARK    7  A    between atoms: C4_7  and  N1_8 
REMARK    8  A    between atoms: N1_8  and  C5_10 
REMARK    9  A    between atoms: C6_18  and  O3_19 
REMARK   10  A    between atoms: O3_19  and  C7_20 
REMARK   11  A    between atoms: C11_26  and  C12_27 
REMARK   12  A    between atoms: C12_27  and  C13_28 
ROOT
HETATM    1  C7  UNL     1      17.457  21.585  20.257  1.00  0.00     0.099 A 
HETATM    2  C8  UNL     1      18.681  21.549  19.628  1.00  0.00     0.056 A 
HETATM    3  C9  UNL     1      19.680  20.662  20.009  1.00  0.00     0.091 A 
HETATM    4  N6  UNL     1      19.454  19.818  21.014  1.00  0.00    -0.363 N 
ATOM      5  H6  UNL     1      20.179  19.162  21.304  1.00  0.00     0.165 HD
HETATM    6  C10 UNL     1      18.268  19.833  21.644  1.00  0.00     0.070 A 
HETATM    7  C11 UNL     1      17.825  19.060  22.693  1.00  0.00    -0.009 A 
HETATM    8  C21 UNL     1      16.543  19.476  22.957  1.00  0.00     0.098 A 
HETATM    9  N8  UNL     1      16.192  20.464  22.117  1.00  0.00    -0.361 N 
ATOM     10  H8  UNL     1      15.294  20.948  22.102  1.00  0.00     0.165 HD
HETATM   11  C22 UNL     1      17.242  20.703  21.295  1.00  0.00     0.093 A 
ENDROOT
BRANCH   1  12
HETATM   12  O3  UNL     1      16.442  22.455  19.900  1.00  0.00    -0.346 OA
BRANCH  12  13
HETATM   13  C6  UNL     1      15.256  22.031  19.246  1.00  0.00     0.209 C 
BRANCH  13  14
HETATM   14  C1  UNL     1      14.027  22.517  20.023  1.00  0.00     0.166 C 
BRANCH  14  15
HETATM   15  O1  UNL     1      14.444  23.503  20.874  1.00  0.00    -0.391 OA
ATOM     16  H1  UNL     1      15.373  23.699  20.896  1.00  0.00     0.210 HD
ENDBRANCH  14  15
BRANCH  14  17
HETATM   17  C2  UNL     1      13.356  21.340  20.618  1.00  0.00     0.201 C 
BRANCH  17  18
HETATM   18  O2  UNL     1      13.077  21.347  21.940  1.00  0.00    -0.387 OA
BRANCH  18  19
HETATM   19  C3  UNL     1      11.932  20.769  22.383  1.00  0.00     0.188 C 
BRANCH  19  20
HETATM   20  C4  UNL     1      11.481  21.444  23.691  1.00  0.00     0.164 C 
BRANCH  20  21
HETATM   21  N1  UNL     1      11.014  22.764  23.326  1.00  0.00    -0.222 N 
ATOM     22  H1  UNL     1      10.161  22.880  22.780  1.00  0.00     0.177 HD
BRANCH  21  23
HETATM   23  C5  UNL     1      11.700  23.796  23.704  1.00  0.00     0.706 A 
HETATM   24  N2  UNL     1      11.544  24.469  24.860  1.00  0.00    -0.118 N 
HETATM   25  N3  UNL     1      12.419  25.443  24.877  1.00  0.00    -0.212 N 
ATOM     26  H2  UNL     1      10.865  24.258  25.592  1.00  0.00     0.207 HD
HETATM   27  N4  UNL     1      13.139  25.424  23.767  1.00  0.00     0.009 NA
ATOM     28  H3  UNL     1      12.528  26.118  25.635  1.00  0.00     0.206 HD
HETATM   29  N5  UNL     1      12.696  24.402  23.035  1.00  0.00    -0.114 N 
ATOM     30  H5  UNL     1      13.052  24.126  22.120  1.00  0.00     0.203 HD
ENDBRANCH  21  23
ENDBRANCH  20  21
ENDBRANCH  19  20
ENDBRANCH  18  19
ENDBRANCH  17  18
ENDBRANCH  14  17
ENDBRANCH  13  14
ENDBRANCH  12  13
ENDBRANCH   1  12
BRANCH   7  31
HETATM   31  C12 UNL     1      18.560  18.000  23.395  1.00  0.00     0.083 C 
BRANCH  31  32
HETATM   32  C13 UNL     1      19.266  18.549  24.566  1.00  0.00    -0.026 A 
HETATM   33  C14 UNL     1      18.756  18.671  25.832  1.00  0.00     0.096 A 
HETATM   34  N7  UNL     1      19.661  19.221  26.659  1.00  0.00    -0.365 N 
HETATM   35  C15 UNL     1      20.780  19.465  25.936  1.00  0.00     0.042 A 
ATOM     36  H7  UNL     1      19.529  19.419  27.650  1.00  0.00     0.165 HD
HETATM   37  C16 UNL     1      22.009  20.010  26.258  1.00  0.00     0.030 A 
HETATM   38  C20 UNL     1      20.547  19.050  24.629  1.00  0.00    -0.002 A 
HETATM   39  C17 UNL     1      23.025  20.164  25.340  1.00  0.00     0.002 A 
HETATM   40  C18 UNL     1      22.752  19.737  24.046  1.00  0.00     0.001 A 
HETATM   41  C19 UNL     1      21.556  19.195  23.685  1.00  0.00     0.014 A 
ENDBRANCH  31  32
ENDBRANCH   7  31
TORSDOF 12
ENDMDL
MODEL 5
REMARK VINA RESULT: -8.554684125      1.416      2.169
REMARK  12 active torsions:
REMARK  status: ('A' for Active; 'I' for Inactive)
REMARK    1  A    between atoms: O1_1  and  C1_3 
REMARK    2  A    between atoms: C1_3  and  C2_4 
REMARK    3  A    between atoms: C1_3  and  C6_18 
REMARK    4  A    between atoms: C2_4  and  O2_5 
REMARK    5  A    between atoms: O2_5  and  C3_6 
REMARK    6  A    between atoms: C3_6  and  C4_7 
REMARK    7  A    between atoms: C4_7  and  N1_8 
REMARK    8  A    between atoms: N1_8  and  C5_10 
REMARK    9  A    between atoms: C6_18  and  O3_19 
REMARK   10  A    between atoms: O3_19  and  C7_20 
REMARK   11  A    between atoms: C11_26  and  C12_27 
REMARK   12  A    between atoms: C12_27  and  C13_28 
ROOT
HETATM    1  C7  UNL     1      18.303  19.531  21.644  1.00  0.00     0.099 A 
HETATM    2  C8  UNL     1      18.900  20.410  20.769  1.00  0.00     0.056 A 
HETATM    3  C9  UNL     1      18.159  21.263  19.959  1.00  0.00     0.091 A 
HETATM    4  N6  UNL     1      16.830  21.234  20.026  1.00  0.00    -0.363 N 
ATOM      5  H6  UNL     1      16.274  21.854  19.437  1.00  0.00     0.165 HD
HETATM    6  C10 UNL     1      16.222  20.385  20.872  1.00  0.00     0.070 A 
HETATM    7  C11 UNL     1      14.880  20.189  21.100  1.00  0.00    -0.009 A 
HETATM    8  C21 UNL     1      14.796  19.208  22.058  1.00  0.00     0.098 A 
HETATM    9  N8  UNL     1      16.025  18.803  22.418  1.00  0.00    -0.361 N 
ATOM     10  H8  UNL     1      16.242  18.086  23.110  1.00  0.00     0.165 HD
HETATM   11  C22 UNL     1      16.924  19.516  21.698  1.00  0.00     0.093 A 
ENDROOT
BRANCH   1  12
HETATM   12  O3  UNL     1      19.012  18.672  22.463  1.00  0.00    -0.346 OA
BRANCH  12  13
HETATM   13  C6  UNL     1      19.629  19.090  23.672  1.00  0.00     0.209 C 
BRANCH  13  14
HETATM   14  C1  UNL     1      18.871  18.511  24.873  1.00  0.00     0.166 C 
BRANCH  14  15
HETATM   15  O1  UNL     1      17.685  19.184  24.973  1.00  0.00    -0.391 OA
ATOM     16  H1  UNL     1      16.897  18.667  25.093  1.00  0.00     0.210 HD
ENDBRANCH  14  15
BRANCH  14  17
HETATM   17  C2  UNL     1      19.772  18.535  26.047  1.00  0.00     0.201 C 
BRANCH  17  18
HETATM   18  O2  UNL     1      19.957  19.702  26.703  1.00  0.00    -0.387 OA
BRANCH  18  19
HETATM   19  C3  UNL     1      21.210  20.208  26.823  1.00  0.00     0.188 C 
BRANCH  19  20
HETATM   20  C4  UNL     1      22.245  19.128  26.452  1.00  0.00     0.164 C 
BRANCH  20  21
HETATM   21  N1  UNL     1      23.212  19.773  25.591  1.00  0.00    -0.222 N 
ATOM     22  H1  UNL     1      23.332  20.786  25.612  1.00  0.00     0.177 HD
BRANCH  21  23
HETATM   23  C5  UNL     1      23.924  19.041  24.794  1.00  0.00     0.706 A 
HETATM   24  N2  UNL     1      25.245  18.803  24.906  1.00  0.00    -0.118 N 
HETATM   25  N3  UNL     1      25.597  18.021  23.917  1.00  0.00    -0.212 N 
ATOM     26  H2  UNL     1      25.862  19.167  25.633  1.00  0.00     0.207 HD
HETATM   27  N4  UNL     1      24.544  17.743  23.164  1.00  0.00     0.009 NA
ATOM     28  H3  UNL     1      26.543  17.677  23.752  1.00  0.00     0.206 HD
HETATM   29  N5  UNL     1      23.503  18.375  23.705  1.00  0.00    -0.114 N 
ATOM     30  H5  UNL     1      22.546  18.358  23.352  1.00  0.00     0.203 HD
ENDBRANCH  21  23
ENDBRANCH  20  21
ENDBRANCH  19  20
ENDBRANCH  18  19
ENDBRANCH  17  18
ENDBRANCH  14  17
ENDBRANCH  13  14
ENDBRANCH  12  13
ENDBRANCH   1  12
BRANCH   7  31
HETATM   31  C12 UNL     1      13.754  20.882  20.460  1.00  0.00     0.083 C 
BRANCH  31  32
HETATM   32  C13 UNL     1      13.431  22.124  21.186  1.00  0.00    -0.026 A 
HETATM   33  C14 UNL     1      13.953  23.366  20.932  1.00  0.00     0.096 A 
HETATM   34  N7  UNL     1      13.453  24.275  21.786  1.00  0.00    -0.365 N 
HETATM   35  C15 UNL     1      12.593  23.632  22.610  1.00  0.00     0.042 A 
ATOM     36  H7  UNL     1      13.681  25.269  21.808  1.00  0.00     0.165 HD
HETATM   37  C16 UNL     1      11.802  24.056  23.662  1.00  0.00     0.030 A 
HETATM   38  C20 UNL     1      12.570  22.290  22.246  1.00  0.00    -0.002 A 
HETATM   39  C17 UNL     1      10.984  23.207  24.375  1.00  0.00     0.002 A 
HETATM   40  C18 UNL     1      10.989  21.874  23.979  1.00  0.00     0.001 A 
HETATM   41  C19 UNL     1      11.753  21.414  22.950  1.00  0.00     0.014 A 
ENDBRANCH  31  32
ENDBRANCH   7  31
TORSDOF 12
ENDMDL
