MODEL 1
REMARK VINA RESULT: -7.395293477      0.000      0.000
REMARK  15 active torsions:
REMARK  status: ('A' for Active; 'I' for Inactive)
REMARK    1  A    between atoms: C3_3  and  C4_4 
REMARK    2  A    between atoms: C5_5  and  C6_6 
REMARK    3  A    between atoms: C6_6  and  O1_7 
REMARK    4  A    between atoms: C6_6  and  C7_9 
REMARK    5  A    between atoms: C9_11  and  O2_12 
REMARK    6  A    between atoms: C10_14  and  C11_15 
REMARK    7  A    between atoms: C11_15  and  C12_16 
REMARK    8  A    between atoms: C13_17  and  O3_18 
REMARK    9  A    between atoms: N2_25  and  C17_27 
REMARK   10  A    between atoms: C17_27  and  C18_28 
REMARK   11  A    between atoms: C18_28  and  C19_29 
REMARK   12  A    between atoms: C19_29  and  C20_30 
REMARK   13  A    between atoms: C20_30  and  O4_31 
REMARK   14  A    between atoms: C21_33  and  O5_34 
REMARK   15  A    between atoms: C23_36  and  C24_37 
ROOT
HETATM    1  C1  UNL     1      17.780  16.565  21.478  1.00  0.00     0.025 C 
HETATM    2  C2  UNL     1      16.738  17.408  21.507  1.00  0.00    -0.016 A 
HETATM    3  C3  UNL     1      16.754  18.611  22.182  1.00  0.00     0.008 A 
HETATM    4  C9  UNL     1      15.593  19.432  22.149  1.00  0.00     0.089 A 
HETATM    5  C10 UNL     1      14.440  19.076  21.467  1.00  0.00     0.033 A 
HETATM    6  C21 UNL     1      14.489  17.837  20.800  1.00  0.00     0.096 A 
HETATM    7  C23 UNL     1      15.586  17.040  20.818  1.00  0.00     0.054 A 
ENDROOT
BRANCH   5   8
HETATM    8  C11 UNL     1      13.347  19.786  21.401  1.00  0.00     0.035 C 
BRANCH   8   9
HETATM    9  C12 UNL     1      13.093  21.196  21.410  1.00  0.00     0.042 A 
HETATM   10  C13 UNL     1      12.362  21.808  22.423  1.00  0.00     0.081 A 
HETATM   11  C14 UNL     1      12.134  23.155  22.323  1.00  0.00     0.054 A 
HETATM   12  C15 UNL     1      12.597  23.910  21.270  1.00  0.00     0.092 A 
HETATM   13  N1  UNL     1      13.311  23.278  20.292  1.00  0.00    -0.351 N 
HETATM   14  C16 UNL     1      13.572  21.971  20.321  1.00  0.00     0.117 A 
ATOM     15  H1  UNL     1      13.659  23.829  19.507  1.00  0.00     0.166 HD
HETATM   16  N2  UNL     1      14.211  21.361  19.465  1.00  0.00    -0.355 N 
ATOM     17  H2  UNL     1      14.244  20.385  19.760  1.00  0.00     0.166 HD
BRANCH  10  18
HETATM   18  O3  UNL     1      11.881  21.086  23.493  1.00  0.00    -0.360 OA
ATOM     19  H3  UNL     1      11.083  20.576  23.423  1.00  0.00     0.217 HD
ENDBRANCH  10  18
BRANCH  16  20
HETATM   20  C17 UNL     1      14.898  21.440  18.277  1.00  0.00     0.062 C 
BRANCH  20  21
HETATM   21  C18 UNL     1      16.364  21.730  18.291  1.00  0.00     0.046 C 
BRANCH  21  22
HETATM   22  C19 UNL     1      17.114  20.894  19.288  1.00  0.00     0.031 C 
BRANCH  22  23
HETATM   23  C20 UNL     1      17.851  21.738  20.274  1.00  0.00     0.164 C 
BRANCH  23  24
HETATM   24  O4  UNL     1      16.896  22.466  21.000  1.00  0.00    -0.401 OA
ATOM     25  H4  UNL     1      17.084  23.389  20.873  1.00  0.00     0.209 HD
ENDBRANCH  23  24
ENDBRANCH  22  23
ENDBRANCH  21  22
ENDBRANCH  20  21
ENDBRANCH  16  20
ENDBRANCH   8   9
ENDBRANCH   5   8
BRANCH   4  26
HETATM   26  O2  UNL     1      15.666  20.575  22.814  1.00  0.00    -0.359 OA
ATOM     27  H2  UNL     1      15.289  20.576  23.686  1.00  0.00     0.217 HD
ENDBRANCH   4  26
BRANCH   6  28
HETATM   28  O5  UNL     1      13.342  17.427  20.090  1.00  0.00    -0.354 OA
HETATM   29  C22 UNL     1      12.305  16.729  20.774  1.00  0.00     0.210 C 
ENDBRANCH   6  28
BRANCH   3  30
HETATM   30  C4  UNL     1      17.950  18.998  22.899  1.00  0.00     0.013 C 
HETATM   31  C5  UNL     1      18.204  19.027  24.157  1.00  0.00     0.005 C 
BRANCH  31  32
HETATM   32  C6  UNL     1      19.584  19.490  24.607  1.00  0.00     0.140 C 
BRANCH  32  33
HETATM   33  O1  UNL     1      20.578  18.692  24.050  1.00  0.00    -0.392 OA
ATOM     34  H1  UNL     1      20.973  18.136  24.711  1.00  0.00     0.210 HD
ENDBRANCH  32  33
BRANCH  32  35
HETATM   35  C7  UNL     1      19.671  19.479  26.109  1.00  0.00     0.031 C 
HETATM   36  C8  UNL     1      20.665  20.470  26.639  1.00  0.00     0.008 C 
ENDBRANCH  32  35
ENDBRANCH  31  32
ENDBRANCH   3  30
BRANCH   7  37
HETATM   37  C24 UNL     1      15.577  15.748  20.098  1.00  0.00     0.159 C 
HETATM   38  C25 UNL     1      15.955  15.656  18.682  1.00  0.00     0.097 C 
HETATM   39  O6  UNL     1      15.233  14.720  20.735  1.00  0.00    -0.293 OA
ENDBRANCH   7  37
TORSDOF 15
ENDMDL
MODEL 2
REMARK VINA RESULT: -7.057493863      2.299      5.617
REMARK  15 active torsions:
REMARK  status: ('A' for Active; 'I' for Inactive)
REMARK    1  A    between atoms: C3_3  and  C4_4 
REMARK    2  A    between atoms: C5_5  and  C6_6 
REMARK    3  A    between atoms: C6_6  and  O1_7 
REMARK    4  A    between atoms: C6_6  and  C7_9 
REMARK    5  A    between atoms: C9_11  and  O2_12 
REMARK    6  A    between atoms: C10_14  and  C11_15 
REMARK    7  A    between atoms: C11_15  and  C12_16 
REMARK    8  A    between atoms: C13_17  and  O3_18 
REMARK    9  A    between atoms: N2_25  and  C17_27 
REMARK   10  A    between atoms: C17_27  and  C18_28 
REMARK   11  A    between atoms: C18_28  and  C19_29 
REMARK   12  A    between atoms: C19_29  and  C20_30 
REMARK   13  A    between atoms: C20_30  and  O4_31 
REMARK   14  A    between atoms: C21_33  and  O5_34 
REMARK   15  A    between atoms: C23_36  and  C24_37 
ROOT
HETATM    1  C1  UNL     1      12.182  18.731  20.336  1.00  0.00     0.025 C 
HETATM    2  C2  UNL     1      13.427  18.601  20.817  1.00  0.00    -0.016 A 
HETATM    3  C3  UNL     1      14.019  19.528  21.651  1.00  0.00     0.008 A 
HETATM    4  C9  UNL     1      15.346  19.293  22.105  1.00  0.00     0.089 A 
HETATM    5  C10 UNL     1      16.076  18.171  21.746  1.00  0.00     0.033 A 
HETATM    6  C21 UNL     1      15.414  17.266  20.893  1.00  0.00     0.096 A 
HETATM    7  C23 UNL     1      14.149  17.471  20.450  1.00  0.00     0.054 A 
ENDROOT
BRANCH   5   8
HETATM    8  C11 UNL     1      17.293  17.902  22.130  1.00  0.00     0.035 C 
BRANCH   8   9
HETATM    9  C12 UNL     1      18.075  18.304  23.262  1.00  0.00     0.042 A 
HETATM   10  C13 UNL     1      17.791  17.860  24.549  1.00  0.00     0.081 A 
HETATM   11  C14 UNL     1      18.568  18.333  25.574  1.00  0.00     0.054 A 
HETATM   12  C15 UNL     1      19.602  19.217  25.374  1.00  0.00     0.092 A 
HETATM   13  N1  UNL     1      19.855  19.633  24.097  1.00  0.00    -0.351 N 
HETATM   14  C16 UNL     1      19.142  19.217  23.051  1.00  0.00     0.117 A 
ATOM     15  H1  UNL     1      20.620  20.288  23.939  1.00  0.00     0.166 HD
HETATM   16  N2  UNL     1      19.332  19.563  21.886  1.00  0.00    -0.355 N 
ATOM     17  H2  UNL     1      18.636  19.083  21.317  1.00  0.00     0.166 HD
BRANCH  10  18
HETATM   18  O3  UNL     1      16.763  16.976  24.789  1.00  0.00    -0.360 OA
ATOM     19  H3  UNL     1      16.335  16.936  25.637  1.00  0.00     0.217 HD
ENDBRANCH  10  18
BRANCH  16  20
HETATM   20  C17 UNL     1      20.089  20.326  21.029  1.00  0.00     0.062 C 
BRANCH  20  21
HETATM   21  C18 UNL     1      19.421  21.340  20.158  1.00  0.00     0.046 C 
BRANCH  21  22
HETATM   22  C19 UNL     1      18.203  21.945  20.797  1.00  0.00     0.031 C 
BRANCH  22  23
HETATM   23  C20 UNL     1      16.997  21.806  19.928  1.00  0.00     0.164 C 
BRANCH  23  24
HETATM   24  O4  UNL     1      16.216  22.958  20.106  1.00  0.00    -0.401 OA
ATOM     25  H4  UNL     1      15.451  22.709  20.611  1.00  0.00     0.209 HD
ENDBRANCH  23  24
ENDBRANCH  22  23
ENDBRANCH  21  22
ENDBRANCH  20  21
ENDBRANCH  16  20
ENDBRANCH   8   9
ENDBRANCH   5   8
BRANCH   4  26
HETATM   26  O2  UNL     1      15.862  20.215  22.903  1.00  0.00    -0.359 OA
ATOM     27  H2  UNL     1      15.293  20.541  23.590  1.00  0.00     0.217 HD
ENDBRANCH   4  26
BRANCH   6  28
HETATM   28  O5  UNL     1      16.112  16.106  20.497  1.00  0.00    -0.354 OA
HETATM   29  C22 UNL     1      16.062  14.942  21.318  1.00  0.00     0.210 C 
ENDBRANCH   6  28
BRANCH   3  30
HETATM   30  C4  UNL     1      13.271  20.705  22.036  1.00  0.00     0.013 C 
HETATM   31  C5  UNL     1      13.204  21.870  21.503  1.00  0.00     0.005 C 
BRANCH  31  32
HETATM   32  C6  UNL     1      12.308  22.916  22.156  1.00  0.00     0.140 C 
BRANCH  32  33
HETATM   33  O1  UNL     1      13.067  23.963  22.669  1.00  0.00    -0.392 OA
ATOM     34  H1  UNL     1      13.401  23.746  23.532  1.00  0.00     0.210 HD
ENDBRANCH  32  33
BRANCH  32  35
HETATM   35  C7  UNL     1      11.475  22.283  23.237  1.00  0.00     0.031 C 
HETATM   36  C8  UNL     1      11.102  23.249  24.323  1.00  0.00     0.008 C 
ENDBRANCH  32  35
ENDBRANCH  31  32
ENDBRANCH   3  30
BRANCH   7  37
HETATM   37  C24 UNL     1      13.507  16.483  19.555  1.00  0.00     0.159 C 
HETATM   38  C25 UNL     1      13.655  16.557  18.097  1.00  0.00     0.097 C 
HETATM   39  O6  UNL     1      12.824  15.568  20.082  1.00  0.00    -0.293 OA
ENDBRANCH   7  37
TORSDOF 15
ENDMDL
MODEL 3
REMARK VINA RESULT: -7.010281277      1.973      4.332
REMARK  15 active torsions:
REMARK  status: ('A' for Active; 'I' for Inactive)
REMARK    1  A    between atoms: C3_3  and  C4_4 
REMARK    2  A    between atoms: C5_5  and  C6_6 
REMARK    3  A    between atoms: C6_6  and  O1_7 
REMARK    4  A    between atoms: C6_6  and  C7_9 
REMARK    5  A    between atoms: C9_11  and  O2_12 
REMARK    6  A    between atoms: C10_14  and  C11_15 
REMARK    7  A    between atoms: C11_15  and  C12_16 
REMARK    8  A    between atoms: C13_17  and  O3_18 
REMARK    9  A    between atoms: N2_25  and  C17_27 
REMARK   10  A    between atoms: C17_27  and  C18_28 
REMARK   11  A    between atoms: C18_28  and  C19_29 
REMARK   12  A    between atoms: C19_29  and  C20_30 
REMARK   13  A    between atoms: C20_30  and  O4_31 
REMARK   14  A    between atoms: C21_33  and  O5_34 
REMARK   15  A    between atoms: C23_36  and  C24_37 
ROOT
HETATM    1  C1  UNL     1      19.899  19.684  22.079  1.00  0.00     0.025 C 
HETATM    2  C2  UNL     1      18.594  19.836  21.813  1.00  0.00    -0.016 A 
HETATM    3  C3  UNL     1      17.609  19.042  22.364  1.00  0.00     0.008 A 
HETATM    4  C9  UNL     1      16.253  19.289  22.014  1.00  0.00     0.089 A 
HETATM    5  C10 UNL     1      15.873  20.296  21.140  1.00  0.00     0.033 A 
HETATM    6  C21 UNL     1      16.926  21.069  20.614  1.00  0.00     0.096 A 
HETATM    7  C23 UNL     1      18.226  20.850  20.935  1.00  0.00     0.054 A 
ENDROOT
BRANCH   5   8
HETATM    8  C11 UNL     1      14.649  20.569  20.783  1.00  0.00     0.035 C 
BRANCH   8   9
HETATM    9  C12 UNL     1      13.515  21.089  21.488  1.00  0.00     0.042 A 
HETATM   10  C13 UNL     1      13.423  22.429  21.850  1.00  0.00     0.081 A 
HETATM   11  C14 UNL     1      12.320  22.825  22.561  1.00  0.00     0.054 A 
HETATM   12  C15 UNL     1      11.318  21.954  22.922  1.00  0.00     0.092 A 
HETATM   13  N1  UNL     1      11.440  20.644  22.551  1.00  0.00    -0.351 N 
HETATM   14  C16 UNL     1      12.484  20.187  21.860  1.00  0.00     0.117 A 
ATOM     15  H1  UNL     1      10.703  19.991  22.814  1.00  0.00     0.166 HD
HETATM   16  N2  UNL     1      12.636  19.018  21.504  1.00  0.00    -0.355 N 
ATOM     17  H2  UNL     1      13.521  18.976  20.998  1.00  0.00     0.166 HD
BRANCH  10  18
HETATM   18  O3  UNL     1      14.405  23.331  21.507  1.00  0.00    -0.360 OA
ATOM     19  H3  UNL     1      14.189  24.217  21.241  1.00  0.00     0.217 HD
ENDBRANCH  10  18
BRANCH  16  20
HETATM   20  C17 UNL     1      12.116  17.747  21.503  1.00  0.00     0.062 C 
BRANCH  20  21
HETATM   21  C18 UNL     1      12.735  16.697  20.636  1.00  0.00     0.046 C 
BRANCH  21  22
HETATM   22  C19 UNL     1      13.412  17.268  19.423  1.00  0.00     0.031 C 
BRANCH  22  23
HETATM   23  C20 UNL     1      14.871  16.953  19.405  1.00  0.00     0.164 C 
BRANCH  23  24
HETATM   24  O4  UNL     1      15.170  16.279  20.600  1.00  0.00    -0.401 OA
ATOM     25  H4  UNL     1      15.852  16.771  21.041  1.00  0.00     0.209 HD
ENDBRANCH  23  24
ENDBRANCH  22  23
ENDBRANCH  21  22
ENDBRANCH  20  21
ENDBRANCH  16  20
ENDBRANCH   8   9
ENDBRANCH   5   8
BRANCH   4  26
HETATM   26  O2  UNL     1      15.352  18.496  22.573  1.00  0.00    -0.359 OA
ATOM     27  H2  UNL     1      14.445  18.676  22.358  1.00  0.00     0.217 HD
ENDBRANCH   4  26
BRANCH   6  28
HETATM   28  O5  UNL     1      16.595  22.108  19.719  1.00  0.00    -0.354 OA
HETATM   29  C22 UNL     1      16.491  21.828  18.325  1.00  0.00     0.210 C 
ENDBRANCH   6  28
BRANCH   3  30
HETATM   30  C4  UNL     1      17.989  17.986  23.278  1.00  0.00     0.013 C 
HETATM   31  C5  UNL     1      17.989  17.945  24.560  1.00  0.00     0.005 C 
BRANCH  31  32
HETATM   32  C6  UNL     1      18.453  16.664  25.243  1.00  0.00     0.140 C 
BRANCH  32  33
HETATM   33  O1  UNL     1      17.366  15.933  25.712  1.00  0.00    -0.392 OA
ATOM     34  H1  UNL     1      17.549  15.001  25.684  1.00  0.00     0.210 HD
ENDBRANCH  32  33
BRANCH  32  35
HETATM   35  C7  UNL     1      19.401  16.988  26.366  1.00  0.00     0.031 C 
HETATM   36  C8  UNL     1      19.631  18.463  26.522  1.00  0.00     0.008 C 
ENDBRANCH  32  35
ENDBRANCH  31  32
ENDBRANCH   3  30
BRANCH   7  37
HETATM   37  C24 UNL     1      19.288  21.697  20.348  1.00  0.00     0.159 C 
HETATM   38  C25 UNL     1      20.112  21.229  19.227  1.00  0.00     0.097 C 
HETATM   39  O6  UNL     1      19.468  22.840  20.840  1.00  0.00    -0.293 OA
ENDBRANCH   7  37
TORSDOF 15
ENDMDL
MODEL 4
REMARK VINA RESULT: -6.916154228      1.000      1.192
REMARK  15 active torsions:
REMARK  status: ('A' for Active; 'I' for Inactive)
REMARK    1  A    between atoms: C3_3  and  C4_4 
REMARK    2  A    between atoms: C5_5  and  C6_6 
REMARK    3  A    between atoms: C6_6  and  O1_7 
REMARK    4  A    between atoms: C6_6  and  C7_9 
REMARK    5  A    between atoms: C9_11  and  O2_12 
REMARK    6  A    between atoms: C10_14  and  C11_15 
REMARK    7  A    between atoms: C11_15  and  C12_16 
REMARK    8  A    between atoms: C13_17  and  O3_18 
REMARK    9  A    between atoms: N2_25  and  C17_27 
REMARK   10  A    between atoms: C17_27  and  C18_28 
REMARK   11  A    between atoms: C18_28  and  C19_29 
REMARK   12  A    between atoms: C19_29  and  C20_30 
REMARK   13  A    between atoms: C20_30  and  O4_31 
REMARK   14  A    between atoms: C21_33  and  O5_34 
REMARK   15  A    between atoms: C23_36  and  C24_37 
ROOT
HETATM    1  C1  UNL     1      16.768  16.104  21.843  1.00  0.00     0.025 C 
HETATM    2  C2  UNL     1      15.828  17.058  21.793  1.00  0.00    -0.016 A 
HETATM    3  C3  UNL     1      16.014  18.334  22.284  1.00  0.00     0.008 A 
HETATM    4  C9  UNL     1      14.949  19.271  22.180  1.00  0.00     0.089 A 
HETATM    5  C10 UNL     1      13.727  18.960  21.605  1.00  0.00     0.033 A 
HETATM    6  C21 UNL     1      13.602  17.643  21.125  1.00  0.00     0.096 A 
HETATM    7  C23 UNL     1      14.605  16.734  21.214  1.00  0.00     0.054 A 
ENDROOT
BRANCH   5   8
HETATM    8  C11 UNL     1      12.716  19.776  21.483  1.00  0.00     0.035 C 
BRANCH   8   9
HETATM    9  C12 UNL     1      12.564  21.185  21.692  1.00  0.00     0.042 A 
HETATM   10  C13 UNL     1      11.849  21.698  22.770  1.00  0.00     0.081 A 
HETATM   11  C14 UNL     1      11.721  23.059  22.864  1.00  0.00     0.054 A 
HETATM   12  C15 UNL     1      12.267  23.921  21.940  1.00  0.00     0.092 A 
HETATM   13  N1  UNL     1      12.963  23.384  20.893  1.00  0.00    -0.351 N 
HETATM   14  C16 UNL     1      13.128  22.071  20.737  1.00  0.00     0.117 A 
ATOM     15  H1  UNL     1      13.372  24.015  20.204  1.00  0.00     0.166 HD
HETATM   16  N2  UNL     1      13.746  21.544  19.812  1.00  0.00    -0.355 N 
ATOM     17  H2  UNL     1      13.700  20.536  19.962  1.00  0.00     0.166 HD
BRANCH  10  18
HETATM   18  O3  UNL     1      11.288  20.868  23.714  1.00  0.00    -0.360 OA
ATOM     19  H3  UNL     1      10.345  20.771  23.787  1.00  0.00     0.217 HD
ENDBRANCH  10  18
BRANCH  16  20
HETATM   20  C17 UNL     1      14.470  21.742  18.661  1.00  0.00     0.062 C 
BRANCH  20  21
HETATM   21  C18 UNL     1      15.530  20.760  18.278  1.00  0.00     0.046 C 
BRANCH  21  22
HETATM   22  C19 UNL     1      16.493  20.475  19.396  1.00  0.00     0.031 C 
BRANCH  22  23
HETATM   23  C20 UNL     1      17.279  21.688  19.770  1.00  0.00     0.164 C 
BRANCH  23  24
HETATM   24  O4  UNL     1      16.760  22.167  20.983  1.00  0.00    -0.401 OA
ATOM     25  H4  UNL     1      15.852  21.892  21.033  1.00  0.00     0.209 HD
ENDBRANCH  23  24
ENDBRANCH  22  23
ENDBRANCH  21  22
ENDBRANCH  20  21
ENDBRANCH  16  20
ENDBRANCH   8   9
ENDBRANCH   5   8
BRANCH   4  26
HETATM   26  O2  UNL     1      15.185  20.480  22.668  1.00  0.00    -0.359 OA
ATOM     27  H2  UNL     1      14.554  21.153  22.443  1.00  0.00     0.217 HD
ENDBRANCH   4  26
BRANCH   6  28
HETATM   28  O5  UNL     1      12.378  17.273  20.530  1.00  0.00    -0.354 OA
HETATM   29  C22 UNL     1      12.197  17.449  19.128  1.00  0.00     0.210 C 
ENDBRANCH   6  28
BRANCH   3  30
HETATM   30  C4  UNL     1      17.284  18.676  22.887  1.00  0.00     0.013 C 
HETATM   31  C5  UNL     1      18.328  19.233  22.390  1.00  0.00     0.005 C 
BRANCH  31  32
HETATM   32  C6  UNL     1      19.529  19.462  23.299  1.00  0.00     0.140 C 
BRANCH  32  33
HETATM   33  O1  UNL     1      20.617  18.702  22.881  1.00  0.00    -0.392 OA
ATOM     34  H1  UNL     1      21.265  18.633  23.572  1.00  0.00     0.210 HD
ENDBRANCH  32  33
BRANCH  32  35
HETATM   35  C7  UNL     1      19.170  19.139  24.725  1.00  0.00     0.031 C 
HETATM   36  C8  UNL     1      19.890  20.008  25.714  1.00  0.00     0.008 C 
ENDBRANCH  32  35
ENDBRANCH  31  32
ENDBRANCH   3  30
BRANCH   7  37
HETATM   37  C24 UNL     1      14.413  15.363  20.690  1.00  0.00     0.159 C 
HETATM   38  C25 UNL     1      13.817  14.304  21.512  1.00  0.00     0.097 C 
HETATM   39  O6  UNL     1      14.778  15.127  19.510  1.00  0.00    -0.293 OA
ENDBRANCH   7  37
TORSDOF 15
ENDMDL
MODEL 5
REMARK VINA RESULT: -6.894776566      2.736      6.444
REMARK  15 active torsions:
REMARK  status: ('A' for Active; 'I' for Inactive)
REMARK    1  A    between atoms: C3_3  and  C4_4 
REMARK    2  A    between atoms: C5_5  and  C6_6 
REMARK    3  A    between atoms: C6_6  and  O1_7 
REMARK    4  A    between atoms: C6_6  and  C7_9 
REMARK    5  A    between atoms: C9_11  and  O2_12 
REMARK    6  A    between atoms: C10_14  and  C11_15 
REMARK    7  A    between atoms: C11_15  and  C12_16 
REMARK    8  A    between atoms: C13_17  and  O3_18 
REMARK    9  A    between atoms: N2_25  and  C17_27 
REMARK   10  A    between atoms: C17_27  and  C18_28 
REMARK   11  A    between atoms: C18_28  and  C19_29 
REMARK   12  A    between atoms: C19_29  and  C20_30 
REMARK   13  A    between atoms: C20_30  and  O4_31 
REMARK   14  A    between atoms: C21_33  and  O5_34 
REMARK   15  A    between atoms: C23_36  and  C24_37 
ROOT
HETATM    1  C1  UNL     1      14.958  22.272  21.312  1.00  0.00     0.025 C 
HETATM    2  C2  UNL     1      14.533  21.163  20.691  1.00  0.00    -0.016 A 
HETATM    3  C3  UNL     1      13.450  20.421  21.117  1.00  0.00     0.008 A 
HETATM    4  C9  UNL     1      13.084  19.259  20.383  1.00  0.00     0.089 A 
HETATM    5  C10 UNL     1      13.767  18.835  19.254  1.00  0.00     0.033 A 
HETATM    6  C21 UNL     1      14.861  19.636  18.874  1.00  0.00     0.096 A 
HETATM    7  C23 UNL     1      15.227  20.748  19.559  1.00  0.00     0.054 A 
ENDROOT
BRANCH   5   8
HETATM    8  C11 UNL     1      13.478  17.781  18.543  1.00  0.00     0.035 C 
BRANCH   8   9
HETATM    9  C12 UNL     1      13.089  16.445  18.885  1.00  0.00     0.042 A 
HETATM   10  C13 UNL     1      11.827  15.944  18.582  1.00  0.00     0.081 A 
HETATM   11  C14 UNL     1      11.531  14.669  18.987  1.00  0.00     0.054 A 
HETATM   12  C15 UNL     1      12.427  13.882  19.673  1.00  0.00     0.092 A 
HETATM   13  N1  UNL     1      13.657  14.404  19.955  1.00  0.00    -0.351 N 
HETATM   14  C16 UNL     1      14.016  15.636  19.593  1.00  0.00     0.117 A 
ATOM     15  H1  UNL     1      14.328  13.829  20.463  1.00  0.00     0.166 HD
HETATM   16  N2  UNL     1      15.111  16.148  19.825  1.00  0.00    -0.355 N 
ATOM     17  H2  UNL     1      15.088  17.087  19.429  1.00  0.00     0.166 HD
BRANCH  10  18
HETATM   18  O3  UNL     1      10.903  16.702  17.897  1.00  0.00    -0.360 OA
ATOM     19  H3  UNL     1      10.321  17.298  18.353  1.00  0.00     0.217 HD
ENDBRANCH  10  18
BRANCH  16  20
HETATM   20  C17 UNL     1      16.352  15.986  20.393  1.00  0.00     0.062 C 
BRANCH  20  21
HETATM   21  C18 UNL     1      17.109  17.184  20.865  1.00  0.00     0.046 C 
BRANCH  21  22
HETATM   22  C19 UNL     1      16.361  17.978  21.898  1.00  0.00     0.031 C 
BRANCH  22  23
HETATM   23  C20 UNL     1      17.192  19.087  22.452  1.00  0.00     0.164 C 
BRANCH  23  24
HETATM   24  O4  UNL     1      16.368  19.850  23.294  1.00  0.00    -0.401 OA
ATOM     25  H4  UNL     1      16.919  20.492  23.726  1.00  0.00     0.209 HD
ENDBRANCH  23  24
ENDBRANCH  22  23
ENDBRANCH  21  22
ENDBRANCH  20  21
ENDBRANCH  16  20
ENDBRANCH   8   9
ENDBRANCH   5   8
BRANCH   4  26
HETATM   26  O2  UNL     1      12.037  18.587  20.839  1.00  0.00    -0.359 OA
ATOM     27  H2  UNL     1      11.801  17.804  20.357  1.00  0.00     0.217 HD
ENDBRANCH   4  26
BRANCH   6  28
HETATM   28  O5  UNL     1      15.592  19.251  17.731  1.00  0.00    -0.354 OA
HETATM   29  C22 UNL     1      15.350  19.904  16.488  1.00  0.00     0.210 C 
ENDBRANCH   6  28
BRANCH   3  30
HETATM   30  C4  UNL     1      12.725  20.850  22.293  1.00  0.00     0.013 C 
HETATM   31  C5  UNL     1      11.819  21.746  22.442  1.00  0.00     0.005 C 
BRANCH  31  32
HETATM   32  C6  UNL     1      11.238  21.964  23.834  1.00  0.00     0.140 C 
BRANCH  32  33
HETATM   33  O1  UNL     1      10.007  21.329  23.960  1.00  0.00    -0.392 OA
ATOM     34  H1  UNL     1       9.808  20.823  23.181  1.00  0.00     0.210 HD
ENDBRANCH  32  33
BRANCH  32  35
HETATM   35  C7  UNL     1      11.110  23.437  24.118  1.00  0.00     0.031 C 
HETATM   36  C8  UNL     1      12.226  24.241  23.518  1.00  0.00     0.008 C 
ENDBRANCH  32  35
ENDBRANCH  31  32
ENDBRANCH   3  30
BRANCH   7  37
HETATM   37  C24 UNL     1      16.387  21.549  19.109  1.00  0.00     0.159 C 
HETATM   38  C25 UNL     1      17.752  21.241  19.554  1.00  0.00     0.097 C 
HETATM   39  O6  UNL     1      16.172  22.510  18.328  1.00  0.00    -0.293 OA
ENDBRANCH   7  37
TORSDOF 15
ENDMDL
