MODEL 1
REMARK VINA RESULT: -6.406988859      0.000      0.000
REMARK  10 active torsions:
REMARK  status: ('A' for Active; 'I' for Inactive)
REMARK    1  A    between atoms: C2_2  and  O2_4 
REMARK    2  A    between atoms: O2_4  and  C3_5 
REMARK    3  A    between atoms: C3_5  and  O3_6 
REMARK    4  A    between atoms: C3_5  and  C4_8 
REMARK    5  A    between atoms: C4_8  and  O4_9 
REMARK    6  A    between atoms: C4_8  and  C5_11 
REMARK    7  A    between atoms: C6_14  and  N2_15 
REMARK    8  A    between atoms: C7_19  and  N4_20 
REMARK       I    between atoms: N4_20  and  C8_22 
REMARK    9  A    between atoms: C9_25  and  O5_26 
REMARK   10  A    between atoms: C11_30  and  S1_31 
ROOT
HETATM    1  C5  UNL     1      40.476   4.219  12.415  1.00  0.00     0.174 A 
HETATM    2  N1  UNL     1      41.029   3.059  12.095  1.00  0.00    -0.171 N 
ATOM      3  H1  UNL     1      42.014   3.046  11.829  1.00  0.00     0.186 HD
HETATM    4  C6  UNL     1      40.347   1.889  12.106  1.00  0.00     0.688 A 
HETATM    5  N3  UNL     1      39.053   1.859  12.448  1.00  0.00    -0.106 N 
HETATM    6  C7  UNL     1      38.308   0.726  12.485  1.00  0.00     0.171 A 
HETATM    7  C9  UNL     1      36.978   0.847  12.873  1.00  0.00     0.164 A 
HETATM    8  C10 UNL     1      36.448   2.094  13.203  1.00  0.00     0.237 A 
HETATM    9  O6  UNL     1      35.232   2.233  13.561  1.00  0.00    -0.283 OA
HETATM   10  C11 UNL     1      37.217   3.222  13.156  1.00  0.00     0.185 A 
HETATM   11  C12 UNL     1      38.528   3.080  12.772  1.00  0.00     0.202 A 
HETATM   12  O10 UNL     1      39.220   4.194  12.751  1.00  0.00    -0.275 OA
ENDROOT
BRANCH   1  13
HETATM   13  C4  UNL     1      41.214   5.514  12.407  1.00  0.00     0.249 C 
BRANCH  13  14
HETATM   14  C3  UNL     1      42.083   5.647  11.154  1.00  0.00     0.303 C 
BRANCH  14  15
HETATM   15  O2  UNL     1      41.298   5.290  10.055  1.00  0.00    -0.287 OA
BRANCH  15  16
HETATM   16  C2  UNL     1      41.784   4.501   8.997  1.00  0.00     0.257 C 
HETATM   17  C1  UNL     1      41.826   4.985   7.609  1.00  0.00     0.126 C 
HETATM   18  O1  UNL     1      42.181   3.343   9.336  1.00  0.00    -0.266 OA
ENDBRANCH  15  16
ENDBRANCH  14  15
BRANCH  14  19
HETATM   19  O3  UNL     1      43.265   4.962  11.272  1.00  0.00    -0.368 OA
ATOM     20  H3  UNL     1      44.016   5.493  11.511  1.00  0.00     0.212 HD
ENDBRANCH  14  19
ENDBRANCH  13  14
BRANCH  13  21
HETATM   21  O4  UNL     1      40.306   6.564  12.516  1.00  0.00    -0.382 OA
ATOM     22  H4  UNL     1      39.542   6.315  13.023  1.00  0.00     0.210 HD
ENDBRANCH  13  21
ENDBRANCH   1  13
BRANCH   4  23
HETATM   23  N2  UNL     1      40.995   0.805  11.821  1.00  0.00    -0.234 N 
ATOM     24  H22 UNL     1      41.984   0.702  12.047  1.00  0.00     0.174 HD
ATOM     25  H21 UNL     1      40.495   0.064  11.330  1.00  0.00     0.174 HD
ENDBRANCH   4  23
BRANCH  10  26
HETATM   26  S1  UNL     1      36.549   4.804  13.572  1.00  0.00     0.146 S 
HETATM   27  O7  UNL     1      36.637   4.962  15.054  1.00  0.00    -0.591 OA
HETATM   28  O8  UNL     1      37.392   5.852  12.913  1.00  0.00    -0.591 OA
HETATM   29  O9  UNL     1      34.967   4.828  13.063  1.00  0.00    -0.591 OA
ENDBRANCH  10  26
BRANCH   6  30
HETATM   30  N4  UNL     1      38.813  -0.508  12.052  1.00  0.00    -0.316 N 
HETATM   31  C8  UNL     1      39.108  -1.684  12.837  1.00  0.00     0.202 C 
HETATM   32  N5  UNL     1      40.063  -1.416  13.883  1.00  0.00    -0.066 NA
HETATM   33  N6  UNL     1      38.000  -2.501  13.181  1.00  0.00    -0.066 NA
ATOM     34  H4  UNL     1      38.996  -0.585  11.051  1.00  0.00     0.169 HD
ENDBRANCH   6  30
BRANCH   7  35
HETATM   35  O5  UNL     1      36.085  -0.195  12.967  1.00  0.00    -0.354 OA
ATOM     36  H5  UNL     1      35.712  -0.522  13.777  1.00  0.00     0.218 HD
ENDBRANCH   7  35
TORSDOF 10
ENDMDL
MODEL 2
REMARK VINA RESULT: -6.359620583      0.875      1.189
REMARK  10 active torsions:
REMARK  status: ('A' for Active; 'I' for Inactive)
REMARK    1  A    between atoms: C2_2  and  O2_4 
REMARK    2  A    between atoms: O2_4  and  C3_5 
REMARK    3  A    between atoms: C3_5  and  O3_6 
REMARK    4  A    between atoms: C3_5  and  C4_8 
REMARK    5  A    between atoms: C4_8  and  O4_9 
REMARK    6  A    between atoms: C4_8  and  C5_11 
REMARK    7  A    between atoms: C6_14  and  N2_15 
REMARK    8  A    between atoms: C7_19  and  N4_20 
REMARK       I    between atoms: N4_20  and  C8_22 
REMARK    9  A    between atoms: C9_25  and  O5_26 
REMARK   10  A    between atoms: C11_30  and  S1_31 
ROOT
HETATM    1  C5  UNL     1      40.710   3.295  12.430  1.00  0.00     0.174 A 
HETATM    2  N1  UNL     1      41.049   2.071  12.053  1.00  0.00    -0.171 N 
ATOM      3  H1  UNL     1      42.019   1.893  11.793  1.00  0.00     0.186 HD
HETATM    4  C6  UNL     1      40.166   1.046  11.998  1.00  0.00     0.688 A 
HETATM    5  N3  UNL     1      38.883   1.235  12.330  1.00  0.00    -0.106 N 
HETATM    6  C7  UNL     1      37.944   0.256  12.302  1.00  0.00     0.171 A 
HETATM    7  C9  UNL     1      36.652   0.597  12.687  1.00  0.00     0.164 A 
HETATM    8  C10 UNL     1      36.351   1.901  13.079  1.00  0.00     0.237 A 
HETATM    9  O6  UNL     1      35.175   2.242  13.436  1.00  0.00    -0.283 OA
HETATM   10  C11 UNL     1      37.313   2.872  13.096  1.00  0.00     0.185 A 
HETATM   11  C12 UNL     1      38.583   2.513  12.714  1.00  0.00     0.202 A 
HETATM   12  O10 UNL     1      39.465   3.482  12.756  1.00  0.00    -0.275 OA
ENDROOT
BRANCH   1  13
HETATM   13  C4  UNL     1      41.671   4.433  12.495  1.00  0.00     0.249 C 
BRANCH  13  14
HETATM   14  C3  UNL     1      42.479   4.548  11.201  1.00  0.00     0.303 C 
BRANCH  14  15
HETATM   15  O2  UNL     1      41.634   4.210  10.141  1.00  0.00    -0.287 OA
BRANCH  15  16
HETATM   16  C2  UNL     1      41.926   4.526   8.803  1.00  0.00     0.257 C 
HETATM   17  C1  UNL     1      40.963   5.211   7.928  1.00  0.00     0.126 C 
HETATM   18  O1  UNL     1      43.082   4.173   8.413  1.00  0.00    -0.266 OA
ENDBRANCH  15  16
ENDBRANCH  14  15
BRANCH  14  19
HETATM   19  O3  UNL     1      43.650   3.837  11.260  1.00  0.00    -0.368 OA
ATOM     20  H3  UNL     1      44.021   3.744  12.130  1.00  0.00     0.212 HD
ENDBRANCH  14  19
ENDBRANCH  13  14
BRANCH  13  21
HETATM   21  O4  UNL     1      40.978   5.608  12.774  1.00  0.00    -0.382 OA
ATOM     22  H4  UNL     1      41.563   6.355  12.832  1.00  0.00     0.210 HD
ENDBRANCH  13  21
ENDBRANCH   1  13
BRANCH   4  23
HETATM   23  N2  UNL     1      40.610  -0.122  11.661  1.00  0.00    -0.234 N 
ATOM     24  H22 UNL     1      41.222  -0.657  12.278  1.00  0.00     0.174 HD
ATOM     25  H21 UNL     1      40.362  -0.481  10.739  1.00  0.00     0.174 HD
ENDBRANCH   4  23
BRANCH  10  26
HETATM   26  S1  UNL     1      36.936   4.526  13.590  1.00  0.00     0.146 S 
HETATM   27  O7  UNL     1      35.492   4.772  13.297  1.00  0.00    -0.591 OA
HETATM   28  O8  UNL     1      37.166   4.634  15.066  1.00  0.00    -0.591 OA
HETATM   29  O9  UNL     1      37.906   5.546  12.705  1.00  0.00    -0.591 OA
ENDBRANCH  10  26
BRANCH   6  30
HETATM   30  N4  UNL     1      38.223  -1.026  11.807  1.00  0.00    -0.316 N 
HETATM   31  C8  UNL     1      38.270  -2.277  12.528  1.00  0.00     0.202 C 
HETATM   32  N5  UNL     1      39.225  -2.249  13.608  1.00  0.00    -0.066 NA
HETATM   33  N6  UNL     1      37.018  -2.889  12.800  1.00  0.00    -0.066 NA
ATOM     34  H4  UNL     1      38.420  -1.082  10.808  1.00  0.00     0.169 HD
ENDBRANCH   6  30
BRANCH   7  35
HETATM   35  O5  UNL     1      35.583  -0.268  12.720  1.00  0.00    -0.354 OA
ATOM     36  H5  UNL     1      34.928  -0.299  13.407  1.00  0.00     0.218 HD
ENDBRANCH   7  35
TORSDOF 10
ENDMDL
MODEL 3
REMARK VINA RESULT: -6.320517433      2.112      6.213
REMARK  10 active torsions:
REMARK  status: ('A' for Active; 'I' for Inactive)
REMARK    1  A    between atoms: C2_2  and  O2_4 
REMARK    2  A    between atoms: O2_4  and  C3_5 
REMARK    3  A    between atoms: C3_5  and  O3_6 
REMARK    4  A    between atoms: C3_5  and  C4_8 
REMARK    5  A    between atoms: C4_8  and  O4_9 
REMARK    6  A    between atoms: C4_8  and  C5_11 
REMARK    7  A    between atoms: C6_14  and  N2_15 
REMARK    8  A    between atoms: C7_19  and  N4_20 
REMARK       I    between atoms: N4_20  and  C8_22 
REMARK    9  A    between atoms: C9_25  and  O5_26 
REMARK   10  A    between atoms: C11_30  and  S1_31 
ROOT
HETATM    1  C5  UNL     1      38.550   0.495  12.746  1.00  0.00     0.174 A 
HETATM    2  N1  UNL     1      39.800   0.496  12.307  1.00  0.00    -0.171 N 
ATOM      3  H1  UNL     1      40.268  -0.401  12.170  1.00  0.00     0.186 HD
HETATM    4  C6  UNL     1      40.484   1.631  12.033  1.00  0.00     0.688 A 
HETATM    5  N3  UNL     1      39.910   2.829  12.200  1.00  0.00    -0.106 N 
HETATM    6  C7  UNL     1      40.533   4.007  11.942  1.00  0.00     0.171 A 
HETATM    7  C9  UNL     1      39.805   5.174  12.150  1.00  0.00     0.164 A 
HETATM    8  C10 UNL     1      38.490   5.115  12.609  1.00  0.00     0.237 A 
HETATM    9  O6  UNL     1      37.800   6.170  12.809  1.00  0.00    -0.283 OA
HETATM   10  C11 UNL     1      37.884   3.917  12.864  1.00  0.00     0.185 A 
HETATM   11  C12 UNL     1      38.620   2.777  12.651  1.00  0.00     0.202 A 
HETATM   12  O10 UNL     1      37.987   1.657  12.907  1.00  0.00    -0.275 OA
ENDROOT
BRANCH   1  13
HETATM   13  C4  UNL     1      37.784  -0.746  13.053  1.00  0.00     0.249 C 
BRANCH  13  14
HETATM   14  C3  UNL     1      36.666  -0.973  12.033  1.00  0.00     0.303 C 
BRANCH  14  15
HETATM   15  O2  UNL     1      36.524  -2.352  11.860  1.00  0.00    -0.287 OA
BRANCH  15  16
HETATM   16  C2  UNL     1      35.539  -2.918  11.031  1.00  0.00     0.257 C 
HETATM   17  C1  UNL     1      35.677  -4.261  10.449  1.00  0.00     0.126 C 
HETATM   18  O1  UNL     1      34.526  -2.178  10.827  1.00  0.00    -0.266 OA
ENDBRANCH  15  16
ENDBRANCH  14  15
BRANCH  14  19
HETATM   19  O3  UNL     1      36.870  -0.261  10.879  1.00  0.00    -0.368 OA
ATOM     20  H3  UNL     1      36.460   0.596  10.857  1.00  0.00     0.212 HD
ENDBRANCH  14  19
ENDBRANCH  13  14
BRANCH  13  21
HETATM   21  O4  UNL     1      38.659  -1.828  13.105  1.00  0.00    -0.382 OA
ATOM     22  H4  UNL     1      39.524  -1.565  13.399  1.00  0.00     0.210 HD
ENDBRANCH  13  21
ENDBRANCH   1  13
BRANCH   4  23
HETATM   23  N2  UNL     1      41.686   1.518  11.565  1.00  0.00    -0.234 N 
ATOM     24  H22 UNL     1      41.935   0.776  10.911  1.00  0.00     0.174 HD
ATOM     25  H21 UNL     1      42.393   2.174  11.897  1.00  0.00     0.174 HD
ENDBRANCH   4  23
BRANCH  10  26
HETATM   26  S1  UNL     1      36.219   3.838  13.448  1.00  0.00     0.146 S 
HETATM   27  O7  UNL     1      35.341   4.459  12.411  1.00  0.00    -0.591 OA
HETATM   28  O8  UNL     1      35.850   2.396  13.608  1.00  0.00    -0.591 OA
HETATM   29  O9  UNL     1      36.148   4.689  14.875  1.00  0.00    -0.591 OA
ENDBRANCH  10  26
BRANCH   6  30
HETATM   30  N4  UNL     1      41.886   4.067  11.583  1.00  0.00    -0.316 N 
HETATM   31  C8  UNL     1      42.464   4.465  10.320  1.00  0.00     0.202 C 
HETATM   32  N5  UNL     1      41.986   3.660   9.224  1.00  0.00    -0.066 NA
HETATM   33  N6  UNL     1      42.562   5.862  10.089  1.00  0.00    -0.066 NA
ATOM     34  H4  UNL     1      42.550   3.794  12.308  1.00  0.00     0.169 HD
ENDBRANCH   6  30
BRANCH   7  35
HETATM   35  O5  UNL     1      40.279   6.448  11.938  1.00  0.00    -0.354 OA
ATOM     36  H5  UNL     1      40.036   7.211  12.449  1.00  0.00     0.218 HD
ENDBRANCH   7  35
TORSDOF 10
ENDMDL
MODEL 4
REMARK VINA RESULT: -6.174885756      3.295      7.363
REMARK  10 active torsions:
REMARK  status: ('A' for Active; 'I' for Inactive)
REMARK    1  A    between atoms: C2_2  and  O2_4 
REMARK    2  A    between atoms: O2_4  and  C3_5 
REMARK    3  A    between atoms: C3_5  and  O3_6 
REMARK    4  A    between atoms: C3_5  and  C4_8 
REMARK    5  A    between atoms: C4_8  and  O4_9 
REMARK    6  A    between atoms: C4_8  and  C5_11 
REMARK    7  A    between atoms: C6_14  and  N2_15 
REMARK    8  A    between atoms: C7_19  and  N4_20 
REMARK       I    between atoms: N4_20  and  C8_22 
REMARK    9  A    between atoms: C9_25  and  O5_26 
REMARK   10  A    between atoms: C11_30  and  S1_31 
ROOT
HETATM    1  C5  UNL     1      37.987  -1.137  13.409  1.00  0.00     0.174 A 
HETATM    2  N1  UNL     1      36.948  -0.320  13.495  1.00  0.00    -0.171 N 
ATOM      3  H1  UNL     1      36.047  -0.706  13.776  1.00  0.00     0.186 HD
HETATM    4  C6  UNL     1      37.028   1.006  13.227  1.00  0.00     0.688 A 
HETATM    5  N3  UNL     1      38.191   1.555  12.854  1.00  0.00    -0.106 N 
HETATM    6  C7  UNL     1      38.346   2.873  12.574  1.00  0.00     0.171 A 
HETATM    7  C9  UNL     1      39.618   3.304  12.211  1.00  0.00     0.164 A 
HETATM    8  C10 UNL     1      40.678   2.401  12.140  1.00  0.00     0.237 A 
HETATM    9  O6  UNL     1      41.853   2.769  11.810  1.00  0.00    -0.283 OA
HETATM   10  C11 UNL     1      40.496   1.077  12.425  1.00  0.00     0.185 A 
HETATM   11  C12 UNL     1      39.233   0.673  12.782  1.00  0.00     0.202 A 
HETATM   12  O10 UNL     1      39.119  -0.606  13.049  1.00  0.00    -0.275 OA
ENDROOT
BRANCH   1  13
HETATM   13  C4  UNL     1      37.914  -2.597  13.700  1.00  0.00     0.249 C 
BRANCH  13  14
HETATM   14  C3  UNL     1      36.657  -3.220  13.090  1.00  0.00     0.303 C 
BRANCH  14  15
HETATM   15  O2  UNL     1      36.594  -2.823  11.751  1.00  0.00    -0.287 OA
BRANCH  15  16
HETATM   16  C2  UNL     1      35.549  -3.204  10.892  1.00  0.00     0.257 C 
HETATM   17  C1  UNL     1      35.578  -4.458  10.125  1.00  0.00     0.126 C 
HETATM   18  O1  UNL     1      34.582  -2.382  10.832  1.00  0.00    -0.266 OA
ENDBRANCH  15  16
ENDBRANCH  14  15
BRANCH  14  19
HETATM   19  O3  UNL     1      35.535  -2.946  13.830  1.00  0.00    -0.368 OA
ATOM     20  H3  UNL     1      35.617  -3.113  14.762  1.00  0.00     0.212 HD
ENDBRANCH  14  19
ENDBRANCH  13  14
BRANCH  13  21
HETATM   21  O4  UNL     1      39.071  -3.219  13.238  1.00  0.00    -0.382 OA
ATOM     22  H4  UNL     1      38.938  -3.619  12.386  1.00  0.00     0.210 HD
ENDBRANCH  13  21
ENDBRANCH   1  13
BRANCH   4  23
HETATM   23  N2  UNL     1      35.963   1.723  13.387  1.00  0.00    -0.234 N 
ATOM     24  H22 UNL     1      35.046   1.388  13.091  1.00  0.00     0.174 HD
ATOM     25  H21 UNL     1      36.069   2.655  13.789  1.00  0.00     0.174 HD
ENDBRANCH   4  23
BRANCH  10  26
HETATM   26  S1  UNL     1      41.836  -0.072  12.334  1.00  0.00     0.146 S 
HETATM   27  O7  UNL     1      42.662   0.092  13.568  1.00  0.00    -0.591 OA
HETATM   28  O8  UNL     1      41.262  -1.454  12.305  1.00  0.00    -0.591 OA
HETATM   29  O9  UNL     1      42.718   0.295  10.973  1.00  0.00    -0.591 OA
ENDBRANCH  10  26
BRANCH   6  30
HETATM   30  N4  UNL     1      37.260   3.758  12.542  1.00  0.00    -0.316 N 
HETATM   31  C8  UNL     1      37.014   4.910  13.380  1.00  0.00     0.202 C 
HETATM   32  N5  UNL     1      36.973   4.567  14.780  1.00  0.00    -0.066 NA
HETATM   33  N6  UNL     1      37.714   6.095  13.035  1.00  0.00    -0.066 NA
ATOM     34  H4  UNL     1      36.550   3.564  11.837  1.00  0.00     0.169 HD
ENDBRANCH   6  30
BRANCH   7  35
HETATM   35  O5  UNL     1      39.952   4.601  11.897  1.00  0.00    -0.354 OA
ATOM     36  H5  UNL     1      39.765   5.358  12.439  1.00  0.00     0.218 HD
ENDBRANCH   7  35
TORSDOF 10
ENDMDL
MODEL 5
REMARK VINA RESULT: -5.997374062      3.111      6.379
REMARK  10 active torsions:
REMARK  status: ('A' for Active; 'I' for Inactive)
REMARK    1  A    between atoms: C2_2  and  O2_4 
REMARK    2  A    between atoms: O2_4  and  C3_5 
REMARK    3  A    between atoms: C3_5  and  O3_6 
REMARK    4  A    between atoms: C3_5  and  C4_8 
REMARK    5  A    between atoms: C4_8  and  O4_9 
REMARK    6  A    between atoms: C4_8  and  C5_11 
REMARK    7  A    between atoms: C6_14  and  N2_15 
REMARK    8  A    between atoms: C7_19  and  N4_20 
REMARK       I    between atoms: N4_20  and  C8_22 
REMARK    9  A    between atoms: C9_25  and  O5_26 
REMARK   10  A    between atoms: C11_30  and  S1_31 
ROOT
HETATM    1  C5  UNL     1      37.260  -0.444  11.549  1.00  0.00     0.174 A 
HETATM    2  N1  UNL     1      38.413  -1.094  11.599  1.00  0.00    -0.171 N 
ATOM      3  H1  UNL     1      38.489  -1.988  11.114  1.00  0.00     0.186 HD
HETATM    4  C6  UNL     1      39.495  -0.625  12.264  1.00  0.00     0.688 A 
HETATM    5  N3  UNL     1      39.440   0.543  12.915  1.00  0.00    -0.106 N 
HETATM    6  C7  UNL     1      40.484   1.076  13.599  1.00  0.00     0.171 A 
HETATM    7  C9  UNL     1      40.283   2.306  14.216  1.00  0.00     0.164 A 
HETATM    8  C10 UNL     1      39.049   2.949  14.128  1.00  0.00     0.237 A 
HETATM    9  O6  UNL     1      38.837   4.077  14.685  1.00  0.00    -0.283 OA
HETATM   10  C11 UNL     1      38.011   2.391  13.436  1.00  0.00     0.185 A 
HETATM   11  C12 UNL     1      38.231   1.177  12.833  1.00  0.00     0.202 A 
HETATM   12  O10 UNL     1      37.203   0.693  12.178  1.00  0.00    -0.275 OA
ENDROOT
BRANCH   1  13
HETATM   13  C4  UNL     1      36.060  -0.948  10.822  1.00  0.00     0.249 C 
BRANCH  13  14
HETATM   14  C3  UNL     1      35.261  -1.926  11.684  1.00  0.00     0.303 C 
BRANCH  14  15
HETATM   15  O2  UNL     1      36.099  -2.365  12.713  1.00  0.00    -0.287 OA
BRANCH  15  16
HETATM   16  C2  UNL     1      36.054  -3.673  13.226  1.00  0.00     0.257 C 
HETATM   17  C1  UNL     1      37.270  -4.454  13.498  1.00  0.00     0.126 C 
HETATM   18  O1  UNL     1      34.885  -4.125  13.433  1.00  0.00    -0.266 OA
ENDBRANCH  15  16
ENDBRANCH  14  15
BRANCH  14  19
HETATM   19  O3  UNL     1      34.689  -2.923  10.937  1.00  0.00    -0.368 OA
ATOM     20  H3  UNL     1      34.855  -2.872  10.003  1.00  0.00     0.212 HD
ENDBRANCH  14  19
ENDBRANCH  13  14
BRANCH  13  21
HETATM   21  O4  UNL     1      35.281   0.131  10.413  1.00  0.00    -0.382 OA
ATOM     22  H4  UNL     1      35.125   0.116   9.475  1.00  0.00     0.210 HD
ENDBRANCH  13  21
ENDBRANCH   1  13
BRANCH   4  23
HETATM   23  N2  UNL     1      40.588  -1.317  12.211  1.00  0.00    -0.234 N 
ATOM     24  H22 UNL     1      40.790  -1.932  11.423  1.00  0.00     0.174 HD
ATOM     25  H21 UNL     1      41.231  -1.258  13.000  1.00  0.00     0.174 HD
ENDBRANCH   4  23
BRANCH  10  26
HETATM   26  S1  UNL     1      36.444   3.201  13.324  1.00  0.00     0.146 S 
HETATM   27  O7  UNL     1      36.321   3.767  11.947  1.00  0.00    -0.591 OA
HETATM   28  O8  UNL     1      35.375   2.175  13.533  1.00  0.00    -0.591 OA
HETATM   29  O9  UNL     1      36.422   4.407  14.467  1.00  0.00    -0.591 OA
ENDBRANCH  10  26
BRANCH   6  30
HETATM   30  N4  UNL     1      41.688   0.380  13.775  1.00  0.00    -0.316 N 
HETATM   31  C8  UNL     1      42.988   0.680  13.221  1.00  0.00     0.202 C 
HETATM   32  N5  UNL     1      42.971   0.720  11.780  1.00  0.00    -0.066 NA
HETATM   33  N6  UNL     1      43.729   1.697  13.878  1.00  0.00    -0.066 NA
ATOM     34  H4  UNL     1      41.639  -0.445  14.372  1.00  0.00     0.169 HD
ENDBRANCH   6  30
BRANCH   7  35
HETATM   35  O5  UNL     1      41.230   2.987  14.945  1.00  0.00    -0.354 OA
ATOM     36  H5  UNL     1      41.428   2.831  15.861  1.00  0.00     0.218 HD
ENDBRANCH   7  35
TORSDOF 10
ENDMDL
