MODEL 1
REMARK VINA RESULT: -6.926413520      0.000      0.000
REMARK  7 active torsions:
REMARK  status: ('A' for Active; 'I' for Inactive)
REMARK    1  A    between atoms: C2_2  and  C3_4 
REMARK       I    between atoms: C3_4  and  N1_6 
REMARK    2  A    between atoms: N1_6  and  C5_8 
REMARK    3  A    between atoms: C5_8  and  C6_9 
REMARK    4  A    between atoms: N5_14  and  C7_15 
REMARK    5  A    between atoms: C7_15  and  C8_16 
REMARK    6  A    between atoms: C7_15  and  C14_32 
REMARK    7  A    between atoms: C13_29  and  O3_30 
ROOT
HETATM    1  C7  UNL     1      38.414   3.783  14.001  1.00  0.00     0.091 C 
ENDROOT
BRANCH   1   2
HETATM    2  N5  UNL     1      37.337   3.000  13.607  1.00  0.00    -0.227 N 
HETATM    3  C6  UNL     1      37.397   1.573  13.296  1.00  0.00     0.132 C 
HETATM    4  N2  UNL     1      36.198   1.129  13.192  1.00  0.00    -0.272 N 
HETATM    5  N3  UNL     1      35.269   2.139  13.431  1.00  0.00    -0.007 NA
ATOM      6  H2  UNL     1      35.956   0.164  12.964  1.00  0.00     0.185 HD
HETATM    7  N4  UNL     1      36.000   3.317  13.380  1.00  0.00     0.000 NA
BRANCH   3   8
HETATM    8  C5  UNL     1      38.645   0.757  13.100  1.00  0.00     0.204 C 
BRANCH   8   9
HETATM    9  N1  UNL     1      38.879  -0.064  14.303  1.00  0.00    -0.343 N 
HETATM   10  C3  UNL     1      38.349  -1.349  14.486  1.00  0.00     0.289 C 
HETATM   11  O2  UNL     1      37.539  -1.817  13.616  1.00  0.00    -0.264 OA
HETATM   12  C4  UNL     1      39.767   0.492  15.338  1.00  0.00     0.153 C 
BRANCH  10  13
HETATM   13  C2  UNL     1      38.673  -2.169  15.613  1.00  0.00     0.212 C 
HETATM   14  C1  UNL     1      37.779  -2.213  16.825  1.00  0.00     0.102 C 
HETATM   15  O1  UNL     1      39.680  -2.885  15.680  1.00  0.00    -0.288 OA
ENDBRANCH  10  13
ENDBRANCH   8   9
ENDBRANCH   3   8
ENDBRANCH   1   2
BRANCH   1  16
HETATM   16  C8  UNL     1      38.411   4.435  15.333  1.00  0.00     0.068 A 
HETATM   17  S1  UNL     1      39.458   4.089  16.640  1.00  0.00    -0.067 SA
HETATM   18  C9  UNL     1      38.740   5.058  17.861  1.00  0.00     0.092 A 
HETATM   19  N6  UNL     1      39.039   5.319  19.171  1.00  0.00    -0.346 N 
HETATM   20  C12 UNL     1      37.684   5.633  17.194  1.00  0.00     0.076 A 
HETATM   21  C10 UNL     1      38.302   6.173  19.867  1.00  0.00     0.182 A 
ATOM     22  H6  UNL     1      39.832   4.854  19.614  1.00  0.00     0.167 HD
HETATM   23  N7  UNL     1      37.281   6.756  19.260  1.00  0.00    -0.338 N 
HETATM   24  C11 UNL     1      36.917   6.549  17.965  1.00  0.00     0.115 A 
ATOM     25  H7  UNL     1      36.722   7.412  19.806  1.00  0.00     0.168 HD
HETATM   26  N8  UNL     1      35.997   7.198  17.537  1.00  0.00    -0.385 N 
ATOM     27  H82 UNL     1      35.447   7.855  18.091  1.00  0.00     0.157 HD
ATOM     28  H81 UNL     1      35.725   7.043  16.566  1.00  0.00     0.157 HD
HETATM   29  C13 UNL     1      37.517   5.312  15.904  1.00  0.00     0.101 A 
BRANCH  29  30
HETATM   30  O3  UNL     1      36.498   5.791  15.060  1.00  0.00    -0.358 OA
ATOM     31  H3  UNL     1      35.919   5.134  14.692  1.00  0.00     0.217 HD
ENDBRANCH  29  30
ENDBRANCH   1  16
BRANCH   1  32
HETATM   32  C14 UNL     1      38.998   4.647  12.929  1.00  0.00     0.260 C 
HETATM   33  N9  UNL     1      38.151   5.669  12.383  1.00  0.00    -0.099 NA
HETATM   34  N10 UNL     1      39.069   6.110  11.335  1.00  0.00    -0.019 NA
HETATM   35  N11 UNL     1      39.432   4.881  10.757  1.00  0.00    -0.019 NA
HETATM   36  N12 UNL     1      39.227   3.881  11.707  1.00  0.00    -0.099 NA
ENDBRANCH   1  32
TORSDOF 7
ENDMDL
MODEL 2
REMARK VINA RESULT: -6.862772352      0.986      1.184
REMARK  7 active torsions:
REMARK  status: ('A' for Active; 'I' for Inactive)
REMARK    1  A    between atoms: C2_2  and  C3_4 
REMARK       I    between atoms: C3_4  and  N1_6 
REMARK    2  A    between atoms: N1_6  and  C5_8 
REMARK    3  A    between atoms: C5_8  and  C6_9 
REMARK    4  A    between atoms: N5_14  and  C7_15 
REMARK    5  A    between atoms: C7_15  and  C8_16 
REMARK    6  A    between atoms: C7_15  and  C14_32 
REMARK    7  A    between atoms: C13_29  and  O3_30 
ROOT
HETATM    1  C7  UNL     1      38.410   3.768  13.994  1.00  0.00     0.091 C 
ENDROOT
BRANCH   1   2
HETATM    2  N5  UNL     1      37.323   3.003  13.593  1.00  0.00    -0.227 N 
HETATM    3  C6  UNL     1      37.354   1.570  13.308  1.00  0.00     0.132 C 
HETATM    4  N2  UNL     1      36.147   1.152  13.189  1.00  0.00    -0.272 N 
HETATM    5  N3  UNL     1      35.238   2.188  13.393  1.00  0.00    -0.007 NA
ATOM      6  H2  UNL     1      35.887   0.189  12.974  1.00  0.00     0.185 HD
HETATM    7  N4  UNL     1      35.997   3.347  13.335  1.00  0.00     0.000 NA
BRANCH   3   8
HETATM    8  C5  UNL     1      38.586   0.722  13.150  1.00  0.00     0.204 C 
BRANCH   8   9
HETATM    9  N1  UNL     1      38.293  -0.647  13.616  1.00  0.00    -0.343 N 
HETATM   10  C3  UNL     1      37.738  -1.646  12.802  1.00  0.00     0.289 C 
HETATM   11  O2  UNL     1      37.373  -1.349  11.615  1.00  0.00    -0.264 OA
HETATM   12  C4  UNL     1      38.659  -0.982  15.002  1.00  0.00     0.153 C 
BRANCH  10  13
HETATM   13  C2  UNL     1      37.559  -2.995  13.244  1.00  0.00     0.212 C 
HETATM   14  C1  UNL     1      36.194  -3.517  13.613  1.00  0.00     0.102 C 
HETATM   15  O1  UNL     1      38.478  -3.815  13.354  1.00  0.00    -0.288 OA
ENDBRANCH  10  13
ENDBRANCH   8   9
ENDBRANCH   3   8
ENDBRANCH   1   2
BRANCH   1  16
HETATM   16  C8  UNL     1      38.416   4.410  15.330  1.00  0.00     0.068 A 
HETATM   17  S1  UNL     1      39.450   4.033  16.639  1.00  0.00    -0.067 SA
HETATM   18  C9  UNL     1      38.748   5.007  17.863  1.00  0.00     0.092 A 
HETATM   19  N6  UNL     1      39.047   5.252  19.177  1.00  0.00    -0.346 N 
HETATM   20  C12 UNL     1      37.706   5.609  17.197  1.00  0.00     0.076 A 
HETATM   21  C10 UNL     1      38.326   6.116  19.876  1.00  0.00     0.182 A 
ATOM     22  H6  UNL     1      39.829   4.768  19.619  1.00  0.00     0.167 HD
HETATM   23  N7  UNL     1      37.319   6.725  19.270  1.00  0.00    -0.338 N 
HETATM   24  C11 UNL     1      36.956   6.535  17.972  1.00  0.00     0.115 A 
ATOM     25  H7  UNL     1      36.771   7.389  19.819  1.00  0.00     0.168 HD
HETATM   26  N8  UNL     1      36.051   7.206  17.546  1.00  0.00    -0.385 N 
ATOM     27  H82 UNL     1      35.513   7.870  18.102  1.00  0.00     0.157 HD
ATOM     28  H81 UNL     1      35.779   7.064  16.573  1.00  0.00     0.157 HD
HETATM   29  C13 UNL     1      37.538   5.301  15.904  1.00  0.00     0.101 A 
BRANCH  29  30
HETATM   30  O3  UNL     1      36.532   5.807  15.060  1.00  0.00    -0.358 OA
ATOM     31  H3  UNL     1      36.757   5.876  14.140  1.00  0.00     0.217 HD
ENDBRANCH  29  30
ENDBRANCH   1  16
BRANCH   1  32
HETATM   32  C14 UNL     1      39.007   4.632  12.928  1.00  0.00     0.260 C 
HETATM   33  N9  UNL     1      38.159   5.636  12.353  1.00  0.00    -0.099 NA
HETATM   34  N10 UNL     1      39.096   6.082  11.323  1.00  0.00    -0.019 NA
HETATM   35  N11 UNL     1      39.490   4.853  10.765  1.00  0.00    -0.019 NA
HETATM   36  N12 UNL     1      39.277   3.858  11.719  1.00  0.00    -0.099 NA
ENDBRANCH   1  32
TORSDOF 7
ENDMDL
MODEL 3
REMARK VINA RESULT: -6.831120388      3.563      5.818
REMARK  7 active torsions:
REMARK  status: ('A' for Active; 'I' for Inactive)
REMARK    1  A    between atoms: C2_2  and  C3_4 
REMARK       I    between atoms: C3_4  and  N1_6 
REMARK    2  A    between atoms: N1_6  and  C5_8 
REMARK    3  A    between atoms: C5_8  and  C6_9 
REMARK    4  A    between atoms: N5_14  and  C7_15 
REMARK    5  A    between atoms: C7_15  and  C8_16 
REMARK    6  A    between atoms: C7_15  and  C14_32 
REMARK    7  A    between atoms: C13_29  and  O3_30 
ROOT
HETATM    1  C7  UNL     1      38.164   4.995  13.584  1.00  0.00     0.091 C 
ENDROOT
BRANCH   1   2
HETATM    2  N5  UNL     1      39.546   4.879  13.514  1.00  0.00    -0.227 N 
HETATM    3  C6  UNL     1      40.339   4.930  12.288  1.00  0.00     0.132 C 
HETATM    4  N2  UNL     1      41.579   5.017  12.608  1.00  0.00    -0.272 N 
HETATM    5  N3  UNL     1      41.735   5.056  13.991  1.00  0.00    -0.007 NA
ATOM      6  H2  UNL     1      42.348   5.054  11.938  1.00  0.00     0.185 HD
HETATM    7  N4  UNL     1      40.506   4.666  14.502  1.00  0.00     0.000 NA
BRANCH   3   8
HETATM    8  C5  UNL     1      39.809   4.863  10.882  1.00  0.00     0.204 C 
BRANCH   8   9
HETATM    9  N1  UNL     1      40.891   5.209   9.940  1.00  0.00    -0.343 N 
HETATM   10  C3  UNL     1      41.820   4.283   9.445  1.00  0.00     0.289 C 
HETATM   11  O2  UNL     1      41.804   3.087   9.893  1.00  0.00    -0.264 OA
HETATM   12  C4  UNL     1      40.951   6.601   9.462  1.00  0.00     0.153 C 
BRANCH  10  13
HETATM   13  C2  UNL     1      42.795   4.617   8.454  1.00  0.00     0.212 C 
HETATM   14  C1  UNL     1      42.457   4.576   6.985  1.00  0.00     0.102 C 
HETATM   15  O1  UNL     1      43.956   4.957   8.712  1.00  0.00    -0.288 OA
ENDBRANCH  10  13
ENDBRANCH   8   9
ENDBRANCH   3   8
ENDBRANCH   1   2
BRANCH   1  16
HETATM   16  C8  UNL     1      37.543   5.883  14.596  1.00  0.00     0.068 A 
HETATM   17  S1  UNL     1      36.883   7.437  14.321  1.00  0.00    -0.067 SA
HETATM   18  C9  UNL     1      36.559   7.912  15.937  1.00  0.00     0.092 A 
HETATM   19  N6  UNL     1      36.001   9.023  16.511  1.00  0.00    -0.346 N 
HETATM   20  C12 UNL     1      36.985   6.819  16.654  1.00  0.00     0.076 A 
HETATM   21  C10 UNL     1      35.836   9.084  17.824  1.00  0.00     0.182 A 
ATOM     22  H6  UNL     1      35.711   9.807  15.926  1.00  0.00     0.167 HD
HETATM   23  N7  UNL     1      36.224   8.049  18.552  1.00  0.00    -0.338 N 
HETATM   24  C11 UNL     1      36.788   6.913  18.060  1.00  0.00     0.115 A 
ATOM     25  H7  UNL     1      36.091   8.108  19.562  1.00  0.00     0.168 HD
HETATM   26  N8  UNL     1      37.036   6.033  18.843  1.00  0.00    -0.385 N 
ATOM     27  H82 UNL     1      36.895   6.100  19.851  1.00  0.00     0.157 HD
ATOM     28  H81 UNL     1      37.459   5.181  18.473  1.00  0.00     0.157 HD
HETATM   29  C13 UNL     1      37.489   5.786  15.968  1.00  0.00     0.101 A 
BRANCH  29  30
HETATM   30  O3  UNL     1      37.979   4.588  16.521  1.00  0.00    -0.358 OA
ATOM     31  H3  UNL     1      38.283   4.638  17.419  1.00  0.00     0.217 HD
ENDBRANCH  29  30
ENDBRANCH   1  16
BRANCH   1  32
HETATM   32  C14 UNL     1      37.408   3.720  13.383  1.00  0.00     0.260 C 
HETATM   33  N9  UNL     1      36.931   3.448  12.057  1.00  0.00    -0.099 NA
HETATM   34  N10 UNL     1      36.175   2.243  12.392  1.00  0.00    -0.019 NA
HETATM   35  N11 UNL     1      35.440   2.684  13.506  1.00  0.00    -0.019 NA
HETATM   36  N12 UNL     1      36.120   3.762  14.072  1.00  0.00    -0.099 NA
ENDBRANCH   1  32
TORSDOF 7
ENDMDL
MODEL 4
REMARK VINA RESULT: -6.743639704      3.062      7.684
REMARK  7 active torsions:
REMARK  status: ('A' for Active; 'I' for Inactive)
REMARK    1  A    between atoms: C2_2  and  C3_4 
REMARK       I    between atoms: C3_4  and  N1_6 
REMARK    2  A    between atoms: N1_6  and  C5_8 
REMARK    3  A    between atoms: C5_8  and  C6_9 
REMARK    4  A    between atoms: N5_14  and  C7_15 
REMARK    5  A    between atoms: C7_15  and  C8_16 
REMARK    6  A    between atoms: C7_15  and  C14_32 
REMARK    7  A    between atoms: C13_29  and  O3_30 
ROOT
HETATM    1  C7  UNL     1      38.202   1.176  13.452  1.00  0.00     0.091 C 
ENDROOT
BRANCH   1   2
HETATM    2  N5  UNL     1      39.485   1.560  13.086  1.00  0.00    -0.227 N 
HETATM    3  C6  UNL     1      40.316   2.527  13.801  1.00  0.00     0.132 C 
HETATM    4  N2  UNL     1      41.506   2.472  13.324  1.00  0.00    -0.272 N 
HETATM    5  N3  UNL     1      41.598   1.508  12.323  1.00  0.00    -0.007 NA
ATOM      6  H2  UNL     1      42.282   3.056  13.637  1.00  0.00     0.185 HD
HETATM    7  N4  UNL     1      40.285   1.195  12.005  1.00  0.00     0.000 NA
BRANCH   3   8
HETATM    8  C5  UNL     1      39.861   3.457  14.892  1.00  0.00     0.204 C 
BRANCH   8   9
HETATM    9  N1  UNL     1      39.341   4.696  14.284  1.00  0.00    -0.343 N 
HETATM   10  C3  UNL     1      38.213   5.383  14.757  1.00  0.00     0.289 C 
HETATM   11  O2  UNL     1      37.528   4.873  15.707  1.00  0.00    -0.264 OA
HETATM   12  C4  UNL     1      40.093   5.261  13.151  1.00  0.00     0.153 C 
BRANCH  10  13
HETATM   13  C2  UNL     1      37.787   6.638  14.218  1.00  0.00     0.212 C 
HETATM   14  C1  UNL     1      38.280   7.940  14.798  1.00  0.00     0.102 C 
HETATM   15  O1  UNL     1      37.008   6.754  13.265  1.00  0.00    -0.288 OA
ENDBRANCH  10  13
ENDBRANCH   8   9
ENDBRANCH   3   8
ENDBRANCH   1   2
BRANCH   1  16
HETATM   16  C8  UNL     1      37.643  -0.109  12.966  1.00  0.00     0.068 A 
HETATM   17  S1  UNL     1      36.903  -0.390  11.450  1.00  0.00    -0.067 SA
HETATM   18  C9  UNL     1      36.342  -1.994  11.686  1.00  0.00     0.092 A 
HETATM   19  N6  UNL     1      35.679  -2.898  10.900  1.00  0.00    -0.346 N 
HETATM   20  C12 UNL     1      36.760  -2.264  12.968  1.00  0.00     0.076 A 
HETATM   21  C10 UNL     1      35.416  -4.113  11.358  1.00  0.00     0.182 A 
ATOM     22  H6  UNL     1      35.387  -2.636   9.959  1.00  0.00     0.167 HD
HETATM   23  N7  UNL     1      35.810  -4.419  12.585  1.00  0.00    -0.338 N 
HETATM   24  C11 UNL     1      36.469  -3.578  13.427  1.00  0.00     0.115 A 
ATOM     25  H7  UNL     1      35.602  -5.358  12.926  1.00  0.00     0.168 HD
HETATM   26  N8  UNL     1      36.813  -4.019  14.494  1.00  0.00    -0.385 N 
ATOM     27  H82 UNL     1      36.603  -4.961  14.823  1.00  0.00     0.157 HD
ATOM     28  H81 UNL     1      37.307  -3.388  15.126  1.00  0.00     0.157 HD
HETATM   29  C13 UNL     1      37.423  -1.299  13.620  1.00  0.00     0.101 A 
BRANCH  29  30
HETATM   30  O3  UNL     1      37.924  -1.384  14.933  1.00  0.00    -0.358 OA
ATOM     31  H3  UNL     1      38.844  -1.604  15.013  1.00  0.00     0.217 HD
ENDBRANCH  29  30
ENDBRANCH   1  16
BRANCH   1  32
HETATM   32  C14 UNL     1      37.192   2.279  13.482  1.00  0.00     0.260 C 
HETATM   33  N9  UNL     1      35.810   1.894  13.543  1.00  0.00    -0.099 NA
HETATM   34  N10 UNL     1      35.253   3.238  13.406  1.00  0.00    -0.019 NA
HETATM   35  N11 UNL     1      35.974   3.719  12.298  1.00  0.00    -0.019 NA
HETATM   36  N12 UNL     1      37.161   2.993  12.208  1.00  0.00    -0.099 NA
ENDBRANCH   1  32
TORSDOF 7
ENDMDL
MODEL 5
REMARK VINA RESULT: -6.720829980      1.994      2.283
REMARK  7 active torsions:
REMARK  status: ('A' for Active; 'I' for Inactive)
REMARK    1  A    between atoms: C2_2  and  C3_4 
REMARK       I    between atoms: C3_4  and  N1_6 
REMARK    2  A    between atoms: N1_6  and  C5_8 
REMARK    3  A    between atoms: C5_8  and  C6_9 
REMARK    4  A    between atoms: N5_14  and  C7_15 
REMARK    5  A    between atoms: C7_15  and  C8_16 
REMARK    6  A    between atoms: C7_15  and  C14_32 
REMARK    7  A    between atoms: C13_29  and  O3_30 
ROOT
HETATM    1  C7  UNL     1      38.257   4.421  13.178  1.00  0.00     0.091 C 
ENDROOT
BRANCH   1   2
HETATM    2  N5  UNL     1      37.202   3.519  13.124  1.00  0.00    -0.227 N 
HETATM    3  C6  UNL     1      37.335   2.065  13.055  1.00  0.00     0.132 C 
HETATM    4  N2  UNL     1      36.179   1.542  13.245  1.00  0.00    -0.272 N 
HETATM    5  N3  UNL     1      35.218   2.525  13.471  1.00  0.00    -0.007 NA
ATOM      6  H2  UNL     1      35.988   0.540  13.233  1.00  0.00     0.185 HD
HETATM    7  N4  UNL     1      35.823   3.713  13.089  1.00  0.00     0.000 NA
BRANCH   3   8
HETATM    8  C5  UNL     1      38.599   1.299  12.780  1.00  0.00     0.204 C 
BRANCH   8   9
HETATM    9  N1  UNL     1      38.502  -0.034  13.405  1.00  0.00    -0.343 N 
HETATM   10  C3  UNL     1      37.956  -1.157  12.766  1.00  0.00     0.289 C 
HETATM   11  O2  UNL     1      37.424  -1.019  11.613  1.00  0.00    -0.264 OA
HETATM   12  C4  UNL     1      39.063  -0.188  14.758  1.00  0.00     0.153 C 
BRANCH  10  13
HETATM   13  C2  UNL     1      37.967  -2.463  13.350  1.00  0.00     0.212 C 
HETATM   14  C1  UNL     1      36.734  -3.029  14.008  1.00  0.00     0.102 C 
HETATM   15  O1  UNL     1      38.954  -3.208  13.362  1.00  0.00    -0.288 OA
ENDBRANCH  10  13
ENDBRANCH   8   9
ENDBRANCH   3   8
ENDBRANCH   1   2
BRANCH   1  16
HETATM   16  C8  UNL     1      38.166   5.619  14.048  1.00  0.00     0.068 A 
HETATM   17  S1  UNL     1      39.173   5.990  15.380  1.00  0.00    -0.067 SA
HETATM   18  C9  UNL     1      38.358   7.369  15.993  1.00  0.00     0.092 A 
HETATM   19  N6  UNL     1      38.589   8.231  17.032  1.00  0.00    -0.346 N 
HETATM   20  C12 UNL     1      37.304   7.499  15.119  1.00  0.00     0.076 A 
HETATM   21  C10 UNL     1      37.783   9.263  17.235  1.00  0.00     0.182 A 
ATOM     22  H6  UNL     1      39.384   8.077  17.652  1.00  0.00     0.167 HD
HETATM   23  N7  UNL     1      36.761   9.430  16.411  1.00  0.00    -0.338 N 
HETATM   24  C11 UNL     1      36.463   8.620  15.359  1.00  0.00     0.115 A 
ATOM     25  H7  UNL     1      36.149  10.230  16.577  1.00  0.00     0.168 HD
HETATM   26  N8  UNL     1      35.532   8.935  14.663  1.00  0.00    -0.385 N 
ATOM     27  H82 UNL     1      34.928   9.739  14.836  1.00  0.00     0.157 HD
ATOM     28  H81 UNL     1      35.308   8.327  13.875  1.00  0.00     0.157 HD
HETATM   29  C13 UNL     1      37.208   6.603  14.128  1.00  0.00     0.101 A 
BRANCH  29  30
HETATM   30  O3  UNL     1      36.203   6.567  13.143  1.00  0.00    -0.358 OA
ATOM     31  H3  UNL     1      35.543   7.248  13.197  1.00  0.00     0.217 HD
ENDBRANCH  29  30
ENDBRANCH   1  16
BRANCH   1  32
HETATM   32  C14 UNL     1      38.924   4.700  11.869  1.00  0.00     0.260 C 
HETATM   33  N9  UNL     1      40.336   4.453  11.792  1.00  0.00    -0.099 NA
HETATM   34  N10 UNL     1      40.530   4.988  10.446  1.00  0.00    -0.019 NA
HETATM   35  N11 UNL     1      39.868   6.225  10.548  1.00  0.00    -0.019 NA
HETATM   36  N12 UNL     1      38.940   6.132  11.584  1.00  0.00    -0.099 NA
ENDBRANCH   1  32
TORSDOF 7
ENDMDL
