MODEL 1
REMARK VINA RESULT: -7.600876392      0.000      0.000
REMARK  13 active torsions:
REMARK  status: ('A' for Active; 'I' for Inactive)
REMARK    1  A    between atoms: N1_2  and  N2_3 
REMARK    2  A    between atoms: N1_2  and  C2_6 
REMARK    3  A    between atoms: C3_9  and  N4_10 
REMARK    4  A    between atoms: N4_10  and  C4_12 
REMARK    5  A    between atoms: C5_17  and  C6_18 
REMARK    6  A    between atoms: C6_18  and  C7_19 
REMARK    7  A    between atoms: C8_22  and  C9_23 
REMARK    8  A    between atoms: C10_26  and  C11_27 
REMARK    9  A    between atoms: C11_27  and  O2_28 
REMARK   10  A    between atoms: C11_27  and  O3_30 
REMARK   11  A    between atoms: C12_34  and  O4_35 
REMARK   12  A    between atoms: C13_40  and  N11_41 
REMARK   13  A    between atoms: N12_44  and  N13_45 
ROOT
HETATM    1  C4  UNL     1      36.407   4.804  14.296  1.00  0.00     0.259 A 
HETATM    2  N5  UNL     1      35.872   6.059  14.335  1.00  0.00    -0.263 N 
ATOM      3  H5  UNL     1      35.151   6.413  13.706  1.00  0.00     0.190 HD
HETATM    4  N6  UNL     1      36.436   6.745  15.316  1.00  0.00    -0.280 N 
ATOM      5  H6  UNL     1      36.232   7.709  15.579  1.00  0.00     0.189 HD
HETATM    6  C5  UNL     1      37.328   5.927  15.900  1.00  0.00     0.147 A 
HETATM    7  O5  UNL     1      37.278   4.774  15.257  1.00  0.00    -0.263 OA
ENDROOT
BRANCH   1   8
HETATM    8  N4  UNL     1      35.991   3.842  13.340  1.00  0.00    -0.152 N 
ATOM      9  H4  UNL     1      35.086   3.962  12.884  1.00  0.00     0.188 HD
BRANCH   8  10
HETATM   10  C3  UNL     1      36.725   2.802  13.021  1.00  0.00     0.714 A 
HETATM   11  N3  UNL     1      36.182   1.610  12.812  1.00  0.00    -0.018 N 
HETATM   12  C2  UNL     1      36.983   0.544  12.479  1.00  0.00     0.748 A 
ATOM     13  H3  UNL     1      35.173   1.485  12.899  1.00  0.00     0.203 HD
HETATM   14  N12 UNL     1      38.307   0.716  12.368  1.00  0.00     0.085 N 
HETATM   15  C13 UNL     1      38.857   1.946  12.584  1.00  0.00     0.726 A 
HETATM   16  N10 UNL     1      38.056   2.967  12.907  1.00  0.00    -0.020 N 
ATOM     17  H10 UNL     1      38.463   3.889  13.070  1.00  0.00     0.203 HD
BRANCH  12  18
HETATM   18  N1  UNL     1      36.379  -0.719  12.260  1.00  0.00    -0.132 N 
HETATM   19  C1  UNL     1      35.750  -1.197  11.069  1.00  0.00     0.197 C 
BRANCH  18  20
HETATM   20  N2  UNL     1      36.398  -1.625  13.363  1.00  0.00    -0.329 N 
ATOM     21  H22 UNL     1      35.663  -2.332  13.376  1.00  0.00     0.177 HD
ATOM     22  H21 UNL     1      37.147  -1.486  14.040  1.00  0.00     0.177 HD
ENDBRANCH  18  20
ENDBRANCH  12  18
BRANCH  14  23
HETATM   23  N13 UNL     1      39.179  -0.322  12.030  1.00  0.00    -0.309 N 
ATOM     24 2H13 UNL     1      38.931  -0.894  11.223  1.00  0.00     0.178 HD
ATOM     25 1H13 UNL     1      40.031  -0.521  12.555  1.00  0.00     0.178 HD
ENDBRANCH  14  23
BRANCH  15  26
HETATM   26  N11 UNL     1      40.132   2.066  12.467  1.00  0.00    -0.232 N 
ATOM     27 2H11 UNL     1      40.713   1.270  12.729  1.00  0.00     0.174 HD
ATOM     28 1H11 UNL     1      40.581   2.917  12.129  1.00  0.00     0.174 HD
ENDBRANCH  15  26
ENDBRANCH   8  10
ENDBRANCH   1   8
BRANCH   6  29
HETATM   29  C6  UNL     1      38.226   6.203  17.049  1.00  0.00     0.147 C 
BRANCH  29  30
HETATM   30  C7  UNL     1      37.785   5.438  18.261  1.00  0.00     0.069 A 
HETATM   31  N7  UNL     1      38.355   4.300  18.632  1.00  0.00    -0.350 N 
HETATM   32  C8  UNL     1      37.941   3.594  19.754  1.00  0.00     0.126 A 
ATOM     33  H7  UNL     1      39.124   3.929  18.072  1.00  0.00     0.166 HD
HETATM   34  C10 UNL     1      36.918   4.072  20.513  1.00  0.00     0.098 A 
HETATM   35  N9  UNL     1      36.323   5.259  20.126  1.00  0.00    -0.333 N 
HETATM   36  C12 UNL     1      36.751   5.907  19.039  1.00  0.00     0.164 A 
ATOM     37  H9  UNL     1      35.553   5.643  20.675  1.00  0.00     0.168 HD
BRANCH  32  38
HETATM   38  C9  UNL     1      38.621   2.354  20.052  1.00  0.00     0.283 C 
HETATM   39  N8  UNL     1      38.136   1.049  20.050  1.00  0.00    -0.056 NA
HETATM   40  O1  UNL     1      39.870   2.448  20.364  1.00  0.00    -0.269 OA
ENDBRANCH  32  38
BRANCH  34  41
HETATM   41  C11 UNL     1      36.414   3.467  21.760  1.00  0.00     0.307 C 
BRANCH  41  42
HETATM   42  O2  UNL     1      35.472   4.385  22.355  1.00  0.00    -0.366 OA
ATOM     43  H2  UNL     1      34.613   4.203  21.992  1.00  0.00     0.213 HD
ENDBRANCH  41  42
BRANCH  41  44
HETATM   44  O3  UNL     1      35.672   2.321  21.488  1.00  0.00    -0.366 OA
ATOM     45  H3  UNL     1      34.975   2.211  22.125  1.00  0.00     0.213 HD
ENDBRANCH  41  44
ENDBRANCH  34  41
BRANCH  36  46
HETATM   46  O4  UNL     1      36.162   7.118  18.622  1.00  0.00    -0.345 OA
ATOM     47  H4  UNL     1      35.445   7.043  18.004  1.00  0.00     0.219 HD
ENDBRANCH  36  46
ENDBRANCH  29  30
ENDBRANCH   6  29
TORSDOF 13
ENDMDL
MODEL 2
REMARK VINA RESULT: -7.394879109      1.285      2.420
REMARK  13 active torsions:
REMARK  status: ('A' for Active; 'I' for Inactive)
REMARK    1  A    between atoms: N1_2  and  N2_3 
REMARK    2  A    between atoms: N1_2  and  C2_6 
REMARK    3  A    between atoms: C3_9  and  N4_10 
REMARK    4  A    between atoms: N4_10  and  C4_12 
REMARK    5  A    between atoms: C5_17  and  C6_18 
REMARK    6  A    between atoms: C6_18  and  C7_19 
REMARK    7  A    between atoms: C8_22  and  C9_23 
REMARK    8  A    between atoms: C10_26  and  C11_27 
REMARK    9  A    between atoms: C11_27  and  O2_28 
REMARK   10  A    between atoms: C11_27  and  O3_30 
REMARK   11  A    between atoms: C12_34  and  O4_35 
REMARK   12  A    between atoms: C13_40  and  N11_41 
REMARK   13  A    between atoms: N12_44  and  N13_45 
ROOT
HETATM    1  C4  UNL     1      36.809   5.259  14.633  1.00  0.00     0.259 A 
HETATM    2  N5  UNL     1      36.310   6.521  14.792  1.00  0.00    -0.263 N 
ATOM      3  H5  UNL     1      35.669   6.987  14.150  1.00  0.00     0.190 HD
HETATM    4  N6  UNL     1      36.789   7.043  15.909  1.00  0.00    -0.280 N 
ATOM      5  H6  UNL     1      36.588   7.970  16.281  1.00  0.00     0.189 HD
HETATM    6  C5  UNL     1      37.591   6.115  16.459  1.00  0.00     0.147 A 
HETATM    7  O5  UNL     1      37.573   5.063  15.662  1.00  0.00    -0.263 OA
ENDROOT
BRANCH   1   8
HETATM    8  N4  UNL     1      36.465   4.454  13.517  1.00  0.00    -0.152 N 
ATOM      9  H4  UNL     1      35.638   4.698  12.970  1.00  0.00     0.188 HD
BRANCH   8  10
HETATM   10  C3  UNL     1      37.170   3.406  13.161  1.00  0.00     0.714 A 
HETATM   11  N3  UNL     1      36.591   2.241  12.898  1.00  0.00    -0.018 N 
HETATM   12  C2  UNL     1      37.362   1.164  12.527  1.00  0.00     0.748 A 
ATOM     13  H3  UNL     1      35.579   2.144  12.970  1.00  0.00     0.203 HD
HETATM   14  N12 UNL     1      38.692   1.300  12.436  1.00  0.00     0.085 N 
HETATM   15  C13 UNL     1      39.278   2.501  12.708  1.00  0.00     0.726 A 
HETATM   16  N10 UNL     1      38.506   3.533  13.066  1.00  0.00    -0.020 N 
ATOM     17  H10 UNL     1      38.940   4.434  13.272  1.00  0.00     0.203 HD
BRANCH  12  18
HETATM   18  N1  UNL     1      36.721  -0.069  12.251  1.00  0.00    -0.132 N 
HETATM   19  C1  UNL     1      36.067  -0.467  11.044  1.00  0.00     0.197 C 
BRANCH  18  20
HETATM   20  N2  UNL     1      36.726  -1.030  13.305  1.00  0.00    -0.329 N 
ATOM     21  H22 UNL     1      35.977  -0.948  13.992  1.00  0.00     0.177 HD
ATOM     22  H21 UNL     1      37.480  -1.717  13.278  1.00  0.00     0.177 HD
ENDBRANCH  18  20
ENDBRANCH  12  18
BRANCH  14  23
HETATM   23  N13 UNL     1      39.535   0.249  12.063  1.00  0.00    -0.309 N 
ATOM     24 2H13 UNL     1      40.323   0.043  12.677  1.00  0.00     0.178 HD
ATOM     25 1H13 UNL     1      39.389  -0.301  11.215  1.00  0.00     0.178 HD
ENDBRANCH  14  23
BRANCH  15  26
HETATM   26  N11 UNL     1      40.557   2.585  12.608  1.00  0.00    -0.232 N 
ATOM     27 2H11 UNL     1      41.114   1.780  12.895  1.00  0.00     0.174 HD
ATOM     28 1H11 UNL     1      41.034   3.417  12.259  1.00  0.00     0.174 HD
ENDBRANCH  15  26
ENDBRANCH   8  10
ENDBRANCH   1   8
BRANCH   6  29
HETATM   29  C6  UNL     1      38.373   6.195  17.719  1.00  0.00     0.147 C 
BRANCH  29  30
HETATM   30  C7  UNL     1      37.707   5.405  18.806  1.00  0.00     0.069 A 
HETATM   31  N7  UNL     1      36.866   5.954  19.671  1.00  0.00    -0.350 N 
HETATM   32  C8  UNL     1      36.253   5.218  20.679  1.00  0.00     0.126 A 
ATOM     33  H7  UNL     1      36.661   6.950  19.595  1.00  0.00     0.166 HD
HETATM   34  C10 UNL     1      36.513   3.888  20.797  1.00  0.00     0.098 A 
HETATM   35  N9  UNL     1      37.392   3.316  19.895  1.00  0.00    -0.333 N 
HETATM   36  C12 UNL     1      37.960   4.059  18.941  1.00  0.00     0.164 A 
ATOM     37  H9  UNL     1      37.607   2.321  19.958  1.00  0.00     0.168 HD
BRANCH  32  38
HETATM   38  C9  UNL     1      35.369   5.925  21.578  1.00  0.00     0.283 C 
HETATM   39  N8  UNL     1      35.581   6.347  22.886  1.00  0.00    -0.056 NA
HETATM   40  O1  UNL     1      34.202   6.223  21.114  1.00  0.00    -0.269 OA
ENDBRANCH  32  38
BRANCH  34  41
HETATM   41  C11 UNL     1      35.892   2.973  21.772  1.00  0.00     0.307 C 
BRANCH  41  42
HETATM   42  O2  UNL     1      36.424   1.649  21.546  1.00  0.00    -0.366 OA
ATOM     43  H2  UNL     1      37.148   1.516  22.147  1.00  0.00     0.213 HD
ENDBRANCH  41  42
BRANCH  41  44
HETATM   44  O3  UNL     1      36.280   3.297  23.069  1.00  0.00    -0.366 OA
ATOM     45  H3  UNL     1      37.047   3.858  23.062  1.00  0.00     0.213 HD
ENDBRANCH  41  44
ENDBRANCH  34  41
BRANCH  36  46
HETATM   46  O4  UNL     1      38.859   3.501  18.010  1.00  0.00    -0.345 OA
ATOM     47  H4  UNL     1      39.565   2.979  18.372  1.00  0.00     0.219 HD
ENDBRANCH  36  46
ENDBRANCH  29  30
ENDBRANCH   6  29
TORSDOF 13
ENDMDL
MODEL 3
REMARK VINA RESULT: -7.366989405      1.371      1.487
REMARK  13 active torsions:
REMARK  status: ('A' for Active; 'I' for Inactive)
REMARK    1  A    between atoms: N1_2  and  N2_3 
REMARK    2  A    between atoms: N1_2  and  C2_6 
REMARK    3  A    between atoms: C3_9  and  N4_10 
REMARK    4  A    between atoms: N4_10  and  C4_12 
REMARK    5  A    between atoms: C5_17  and  C6_18 
REMARK    6  A    between atoms: C6_18  and  C7_19 
REMARK    7  A    between atoms: C8_22  and  C9_23 
REMARK    8  A    between atoms: C10_26  and  C11_27 
REMARK    9  A    between atoms: C11_27  and  O2_28 
REMARK   10  A    between atoms: C11_27  and  O3_30 
REMARK   11  A    between atoms: C12_34  and  O4_35 
REMARK   12  A    between atoms: C13_40  and  N11_41 
REMARK   13  A    between atoms: N12_44  and  N13_45 
ROOT
HETATM    1  C4  UNL     1      36.216   4.200  13.701  1.00  0.00     0.259 A 
HETATM    2  N5  UNL     1      35.482   5.350  13.617  1.00  0.00    -0.263 N 
ATOM      3  H5  UNL     1      34.668   5.487  13.019  1.00  0.00     0.190 HD
HETATM    4  N6  UNL     1      35.995   6.256  14.433  1.00  0.00    -0.280 N 
ATOM      5  H6  UNL     1      35.654   7.206  14.578  1.00  0.00     0.189 HD
HETATM    6  C5  UNL     1      37.053   5.684  15.034  1.00  0.00     0.147 A 
HETATM    7  O5  UNL     1      37.148   4.453  14.567  1.00  0.00    -0.263 OA
ENDROOT
BRANCH   1   8
HETATM    8  N4  UNL     1      35.895   3.051  12.934  1.00  0.00    -0.152 N 
ATOM      9  H4  UNL     1      35.011   3.030  12.425  1.00  0.00     0.188 HD
BRANCH   8  10
HETATM   10  C3  UNL     1      36.694   2.012  12.855  1.00  0.00     0.714 A 
HETATM   11  N3  UNL     1      36.216   0.775  12.806  1.00  0.00    -0.018 N 
HETATM   12  C2  UNL     1      37.082  -0.289  12.723  1.00  0.00     0.748 A 
ATOM     13  H3  UNL     1      35.209   0.614  12.830  1.00  0.00     0.203 HD
HETATM   14  N12 UNL     1      38.404  -0.068  12.692  1.00  0.00     0.085 N 
HETATM   15  C13 UNL     1      38.886   1.207  12.743  1.00  0.00     0.726 A 
HETATM   16  N10 UNL     1      38.022   2.225  12.824  1.00  0.00    -0.020 N 
ATOM     17  H10 UNL     1      38.378   3.180  12.862  1.00  0.00     0.203 HD
BRANCH  12  18
HETATM   18  N1  UNL     1      36.548  -1.600  12.671  1.00  0.00    -0.132 N 
HETATM   19  C1  UNL     1      36.197  -2.359  11.512  1.00  0.00     0.197 C 
BRANCH  18  20
HETATM   20  N2  UNL     1      36.331  -2.240  13.927  1.00  0.00    -0.329 N 
ATOM     21  H22 UNL     1      35.463  -2.769  14.018  1.00  0.00     0.177 HD
ATOM     22  H21 UNL     1      37.064  -2.114  14.624  1.00  0.00     0.177 HD
ENDBRANCH  18  20
ENDBRANCH  12  18
BRANCH  14  23
HETATM   23  N13 UNL     1      39.341  -1.102  12.606  1.00  0.00    -0.309 N 
ATOM     24 2H13 UNL     1      39.132  -1.867  11.965  1.00  0.00     0.178 HD
ATOM     25 1H13 UNL     1      40.202  -1.114  13.153  1.00  0.00     0.178 HD
ENDBRANCH  14  23
BRANCH  15  26
HETATM   26  N11 UNL     1      40.161   1.372  12.712  1.00  0.00    -0.232 N 
ATOM     27 2H11 UNL     1      40.582   1.979  13.415  1.00  0.00     0.174 HD
ATOM     28 1H11 UNL     1      40.762   0.926  12.019  1.00  0.00     0.174 HD
ENDBRANCH  15  26
ENDBRANCH   8  10
ENDBRANCH   1   8
BRANCH   6  29
HETATM   29  C6  UNL     1      37.976   6.269  16.040  1.00  0.00     0.147 C 
BRANCH  29  30
HETATM   30  C7  UNL     1      37.447   6.060  17.428  1.00  0.00     0.069 A 
HETATM   31  N7  UNL     1      37.897   5.099  18.223  1.00  0.00    -0.350 N 
HETATM   32  C8  UNL     1      37.403   4.908  19.508  1.00  0.00     0.126 A 
ATOM     33  H7  UNL     1      38.632   4.480  17.881  1.00  0.00     0.166 HD
HETATM   34  C10 UNL     1      36.424   5.725  19.983  1.00  0.00     0.098 A 
HETATM   35  N9  UNL     1      35.954   6.726  19.152  1.00  0.00    -0.333 N 
HETATM   36  C12 UNL     1      36.456   6.875  17.923  1.00  0.00     0.164 A 
ATOM     37  H9  UNL     1      35.220   7.353  19.480  1.00  0.00     0.168 HD
BRANCH  32  38
HETATM   38  C9  UNL     1      37.953   3.817  20.279  1.00  0.00     0.283 C 
HETATM   39  N8  UNL     1      37.465   2.529  20.475  1.00  0.00    -0.056 NA
HETATM   40  O1  UNL     1      39.070   4.051  20.883  1.00  0.00    -0.269 OA
ENDBRANCH  32  38
BRANCH  34  41
HETATM   41  C11 UNL     1      35.849   5.681  21.340  1.00  0.00     0.307 C 
BRANCH  41  42
HETATM   42  O2  UNL     1      36.644   6.535  22.191  1.00  0.00    -0.366 OA
ATOM     43  H2  UNL     1      36.842   6.056  22.988  1.00  0.00     0.213 HD
ENDBRANCH  41  42
BRANCH  41  44
HETATM   44  O3  UNL     1      34.576   6.245  21.356  1.00  0.00    -0.366 OA
ATOM     45  H3  UNL     1      33.916   5.584  21.528  1.00  0.00     0.213 HD
ENDBRANCH  41  44
ENDBRANCH  34  41
BRANCH  36  46
HETATM   46  O4  UNL     1      35.995   7.887  17.056  1.00  0.00    -0.345 OA
ATOM     47  H4  UNL     1      36.556   8.648  16.968  1.00  0.00     0.219 HD
ENDBRANCH  36  46
ENDBRANCH  29  30
ENDBRANCH   6  29
TORSDOF 13
ENDMDL
MODEL 4
REMARK VINA RESULT: -7.346450654      1.417      3.209
REMARK  13 active torsions:
REMARK  status: ('A' for Active; 'I' for Inactive)
REMARK    1  A    between atoms: N1_2  and  N2_3 
REMARK    2  A    between atoms: N1_2  and  C2_6 
REMARK    3  A    between atoms: C3_9  and  N4_10 
REMARK    4  A    between atoms: N4_10  and  C4_12 
REMARK    5  A    between atoms: C5_17  and  C6_18 
REMARK    6  A    between atoms: C6_18  and  C7_19 
REMARK    7  A    between atoms: C8_22  and  C9_23 
REMARK    8  A    between atoms: C10_26  and  C11_27 
REMARK    9  A    between atoms: C11_27  and  O2_28 
REMARK   10  A    between atoms: C11_27  and  O3_30 
REMARK   11  A    between atoms: C12_34  and  O4_35 
REMARK   12  A    between atoms: C13_40  and  N11_41 
REMARK   13  A    between atoms: N12_44  and  N13_45 
ROOT
HETATM    1  C4  UNL     1      36.684   5.389  14.703  1.00  0.00     0.259 A 
HETATM    2  N5  UNL     1      36.309   6.695  14.840  1.00  0.00    -0.263 N 
ATOM      3  H5  UNL     1      35.707   7.207  14.195  1.00  0.00     0.190 HD
HETATM    4  N6  UNL     1      36.852   7.193  15.939  1.00  0.00    -0.280 N 
ATOM      5  H6  UNL     1      36.745   8.143  16.293  1.00  0.00     0.189 HD
HETATM    6  C5  UNL     1      37.570   6.205  16.500  1.00  0.00     0.147 A 
HETATM    7  O5  UNL     1      37.441   5.142  15.728  1.00  0.00    -0.263 OA
ENDROOT
BRANCH   1   8
HETATM    8  N4  UNL     1      36.249   4.596  13.610  1.00  0.00    -0.152 N 
ATOM      9  H4  UNL     1      35.429   4.895  13.082  1.00  0.00     0.188 HD
BRANCH   8  10
HETATM   10  C3  UNL     1      36.862   3.492  13.253  1.00  0.00     0.714 A 
HETATM   11  N3  UNL     1      38.186   3.423  13.201  1.00  0.00    -0.018 N 
HETATM   12  C2  UNL     1      38.794   2.250  12.822  1.00  0.00     0.748 A 
ATOM     13  H3  UNL     1      38.751   4.238  13.440  1.00  0.00     0.203 HD
HETATM   14  N12 UNL     1      38.045   1.185  12.508  1.00  0.00     0.085 N 
HETATM   15  C13 UNL     1      36.684   1.265  12.564  1.00  0.00     0.726 A 
HETATM   16  N10 UNL     1      36.117   2.418  12.935  1.00  0.00    -0.020 N 
ATOM     17  H10 UNL     1      35.099   2.483  12.978  1.00  0.00     0.203 HD
BRANCH  12  18
HETATM   18  N1  UNL     1      40.210   2.201  12.775  1.00  0.00    -0.132 N 
HETATM   19  C1  UNL     1      41.059   2.446  11.652  1.00  0.00     0.197 C 
BRANCH  18  20
HETATM   20  N2  UNL     1      40.868   1.864  13.995  1.00  0.00    -0.329 N 
ATOM     21  H22 UNL     1      41.887   1.902  13.981  1.00  0.00     0.177 HD
ATOM     22  H21 UNL     1      40.261   1.615  14.776  1.00  0.00     0.177 HD
ENDBRANCH  18  20
ENDBRANCH  12  18
BRANCH  14  23
HETATM   23  N13 UNL     1      38.596  -0.039  12.118  1.00  0.00    -0.309 N 
ATOM     24 2H13 UNL     1      39.144  -0.545  12.813  1.00  0.00     0.178 HD
ATOM     25 1H13 UNL     1      38.472  -0.427  11.182  1.00  0.00     0.178 HD
ENDBRANCH  14  23
BRANCH  15  26
HETATM   26  N11 UNL     1      36.004   0.218  12.253  1.00  0.00    -0.232 N 
ATOM     27 2H11 UNL     1      35.243  -0.060  12.872  1.00  0.00     0.174 HD
ATOM     28 1H11 UNL     1      36.195  -0.341  11.421  1.00  0.00     0.174 HD
ENDBRANCH  15  26
ENDBRANCH   8  10
ENDBRANCH   1   8
BRANCH   6  29
HETATM   29  C6  UNL     1      38.374   6.236  17.748  1.00  0.00     0.147 C 
BRANCH  29  30
HETATM   30  C7  UNL     1      37.706   5.438  18.828  1.00  0.00     0.069 A 
HETATM   31  N7  UNL     1      36.868   5.981  19.700  1.00  0.00    -0.350 N 
HETATM   32  C8  UNL     1      36.254   5.237  20.701  1.00  0.00     0.126 A 
ATOM     33  H7  UNL     1      36.667   6.979  19.634  1.00  0.00     0.166 HD
HETATM   34  C10 UNL     1      36.509   3.905  20.804  1.00  0.00     0.098 A 
HETATM   35  N9  UNL     1      37.384   3.339  19.896  1.00  0.00    -0.333 N 
HETATM   36  C12 UNL     1      37.954   4.090  18.948  1.00  0.00     0.164 A 
ATOM     37  H9  UNL     1      37.595   2.342  19.948  1.00  0.00     0.168 HD
BRANCH  32  38
HETATM   38  C9  UNL     1      35.374   5.938  21.608  1.00  0.00     0.283 C 
HETATM   39  N8  UNL     1      35.597   6.366  22.913  1.00  0.00    -0.056 NA
HETATM   40  O1  UNL     1      34.198   6.223  21.157  1.00  0.00    -0.269 OA
ENDBRANCH  32  38
BRANCH  34  41
HETATM   41  C11 UNL     1      35.886   2.982  21.771  1.00  0.00     0.307 C 
BRANCH  41  42
HETATM   42  O2  UNL     1      36.415   1.659  21.532  1.00  0.00    -0.366 OA
ATOM     43  H2  UNL     1      35.992   1.059  22.136  1.00  0.00     0.213 HD
ENDBRANCH  41  42
BRANCH  41  44
HETATM   44  O3  UNL     1      36.275   3.293  23.071  1.00  0.00    -0.366 OA
ATOM     45  H3  UNL     1      37.221   3.279  23.153  1.00  0.00     0.213 HD
ENDBRANCH  41  44
ENDBRANCH  34  41
BRANCH  36  46
HETATM   46  O4  UNL     1      38.850   3.538  18.010  1.00  0.00    -0.345 OA
ATOM     47  H4  UNL     1      39.219   4.144  17.378  1.00  0.00     0.219 HD
ENDBRANCH  36  46
ENDBRANCH  29  30
ENDBRANCH   6  29
TORSDOF 13
ENDMDL
MODEL 5
REMARK VINA RESULT: -7.309328595      0.571      2.087
REMARK  13 active torsions:
REMARK  status: ('A' for Active; 'I' for Inactive)
REMARK    1  A    between atoms: N1_2  and  N2_3 
REMARK    2  A    between atoms: N1_2  and  C2_6 
REMARK    3  A    between atoms: C3_9  and  N4_10 
REMARK    4  A    between atoms: N4_10  and  C4_12 
REMARK    5  A    between atoms: C5_17  and  C6_18 
REMARK    6  A    between atoms: C6_18  and  C7_19 
REMARK    7  A    between atoms: C8_22  and  C9_23 
REMARK    8  A    between atoms: C10_26  and  C11_27 
REMARK    9  A    between atoms: C11_27  and  O2_28 
REMARK   10  A    between atoms: C11_27  and  O3_30 
REMARK   11  A    between atoms: C12_34  and  O4_35 
REMARK   12  A    between atoms: C13_40  and  N11_41 
REMARK   13  A    between atoms: N12_44  and  N13_45 
ROOT
HETATM    1  C4  UNL     1      36.486   4.852  14.284  1.00  0.00     0.259 A 
HETATM    2  N5  UNL     1      35.897   6.081  14.376  1.00  0.00    -0.263 N 
ATOM      3  H5  UNL     1      35.159   6.430  13.763  1.00  0.00     0.190 HD
HETATM    4  N6  UNL     1      36.433   6.749  15.384  1.00  0.00    -0.280 N 
ATOM      5  H6  UNL     1      36.189   7.691  15.688  1.00  0.00     0.189 HD
HETATM    6  C5  UNL     1      37.362   5.946  15.932  1.00  0.00     0.147 A 
HETATM    7  O5  UNL     1      37.360   4.821  15.242  1.00  0.00    -0.263 OA
ENDROOT
BRANCH   1   8
HETATM    8  N4  UNL     1      36.108   3.915  13.288  1.00  0.00    -0.152 N 
ATOM      9  H4  UNL     1      35.269   4.094  12.737  1.00  0.00     0.188 HD
BRANCH   8  10
HETATM   10  C3  UNL     1      36.799   2.824  13.050  1.00  0.00     0.714 A 
HETATM   11  N3  UNL     1      38.126   2.839  13.021  1.00  0.00    -0.018 N 
HETATM   12  C2  UNL     1      38.816   1.678  12.769  1.00  0.00     0.748 A 
ATOM     13  H3  UNL     1      38.632   3.710  13.185  1.00  0.00     0.203 HD
HETATM   14  N12 UNL     1      38.144   0.539  12.553  1.00  0.00     0.085 N 
HETATM   15  C13 UNL     1      36.780   0.533  12.586  1.00  0.00     0.726 A 
HETATM   16  N10 UNL     1      36.132   1.676  12.833  1.00  0.00    -0.020 N 
ATOM     17  H10 UNL     1      35.112   1.677  12.857  1.00  0.00     0.203 HD
BRANCH  12  18
HETATM   18  N1  UNL     1      40.232   1.719  12.744  1.00  0.00    -0.132 N 
HETATM   19  C1  UNL     1      41.084   1.947  11.619  1.00  0.00     0.197 C 
BRANCH  18  20
HETATM   20  N2  UNL     1      40.890   1.505  13.992  1.00  0.00    -0.329 N 
ATOM     21  H22 UNL     1      41.903   1.396  13.953  1.00  0.00     0.177 HD
ATOM     22  H21 UNL     1      40.288   1.481  14.815  1.00  0.00     0.177 HD
ENDBRANCH  18  20
ENDBRANCH  12  18
BRANCH  14  23
HETATM   23  N13 UNL     1      38.781  -0.678  12.294  1.00  0.00    -0.309 N 
ATOM     24 2H13 UNL     1      39.710  -0.637  11.875  1.00  0.00     0.178 HD
ATOM     25 1H13 UNL     1      38.354  -1.581  12.503  1.00  0.00     0.178 HD
ENDBRANCH  14  23
BRANCH  15  26
HETATM   26  N11 UNL     1      36.176  -0.582  12.372  1.00  0.00    -0.232 N 
ATOM     27 2H11 UNL     1      36.741  -1.429  12.312  1.00  0.00     0.174 HD
ATOM     28 1H11 UNL     1      35.165  -0.653  12.259  1.00  0.00     0.174 HD
ENDBRANCH  15  26
ENDBRANCH   8  10
ENDBRANCH   1   8
BRANCH   6  29
HETATM   29  C6  UNL     1      38.251   6.212  17.091  1.00  0.00     0.147 C 
BRANCH  29  30
HETATM   30  C7  UNL     1      37.803   5.433  18.292  1.00  0.00     0.069 A 
HETATM   31  N7  UNL     1      38.371   4.290  18.651  1.00  0.00    -0.350 N 
HETATM   32  C8  UNL     1      37.951   3.570  19.763  1.00  0.00     0.126 A 
ATOM     33  H7  UNL     1      39.143   3.927  18.092  1.00  0.00     0.166 HD
HETATM   34  C10 UNL     1      36.924   4.039  20.522  1.00  0.00     0.098 A 
HETATM   35  N9  UNL     1      36.330   5.230  20.146  1.00  0.00    -0.333 N 
HETATM   36  C12 UNL     1      36.764   5.892  19.069  1.00  0.00     0.164 A 
ATOM     37  H9  UNL     1      35.557   5.607  20.695  1.00  0.00     0.168 HD
BRANCH  32  38
HETATM   38  C9  UNL     1      38.630   2.327  20.049  1.00  0.00     0.283 C 
HETATM   39  N8  UNL     1      38.148   1.022  20.023  1.00  0.00    -0.056 NA
HETATM   40  O1  UNL     1      39.876   2.419  20.375  1.00  0.00    -0.269 OA
ENDBRANCH  32  38
BRANCH  34  41
HETATM   41  C11 UNL     1      36.414   3.418  21.758  1.00  0.00     0.307 C 
BRANCH  41  42
HETATM   42  O2  UNL     1      35.493   4.343  22.377  1.00  0.00    -0.366 OA
ATOM     43  H2  UNL     1      35.369   4.076  23.281  1.00  0.00     0.213 HD
ENDBRANCH  41  42
BRANCH  41  44
HETATM   44  O3  UNL     1      35.647   2.293  21.466  1.00  0.00    -0.366 OA
ATOM     45  H3  UNL     1      34.776   2.373  21.837  1.00  0.00     0.213 HD
ENDBRANCH  41  44
ENDBRANCH  34  41
BRANCH  36  46
HETATM   46  O4  UNL     1      36.177   7.107  18.664  1.00  0.00    -0.345 OA
ATOM     47  H4  UNL     1      35.645   7.073  17.878  1.00  0.00     0.219 HD
ENDBRANCH  36  46
ENDBRANCH  29  30
ENDBRANCH   6  29
TORSDOF 13
ENDMDL
