MODEL 1
REMARK VINA RESULT: -6.784218232      0.000      0.000
REMARK  11 active torsions:
REMARK  status: ('A' for Active; 'I' for Inactive)
REMARK    1  A    between atoms: C2_2  and  O1_3 
REMARK    2  A    between atoms: C2_2  and  C3_5 
REMARK    3  A    between atoms: C2_2  and  C11_27 
REMARK    4  A    between atoms: C5_7  and  O2_8 
REMARK    5  A    between atoms: O2_8  and  C6_9 
REMARK    6  A    between atoms: C6_9  and  O3_10 
REMARK    7  A    between atoms: O3_10  and  C7_11 
REMARK    8  A    between atoms: C7_11  and  O5_13 
REMARK    9  A    between atoms: O5_13  and  N1_14 
REMARK       I    between atoms: N1_14  and  C8_16 
REMARK   10  A    between atoms: C10_24  and  O8_25 
REMARK   11  A    between atoms: C11_27  and  O9_28 
ROOT
HETATM    1  C3  UNL     1      37.564   4.421  13.730  1.00  0.00     0.043 A 
HETATM    2  C4  UNL     1      38.237   3.253  13.475  1.00  0.00     0.058 A 
HETATM    3  C5  UNL     1      37.587   2.105  13.096  1.00  0.00     0.147 A 
HETATM    4  C9  UNL     1      36.223   2.137  12.971  1.00  0.00     0.323 A 
HETATM    5  O6  UNL     1      35.547   1.113  12.624  1.00  0.00    -0.257 OA
HETATM    6  O7  UNL     1      35.583   3.246  13.213  1.00  0.00    -0.249 OA
HETATM    7  C10 UNL     1      36.171   4.360  13.577  1.00  0.00     0.196 A 
ENDROOT
BRANCH   1   8
HETATM    8  C2  UNL     1      38.108   5.698  14.134  1.00  0.00     0.150 C 
HETATM    9  C1  UNL     1      39.538   5.786  13.601  1.00  0.00     0.058 C 
BRANCH   8  10
HETATM   10  O1  UNL     1      37.395   6.717  13.458  1.00  0.00    -0.379 OA
ATOM     11  H1  UNL     1      37.491   7.491  14.000  1.00  0.00     0.211 HD
ENDBRANCH   8  10
BRANCH   8  12
HETATM   12  C11 UNL     1      38.132   6.044  15.560  1.00  0.00     0.275 C 
HETATM   13  O10 UNL     1      38.013   4.998  16.461  1.00  0.00    -0.284 OA
HETATM   14  C12 UNL     1      37.637   5.560  17.691  1.00  0.00     0.194 C 
HETATM   15  N4  UNL     1      37.750   5.025  18.857  1.00  0.00    -0.377 N 
HETATM   16  C13 UNL     1      37.071   6.903  17.432  1.00  0.00     0.273 C 
ATOM     17  H42 UNL     1      38.140   4.100  19.036  1.00  0.00     0.158 HD
ATOM     18  H41 UNL     1      37.477   5.434  19.751  1.00  0.00     0.158 HD
HETATM   19  O11 UNL     1      36.621   7.718  18.285  1.00  0.00    -0.280 OA
HETATM   20  C14 UNL     1      37.157   7.050  15.992  1.00  0.00     0.269 C 
HETATM   21  O12 UNL     1      36.536   7.856  15.289  1.00  0.00    -0.282 OA
BRANCH  12  22
HETATM   22  O9  UNL     1      39.402   6.629  15.809  1.00  0.00    -0.356 OA
ATOM     23  H9  UNL     1      39.824   6.086  16.465  1.00  0.00     0.213 HD
ENDBRANCH  12  22
ENDBRANCH   8  12
ENDBRANCH   1   8
BRANCH   7  24
HETATM   24  O8  UNL     1      35.364   5.468  13.802  1.00  0.00    -0.340 OA
ATOM     25  H8  UNL     1      34.982   5.959  13.085  1.00  0.00     0.220 HD
ENDBRANCH   7  24
BRANCH   3  26
HETATM   26  O2  UNL     1      38.276   0.954  12.848  1.00  0.00    -0.319 OA
BRANCH  26  27
HETATM   27  C6  UNL     1      38.764   0.088  13.861  1.00  0.00     0.357 C 
BRANCH  27  28
HETATM   28  O3  UNL     1      38.474  -1.258  13.589  1.00  0.00    -0.271 OA
BRANCH  28  29
HETATM   29  C7  UNL     1      37.502  -1.953  14.333  1.00  0.00     0.430 C 
HETATM   30  O4  UNL     1      37.628  -1.908  15.572  1.00  0.00    -0.227 OA
BRANCH  29  31
HETATM   31  O5  UNL     1      36.468  -2.646  13.736  1.00  0.00    -0.172 OA
BRANCH  31  32
HETATM   32  N1  UNL     1      35.603  -2.017  12.896  1.00  0.00    -0.228 N 
HETATM   33  C8  UNL     1      35.812  -2.027  11.490  1.00  0.00     0.206 C 
HETATM   34  N2  UNL     1      36.669  -1.206  11.002  1.00  0.00    -0.372 N 
HETATM   35  N3  UNL     1      35.105  -2.909  10.634  1.00  0.00    -0.062 NA
ATOM     36  H22 UNL     1      37.177  -0.571  11.617  1.00  0.00     0.158 HD
ATOM     37  H21 UNL     1      36.820  -1.213   9.993  1.00  0.00     0.158 HD
ATOM     38  H1  UNL     1      34.792  -1.532  13.281  1.00  0.00     0.198 HD
ENDBRANCH  31  32
ENDBRANCH  29  31
ENDBRANCH  28  29
ENDBRANCH  27  28
ENDBRANCH  26  27
ENDBRANCH   3  26
TORSDOF 11
ENDMDL
MODEL 2
REMARK VINA RESULT: -6.623482467      2.755      4.290
REMARK  11 active torsions:
REMARK  status: ('A' for Active; 'I' for Inactive)
REMARK    1  A    between atoms: C2_2  and  O1_3 
REMARK    2  A    between atoms: C2_2  and  C3_5 
REMARK    3  A    between atoms: C2_2  and  C11_27 
REMARK    4  A    between atoms: C5_7  and  O2_8 
REMARK    5  A    between atoms: O2_8  and  C6_9 
REMARK    6  A    between atoms: C6_9  and  O3_10 
REMARK    7  A    between atoms: O3_10  and  C7_11 
REMARK    8  A    between atoms: C7_11  and  O5_13 
REMARK    9  A    between atoms: O5_13  and  N1_14 
REMARK       I    between atoms: N1_14  and  C8_16 
REMARK   10  A    between atoms: C10_24  and  O8_25 
REMARK   11  A    between atoms: C11_27  and  O9_28 
ROOT
HETATM    1  C3  UNL     1      37.780   2.952  13.462  1.00  0.00     0.043 A 
HETATM    2  C4  UNL     1      37.312   1.982  12.612  1.00  0.00     0.058 A 
HETATM    3  C5  UNL     1      37.859   0.724  12.570  1.00  0.00     0.147 A 
HETATM    4  C9  UNL     1      38.906   0.438  13.408  1.00  0.00     0.323 A 
HETATM    5  O6  UNL     1      39.468  -0.707  13.428  1.00  0.00    -0.257 OA
HETATM    6  O7  UNL     1      39.350   1.358  14.216  1.00  0.00    -0.249 OA
HETATM    7  C10 UNL     1      38.852   2.570  14.281  1.00  0.00     0.196 A 
ENDROOT
BRANCH   1   8
HETATM    8  C2  UNL     1      37.308   4.310  13.617  1.00  0.00     0.150 C 
HETATM    9  C1  UNL     1      35.795   4.305  13.407  1.00  0.00     0.058 C 
BRANCH   8  10
HETATM   10  O1  UNL     1      37.496   4.693  14.965  1.00  0.00    -0.379 OA
ATOM     11  H1  UNL     1      36.632   4.930  15.281  1.00  0.00     0.211 HD
ENDBRANCH   8  10
BRANCH   8  12
HETATM   12  C11 UNL     1      37.881   5.364  12.772  1.00  0.00     0.275 C 
HETATM   13  O10 UNL     1      38.202   5.018  11.468  1.00  0.00    -0.284 OA
HETATM   14  C12 UNL     1      39.093   5.994  10.995  1.00  0.00     0.194 C 
HETATM   15  N4  UNL     1      39.370   6.264   9.767  1.00  0.00    -0.377 N 
HETATM   16  C13 UNL     1      39.683   6.686  12.163  1.00  0.00     0.273 C 
ATOM     17  H42 UNL     1      38.963   5.788   8.963  1.00  0.00     0.158 HD
ATOM     18  H41 UNL     1      40.017   6.973   9.424  1.00  0.00     0.158 HD
HETATM   19  O11 UNL     1      40.529   7.624  12.147  1.00  0.00    -0.280 OA
HETATM   20  C14 UNL     1      39.069   6.038  13.305  1.00  0.00     0.269 C 
HETATM   21  O12 UNL     1      39.469   6.058  14.475  1.00  0.00    -0.282 OA
BRANCH  12  22
HETATM   22  O9  UNL     1      36.892   6.380  12.672  1.00  0.00    -0.356 OA
ATOM     23  H9  UNL     1      36.051   5.937  12.687  1.00  0.00     0.213 HD
ENDBRANCH  12  22
ENDBRANCH   8  12
ENDBRANCH   1   8
BRANCH   7  24
HETATM   24  O8  UNL     1      39.425   3.450  15.190  1.00  0.00    -0.340 OA
ATOM     25  H8  UNL     1      39.418   4.389  15.045  1.00  0.00     0.220 HD
ENDBRANCH   7  24
BRANCH   3  26
HETATM   26  O2  UNL     1      37.379  -0.226  11.717  1.00  0.00    -0.319 OA
BRANCH  26  27
HETATM   27  C6  UNL     1      36.017  -0.331  11.332  1.00  0.00     0.357 C 
BRANCH  27  28
HETATM   28  O3  UNL     1      35.382  -1.427  11.936  1.00  0.00    -0.271 OA
BRANCH  28  29
HETATM   29  C7  UNL     1      35.612  -2.739  11.480  1.00  0.00     0.430 C 
HETATM   30  O4  UNL     1      34.981  -3.081  10.460  1.00  0.00    -0.227 OA
BRANCH  29  31
HETATM   31  O5  UNL     1      36.480  -3.603  12.116  1.00  0.00    -0.172 OA
BRANCH  31  32
HETATM   32  N1  UNL     1      37.529  -3.127  12.839  1.00  0.00    -0.228 N 
HETATM   33  C8  UNL     1      37.465  -3.055  14.258  1.00  0.00     0.206 C 
HETATM   34  N2  UNL     1      36.832  -2.071  14.784  1.00  0.00    -0.372 N 
HETATM   35  N3  UNL     1      38.077  -4.030  15.085  1.00  0.00    -0.062 NA
ATOM     36  H22 UNL     1      36.393  -1.368  14.189  1.00  0.00     0.158 HD
ATOM     37  H21 UNL     1      36.786  -2.019  15.801  1.00  0.00     0.158 HD
ATOM     38  H1  UNL     1      38.374  -2.819  12.357  1.00  0.00     0.198 HD
ENDBRANCH  31  32
ENDBRANCH  29  31
ENDBRANCH  28  29
ENDBRANCH  27  28
ENDBRANCH  26  27
ENDBRANCH   3  26
TORSDOF 11
ENDMDL
MODEL 3
REMARK VINA RESULT: -6.387140290      4.216      8.411
REMARK  11 active torsions:
REMARK  status: ('A' for Active; 'I' for Inactive)
REMARK    1  A    between atoms: C2_2  and  O1_3 
REMARK    2  A    between atoms: C2_2  and  C3_5 
REMARK    3  A    between atoms: C2_2  and  C11_27 
REMARK    4  A    between atoms: C5_7  and  O2_8 
REMARK    5  A    between atoms: O2_8  and  C6_9 
REMARK    6  A    between atoms: C6_9  and  O3_10 
REMARK    7  A    between atoms: O3_10  and  C7_11 
REMARK    8  A    between atoms: C7_11  and  O5_13 
REMARK    9  A    between atoms: O5_13  and  N1_14 
REMARK       I    between atoms: N1_14  and  C8_16 
REMARK   10  A    between atoms: C10_24  and  O8_25 
REMARK   11  A    between atoms: C11_27  and  O9_28 
ROOT
HETATM    1  C3  UNL     1      38.454   5.197  18.060  1.00  0.00     0.043 A 
HETATM    2  C4  UNL     1      37.908   5.185  19.319  1.00  0.00     0.058 A 
HETATM    3  C5  UNL     1      37.986   4.087  20.138  1.00  0.00     0.147 A 
HETATM    4  C9  UNL     1      38.634   2.971  19.674  1.00  0.00     0.323 A 
HETATM    5  O6  UNL     1      38.749   1.911  20.374  1.00  0.00    -0.257 OA
HETATM    6  O7  UNL     1      39.154   2.981  18.480  1.00  0.00    -0.249 OA
HETATM    7  C10 UNL     1      39.097   4.013  17.671  1.00  0.00     0.196 A 
ENDROOT
BRANCH   1   8
HETATM    8  C2  UNL     1      38.451   6.271  17.093  1.00  0.00     0.150 C 
HETATM    9  C1  UNL     1      38.114   7.565  17.833  1.00  0.00     0.058 C 
BRANCH   8  10
HETATM   10  O1  UNL     1      39.773   6.445  16.620  1.00  0.00    -0.379 OA
ATOM     11  H1  UNL     1      39.885   5.788  15.944  1.00  0.00     0.211 HD
ENDBRANCH   8  10
BRANCH   8  12
HETATM   12  C11 UNL     1      37.570   6.174  15.923  1.00  0.00     0.275 C 
HETATM   13  O10 UNL     1      37.246   4.899  15.486  1.00  0.00    -0.284 OA
HETATM   14  C12 UNL     1      36.781   5.026  14.167  1.00  0.00     0.194 C 
HETATM   15  N4  UNL     1      36.065   4.181  13.511  1.00  0.00    -0.377 N 
HETATM   16  C13 UNL     1      37.257   6.321  13.633  1.00  0.00     0.273 C 
ATOM     17  H42 UNL     1      35.737   3.289  13.880  1.00  0.00     0.158 HD
ATOM     18  H41 UNL     1      35.728   4.273  12.553  1.00  0.00     0.158 HD
HETATM   19  O11 UNL     1      37.046   6.795  12.480  1.00  0.00    -0.280 OA
HETATM   20  C14 UNL     1      38.009   6.902  14.728  1.00  0.00     0.269 C 
HETATM   21  O12 UNL     1      38.840   7.815  14.658  1.00  0.00    -0.282 OA
BRANCH  12  22
HETATM   22  O9  UNL     1      36.341   6.782  16.295  1.00  0.00    -0.356 OA
ATOM     23  H9  UNL     1      35.817   6.100  16.700  1.00  0.00     0.213 HD
ENDBRANCH  12  22
ENDBRANCH   8  12
ENDBRANCH   1   8
BRANCH   7  24
HETATM   24  O8  UNL     1      39.695   3.884  16.424  1.00  0.00    -0.340 OA
ATOM     25  H8  UNL     1      40.378   3.244  16.264  1.00  0.00     0.220 HD
ENDBRANCH   7  24
BRANCH   3  26
HETATM   26  O2  UNL     1      37.435   4.096  21.385  1.00  0.00    -0.319 OA
BRANCH  26  27
HETATM   27  C6  UNL     1      36.105   3.689  21.667  1.00  0.00     0.357 C 
BRANCH  27  28
HETATM   28  O3  UNL     1      35.413   4.640  22.432  1.00  0.00    -0.271 OA
BRANCH  28  29
HETATM   29  C7  UNL     1      35.498   6.013  22.129  1.00  0.00     0.430 C 
HETATM   30  O4  UNL     1      34.812   6.402  21.162  1.00  0.00    -0.227 OA
BRANCH  29  31
HETATM   31  O5  UNL     1      36.288   6.884  22.850  1.00  0.00    -0.172 OA
BRANCH  31  32
HETATM   32  N1  UNL     1      37.531   7.222  22.412  1.00  0.00    -0.228 N 
HETATM   33  C8  UNL     1      37.866   8.577  22.142  1.00  0.00     0.206 C 
HETATM   34  N2  UNL     1      37.484   9.083  21.027  1.00  0.00    -0.372 N 
HETATM   35  N3  UNL     1      38.602   9.363  23.064  1.00  0.00    -0.062 NA
ATOM     36  H22 UNL     1      36.955   8.517  20.363  1.00  0.00     0.158 HD
ATOM     37  H21 UNL     1      37.724  10.054  20.833  1.00  0.00     0.158 HD
ATOM     38  H1  UNL     1      38.231   6.493  22.276  1.00  0.00     0.198 HD
ENDBRANCH  31  32
ENDBRANCH  29  31
ENDBRANCH  28  29
ENDBRANCH  27  28
ENDBRANCH  26  27
ENDBRANCH   3  26
TORSDOF 11
ENDMDL
MODEL 4
REMARK VINA RESULT: -6.373166257      2.897      7.165
REMARK  11 active torsions:
REMARK  status: ('A' for Active; 'I' for Inactive)
REMARK    1  A    between atoms: C2_2  and  O1_3 
REMARK    2  A    between atoms: C2_2  and  C3_5 
REMARK    3  A    between atoms: C2_2  and  C11_27 
REMARK    4  A    between atoms: C5_7  and  O2_8 
REMARK    5  A    between atoms: O2_8  and  C6_9 
REMARK    6  A    between atoms: C6_9  and  O3_10 
REMARK    7  A    between atoms: O3_10  and  C7_11 
REMARK    8  A    between atoms: C7_11  and  O5_13 
REMARK    9  A    between atoms: O5_13  and  N1_14 
REMARK       I    between atoms: N1_14  and  C8_16 
REMARK   10  A    between atoms: C10_24  and  O8_25 
REMARK   11  A    between atoms: C11_27  and  O9_28 
ROOT
HETATM    1  C3  UNL     1      37.472   5.702  15.129  1.00  0.00     0.043 A 
HETATM    2  C4  UNL     1      38.302   4.969  15.939  1.00  0.00     0.058 A 
HETATM    3  C5  UNL     1      38.566   5.335  17.235  1.00  0.00     0.147 A 
HETATM    4  C9  UNL     1      37.975   6.470  17.727  1.00  0.00     0.323 A 
HETATM    5  O6  UNL     1      38.170   6.876  18.920  1.00  0.00    -0.257 OA
HETATM    6  O7  UNL     1      37.186   7.166  16.959  1.00  0.00    -0.249 OA
HETATM    7  C10 UNL     1      36.913   6.846  15.717  1.00  0.00     0.196 A 
ENDROOT
BRANCH   1   8
HETATM    8  C2  UNL     1      37.103   5.442  13.756  1.00  0.00     0.150 C 
HETATM    9  C1  UNL     1      35.579   5.349  13.690  1.00  0.00     0.058 C 
BRANCH   8  10
HETATM   10  O1  UNL     1      37.441   6.578  12.984  1.00  0.00    -0.379 OA
ATOM     11  H1  UNL     1      38.390   6.584  12.950  1.00  0.00     0.211 HD
ENDBRANCH   8  10
BRANCH   8  12
HETATM   12  C11 UNL     1      37.660   4.264  13.079  1.00  0.00     0.275 C 
HETATM   13  O10 UNL     1      37.462   3.037  13.692  1.00  0.00    -0.284 OA
HETATM   14  C12 UNL     1      38.400   2.150  13.141  1.00  0.00     0.194 C 
HETATM   15  N4  UNL     1      38.355   0.864  13.154  1.00  0.00    -0.377 N 
HETATM   16  C13 UNL     1      39.483   2.948  12.523  1.00  0.00     0.273 C 
ATOM     17  H42 UNL     1      37.609   0.314  13.579  1.00  0.00     0.158 HD
ATOM     18  H41 UNL     1      39.036   0.219  12.753  1.00  0.00     0.158 HD
HETATM   19  O11 UNL     1      40.508   2.512  11.927  1.00  0.00    -0.280 OA
HETATM   20  C14 UNL     1      39.090   4.323  12.764  1.00  0.00     0.269 C 
HETATM   21  O12 UNL     1      39.816   5.323  12.712  1.00  0.00    -0.282 OA
BRANCH  12  22
HETATM   22  O9  UNL     1      37.006   4.180  11.820  1.00  0.00    -0.356 OA
ATOM     23  H9  UNL     1      36.539   3.352  11.816  1.00  0.00     0.213 HD
ENDBRANCH  12  22
ENDBRANCH   8  12
ENDBRANCH   1   8
BRANCH   7  24
HETATM   24  O8  UNL     1      36.053   7.680  15.014  1.00  0.00    -0.340 OA
ATOM     25  H8  UNL     1      36.372   8.442  14.544  1.00  0.00     0.220 HD
ENDBRANCH   7  24
BRANCH   3  26
HETATM   26  O2  UNL     1      39.396   4.593  18.023  1.00  0.00    -0.319 OA
BRANCH  26  27
HETATM   27  C6  UNL     1      39.013   3.384  18.661  1.00  0.00     0.357 C 
BRANCH  27  28
HETATM   28  O3  UNL     1      37.728   3.467  19.220  1.00  0.00    -0.271 OA
BRANCH  28  29
HETATM   29  C7  UNL     1      37.455   2.927  20.491  1.00  0.00     0.430 C 
HETATM   30  O4  UNL     1      37.471   1.682  20.570  1.00  0.00    -0.227 OA
BRANCH  29  31
HETATM   31  O5  UNL     1      37.186   3.717  21.590  1.00  0.00    -0.172 OA
BRANCH  31  32
HETATM   32  N1  UNL     1      37.273   5.072  21.511  1.00  0.00    -0.228 N 
HETATM   33  C8  UNL     1      36.104   5.882  21.538  1.00  0.00     0.206 C 
HETATM   34  N2  UNL     1      35.425   5.998  20.456  1.00  0.00    -0.372 N 
HETATM   35  N3  UNL     1      35.685   6.550  22.716  1.00  0.00    -0.062 NA
ATOM     36  H22 UNL     1      35.727   5.518  19.608  1.00  0.00     0.158 HD
ATOM     37  H21 UNL     1      34.587   6.578  20.476  1.00  0.00     0.158 HD
ATOM     38  H1  UNL     1      38.189   5.513  21.431  1.00  0.00     0.198 HD
ENDBRANCH  31  32
ENDBRANCH  29  31
ENDBRANCH  28  29
ENDBRANCH  27  28
ENDBRANCH  26  27
ENDBRANCH   3  26
TORSDOF 11
ENDMDL
MODEL 5
REMARK VINA RESULT: -6.338758338      3.851      6.190
REMARK  11 active torsions:
REMARK  status: ('A' for Active; 'I' for Inactive)
REMARK    1  A    between atoms: C2_2  and  O1_3 
REMARK    2  A    between atoms: C2_2  and  C3_5 
REMARK    3  A    between atoms: C2_2  and  C11_27 
REMARK    4  A    between atoms: C5_7  and  O2_8 
REMARK    5  A    between atoms: O2_8  and  C6_9 
REMARK    6  A    between atoms: C6_9  and  O3_10 
REMARK    7  A    between atoms: O3_10  and  C7_11 
REMARK    8  A    between atoms: C7_11  and  O5_13 
REMARK    9  A    between atoms: O5_13  and  N1_14 
REMARK       I    between atoms: N1_14  and  C8_16 
REMARK   10  A    between atoms: C10_24  and  O8_25 
REMARK   11  A    between atoms: C11_27  and  O9_28 
ROOT
HETATM    1  C3  UNL     1      37.240   4.827  19.991  1.00  0.00     0.043 A 
HETATM    2  C4  UNL     1      38.154   4.471  19.031  1.00  0.00     0.058 A 
HETATM    3  C5  UNL     1      38.724   3.223  18.993  1.00  0.00     0.147 A 
HETATM    4  C9  UNL     1      38.363   2.311  19.950  1.00  0.00     0.323 A 
HETATM    5  O6  UNL     1      38.848   1.131  19.984  1.00  0.00    -0.257 OA
HETATM    6  O7  UNL     1      37.495   2.647  20.862  1.00  0.00    -0.249 OA
HETATM    7  C10 UNL     1      36.932   3.829  20.928  1.00  0.00     0.196 A 
ENDROOT
BRANCH   1   8
HETATM    8  C2  UNL     1      36.561   6.092  20.156  1.00  0.00     0.150 C 
HETATM    9  C1  UNL     1      36.379   6.708  18.769  1.00  0.00     0.058 C 
BRANCH   8  10
HETATM   10  O1  UNL     1      35.252   5.834  20.624  1.00  0.00    -0.379 OA
ATOM     11  H1  UNL     1      35.064   6.534  21.238  1.00  0.00     0.211 HD
ENDBRANCH   8  10
BRANCH   8  12
HETATM   12  C11 UNL     1      37.154   7.110  21.031  1.00  0.00     0.275 C 
HETATM   13  O10 UNL     1      38.537   7.132  21.121  1.00  0.00    -0.284 OA
HETATM   14  C12 UNL     1      38.859   7.851  22.283  1.00  0.00     0.194 C 
HETATM   15  N4  UNL     1      39.985   8.405  22.568  1.00  0.00    -0.377 N 
HETATM   16  C13 UNL     1      37.664   7.873  23.158  1.00  0.00     0.273 C 
ATOM     17  H42 UNL     1      40.808   8.389  21.965  1.00  0.00     0.158 HD
ATOM     18  H41 UNL     1      40.219   8.927  23.412  1.00  0.00     0.158 HD
HETATM   19  O11 UNL     1      37.559   8.421  24.291  1.00  0.00    -0.280 OA
HETATM   20  C14 UNL     1      36.668   7.128  22.414  1.00  0.00     0.269 C 
HETATM   21  O12 UNL     1      35.632   6.621  22.861  1.00  0.00    -0.282 OA
BRANCH  12  22
HETATM   22  O9  UNL     1      36.780   8.370  20.491  1.00  0.00    -0.356 OA
ATOM     23  H9  UNL     1      37.508   8.658  19.952  1.00  0.00     0.213 HD
ENDBRANCH  12  22
ENDBRANCH   8  12
ENDBRANCH   1   8
BRANCH   7  24
HETATM   24  O8  UNL     1      36.023   4.051  21.955  1.00  0.00    -0.340 OA
ATOM     25  H8  UNL     1      35.301   3.456  22.117  1.00  0.00     0.220 HD
ENDBRANCH   7  24
BRANCH   3  26
HETATM   26  O2  UNL     1      39.631   2.890  18.031  1.00  0.00    -0.319 OA
BRANCH  26  27
HETATM   27  C6  UNL     1      40.125   3.799  17.058  1.00  0.00     0.357 C 
BRANCH  27  28
HETATM   28  O3  UNL     1      40.110   3.249  15.767  1.00  0.00    -0.271 OA
BRANCH  28  29
HETATM   29  C7  UNL     1      38.953   3.311  14.968  1.00  0.00     0.430 C 
HETATM   30  O4  UNL     1      38.176   4.257  15.204  1.00  0.00    -0.227 OA
BRANCH  29  31
HETATM   31  O5  UNL     1      38.685   2.385  13.980  1.00  0.00    -0.172 OA
BRANCH  31  32
HETATM   32  N1  UNL     1      37.787   2.657  12.996  1.00  0.00    -0.228 N 
HETATM   33  C8  UNL     1      36.464   2.138  13.051  1.00  0.00     0.206 C 
HETATM   34  N2  UNL     1      36.278   0.920  12.695  1.00  0.00    -0.372 N 
HETATM   35  N3  UNL     1      35.368   2.928  13.481  1.00  0.00    -0.062 NA
ATOM     36  H22 UNL     1      37.066   0.352  12.385  1.00  0.00     0.158 HD
ATOM     37  H21 UNL     1      35.329   0.548  12.735  1.00  0.00     0.158 HD
ATOM     38  H1  UNL     1      38.066   3.242  12.208  1.00  0.00     0.198 HD
ENDBRANCH  31  32
ENDBRANCH  29  31
ENDBRANCH  28  29
ENDBRANCH  27  28
ENDBRANCH  26  27
ENDBRANCH   3  26
TORSDOF 11
ENDMDL
