MODEL 1
REMARK VINA RESULT: -6.898229335      0.000      0.000
REMARK  12 active torsions:
REMARK  status: ('A' for Active; 'I' for Inactive)
REMARK    1  A    between atoms: C2_6  and  C3_7 
REMARK    2  A    between atoms: C3_7  and  O3_9 
REMARK    3  A    between atoms: O3_9  and  C4_10 
REMARK    4  A    between atoms: C5_13  and  N4_14 
REMARK    5  A    between atoms: C6_17  and  C7_18 
REMARK       I    between atoms: C7_18  and  N5_20 
REMARK    6  A    between atoms: N6_22  and  C8_24 
REMARK    7  A    between atoms: C8_24  and  O5_25 
REMARK    8  A    between atoms: C8_24  and  O6_27 
REMARK    9  A    between atoms: C10_30  and  N7_31 
REMARK   10  A    between atoms: C12_35  and  C13_36 
REMARK   11  A    between atoms: C13_36  and  O7_37 
REMARK   12  A    between atoms: C13_36  and  O8_39 
ROOT
HETATM    1  C4  UNL     1      38.257   5.697  15.694  1.00  0.00     0.255 A 
HETATM    2  N3  UNL     1      38.855   4.635  16.244  1.00  0.00    -0.306 N 
ATOM      3  H3  UNL     1      39.311   3.974  15.616  1.00  0.00     0.171 HD
HETATM    4  C5  UNL     1      38.898   4.380  17.531  1.00  0.00     0.120 A 
HETATM    5  C6  UNL     1      38.273   5.282  18.406  1.00  0.00     0.108 A 
HETATM    6  C9  UNL     1      37.638   6.403  17.871  1.00  0.00     0.106 A 
HETATM    7  C10 UNL     1      37.015   7.291  18.752  1.00  0.00     0.058 A 
HETATM    8  C11 UNL     1      36.384   8.401  18.135  1.00  0.00     0.063 A 
HETATM    9  C12 UNL     1      36.415   8.540  16.787  1.00  0.00     0.083 A 
HETATM   10  N8  UNL     1      37.042   7.632  16.022  1.00  0.00    -0.290 N 
ATOM     11  H8  UNL     1      37.054   7.757  15.010  1.00  0.00     0.187 HD
HETATM   12  N9  UNL     1      37.644   6.581  16.550  1.00  0.00    -0.215 N 
ENDROOT
BRANCH   5  13
HETATM   13  C7  UNL     1      38.318   4.975  19.804  1.00  0.00     0.276 C 
HETATM   14  O4  UNL     1      39.292   5.351  20.498  1.00  0.00    -0.266 OA
HETATM   15  N5  UNL     1      37.267   4.239  20.412  1.00  0.00    -0.266 N 
HETATM   16  N6  UNL     1      37.404   3.063  20.879  1.00  0.00    -0.282 N 
ATOM     17  H5  UNL     1      36.349   4.679  20.479  1.00  0.00     0.190 HD
ATOM     18  H6  UNL     1      38.298   2.573  20.841  1.00  0.00     0.185 HD
BRANCH  16  19
HETATM   19  C8  UNL     1      36.227   2.455  21.468  1.00  0.00     0.380 C 
BRANCH  19  20
HETATM   20  O5  UNL     1      36.295   1.090  21.316  1.00  0.00    -0.354 OA
ATOM     21  H5  UNL     1      35.465   0.768  20.985  1.00  0.00     0.214 HD
ENDBRANCH  19  20
BRANCH  19  22
HETATM   22  O6  UNL     1      36.020   2.848  22.772  1.00  0.00    -0.354 OA
ATOM     23  H6  UNL     1      35.371   2.317  23.217  1.00  0.00     0.214 HD
ENDBRANCH  19  22
ENDBRANCH  16  19
ENDBRANCH   5  13
BRANCH   4  24
HETATM   24  N4  UNL     1      39.478   3.350  18.064  1.00  0.00    -0.384 N 
ATOM     25  H42 UNL     1      39.659   2.554  17.453  1.00  0.00     0.157 HD
ATOM     26  H41 UNL     1      39.763   3.282  19.041  1.00  0.00     0.157 HD
ENDBRANCH   4  24
BRANCH   7  27
HETATM   27  N7  UNL     1      37.007   7.176  19.954  1.00  0.00    -0.397 N 
ATOM     28  H72 UNL     1      37.857   7.341  20.492  1.00  0.00     0.156 HD
ATOM     29  H71 UNL     1      36.194   6.901  20.506  1.00  0.00     0.156 HD
ENDBRANCH   7  27
BRANCH   1  30
HETATM   30  O3  UNL     1      38.204   5.972  14.339  1.00  0.00    -0.238 OA
BRANCH  30  31
HETATM   31  C3  UNL     1      37.081   5.717  13.573  1.00  0.00     0.339 C 
HETATM   32  O2  UNL     1      36.590   6.711  12.938  1.00  0.00    -0.255 OA
BRANCH  31  33
HETATM   33  C2  UNL     1      36.476   4.395  13.483  1.00  0.00     0.228 A 
HETATM   34  N1  UNL     1      36.851   3.138  13.353  1.00  0.00    -0.214 N 
HETATM   35  C1  UNL     1      38.127   2.457  13.262  1.00  0.00     0.190 C 
HETATM   36  O1  UNL     1      35.585   2.764  13.356  1.00  0.00    -0.151 OA
HETATM   37  N2  UNL     1      35.199   3.976  13.482  1.00  0.00    -0.218 N 
ATOM     38  H2  UNL     1      34.292   4.437  13.553  1.00  0.00     0.198 HD
ENDBRANCH  31  33
ENDBRANCH  30  31
ENDBRANCH   1  30
BRANCH   9  39
HETATM   39  C13 UNL     1      35.731   9.725  16.172  1.00  0.00     0.306 C 
BRANCH  39  40
HETATM   40  O7  UNL     1      36.600  10.658  15.669  1.00  0.00    -0.366 OA
ATOM     41  H7  UNL     1      36.203  11.510  15.531  1.00  0.00     0.213 HD
ENDBRANCH  39  40
BRANCH  39  42
HETATM   42  O8  UNL     1      34.906   9.246  15.147  1.00  0.00    -0.366 OA
ATOM     43  H8  UNL     1      34.511  10.000  14.726  1.00  0.00     0.213 HD
ENDBRANCH  39  42
ENDBRANCH   9  39
TORSDOF 12
ENDMDL
MODEL 2
REMARK VINA RESULT: -6.827291075      2.422      6.271
REMARK  12 active torsions:
REMARK  status: ('A' for Active; 'I' for Inactive)
REMARK    1  A    between atoms: C2_6  and  C3_7 
REMARK    2  A    between atoms: C3_7  and  O3_9 
REMARK    3  A    between atoms: O3_9  and  C4_10 
REMARK    4  A    between atoms: C5_13  and  N4_14 
REMARK    5  A    between atoms: C6_17  and  C7_18 
REMARK       I    between atoms: C7_18  and  N5_20 
REMARK    6  A    between atoms: N6_22  and  C8_24 
REMARK    7  A    between atoms: C8_24  and  O5_25 
REMARK    8  A    between atoms: C8_24  and  O6_27 
REMARK    9  A    between atoms: C10_30  and  N7_31 
REMARK   10  A    between atoms: C12_35  and  C13_36 
REMARK   11  A    between atoms: C13_36  and  O7_37 
REMARK   12  A    between atoms: C13_36  and  O8_39 
ROOT
HETATM    1  C4  UNL     1      38.747   3.826  18.830  1.00  0.00     0.255 A 
HETATM    2  N3  UNL     1      39.314   3.669  17.631  1.00  0.00    -0.306 N 
ATOM      3  H3  UNL     1      40.010   2.930  17.531  1.00  0.00     0.171 HD
HETATM    4  C5  UNL     1      39.043   4.394  16.570  1.00  0.00     0.120 A 
HETATM    5  C6  UNL     1      38.088   5.415  16.694  1.00  0.00     0.108 A 
HETATM    6  C9  UNL     1      37.473   5.611  17.930  1.00  0.00     0.106 A 
HETATM    7  C10 UNL     1      36.526   6.633  18.041  1.00  0.00     0.058 A 
HETATM    8  C11 UNL     1      35.951   6.778  19.330  1.00  0.00     0.063 A 
HETATM    9  C12 UNL     1      36.328   5.956  20.340  1.00  0.00     0.083 A 
HETATM   10  N8  UNL     1      37.246   4.999  20.134  1.00  0.00    -0.290 N 
ATOM     11  H8  UNL     1      37.514   4.392  20.909  1.00  0.00     0.187 HD
HETATM   12  N9  UNL     1      37.811   4.826  18.952  1.00  0.00    -0.215 N 
ENDROOT
BRANCH   5  13
HETATM   13  C7  UNL     1      37.820   6.205  15.529  1.00  0.00     0.276 C 
HETATM   14  O4  UNL     1      38.300   7.358  15.429  1.00  0.00    -0.266 OA
HETATM   15  N5  UNL     1      37.007   5.691  14.485  1.00  0.00    -0.266 N 
HETATM   16  N6  UNL     1      35.860   6.156  14.187  1.00  0.00    -0.282 N 
ATOM     17  H5  UNL     1      37.363   4.904  13.942  1.00  0.00     0.190 HD
ATOM     18  H6  UNL     1      35.452   6.941  14.694  1.00  0.00     0.185 HD
BRANCH  16  19
HETATM   19  C8  UNL     1      35.162   5.513  13.091  1.00  0.00     0.380 C 
BRANCH  19  20
HETATM   20  O5  UNL     1      34.987   4.180  13.381  1.00  0.00    -0.354 OA
ATOM     21  H5  UNL     1      35.752   3.694  13.097  1.00  0.00     0.214 HD
ENDBRANCH  19  20
BRANCH  19  22
HETATM   22  O6  UNL     1      33.990   6.156  12.757  1.00  0.00    -0.354 OA
ATOM     23  H6  UNL     1      33.333   5.565  12.409  1.00  0.00     0.214 HD
ENDBRANCH  19  22
ENDBRANCH  16  19
ENDBRANCH   5  13
BRANCH   4  24
HETATM   24  N4  UNL     1      39.593   4.242  15.407  1.00  0.00    -0.384 N 
ATOM     25  H42 UNL     1      40.132   3.388  15.258  1.00  0.00     0.157 HD
ATOM     26  H41 UNL     1      39.526   4.909  14.637  1.00  0.00     0.157 HD
ENDBRANCH   4  24
BRANCH   7  27
HETATM   27  N7  UNL     1      36.178   7.350  17.135  1.00  0.00    -0.397 N 
ATOM     28  H72 UNL     1      36.626   7.279  16.221  1.00  0.00     0.156 HD
ATOM     29  H71 UNL     1      35.454   8.066  17.205  1.00  0.00     0.156 HD
ENDBRANCH   7  27
BRANCH   1  30
HETATM   30  O3  UNL     1      39.029   3.068  19.953  1.00  0.00    -0.238 OA
BRANCH  30  31
HETATM   31  C3  UNL     1      38.433   1.842  20.190  1.00  0.00     0.339 C 
HETATM   32  O2  UNL     1      37.306   1.865  20.790  1.00  0.00    -0.255 OA
BRANCH  31  33
HETATM   33  C2  UNL     1      39.043   0.582  19.784  1.00  0.00     0.228 A 
HETATM   34  N1  UNL     1      40.160   0.151  19.233  1.00  0.00    -0.214 N 
HETATM   35  C1  UNL     1      41.382   0.782  18.777  1.00  0.00     0.190 C 
HETATM   36  O1  UNL     1      39.704  -1.087  19.287  1.00  0.00    -0.151 OA
HETATM   37  N2  UNL     1      38.614  -0.691  19.821  1.00  0.00    -0.218 N 
ATOM     38  H2  UNL     1      37.763  -1.153  20.145  1.00  0.00     0.198 HD
ENDBRANCH  31  33
ENDBRANCH  30  31
ENDBRANCH   1  30
BRANCH   9  39
HETATM   39  C13 UNL     1      35.699   6.145  21.689  1.00  0.00     0.306 C 
BRANCH  39  40
HETATM   40  O7  UNL     1      35.471   4.968  22.356  1.00  0.00    -0.366 OA
ATOM     41  H7  UNL     1      35.026   5.084  23.187  1.00  0.00     0.213 HD
ENDBRANCH  39  40
BRANCH  39  42
HETATM   42  O8  UNL     1      36.559   6.954  22.441  1.00  0.00    -0.366 OA
ATOM     43  H8  UNL     1      36.244   6.947  23.337  1.00  0.00     0.213 HD
ENDBRANCH  39  42
ENDBRANCH   9  39
TORSDOF 12
ENDMDL
MODEL 3
REMARK VINA RESULT: -6.638637772      5.077      6.717
REMARK  12 active torsions:
REMARK  status: ('A' for Active; 'I' for Inactive)
REMARK    1  A    between atoms: C2_6  and  C3_7 
REMARK    2  A    between atoms: C3_7  and  O3_9 
REMARK    3  A    between atoms: O3_9  and  C4_10 
REMARK    4  A    between atoms: C5_13  and  N4_14 
REMARK    5  A    between atoms: C6_17  and  C7_18 
REMARK       I    between atoms: C7_18  and  N5_20 
REMARK    6  A    between atoms: N6_22  and  C8_24 
REMARK    7  A    between atoms: C8_24  and  O5_25 
REMARK    8  A    between atoms: C8_24  and  O6_27 
REMARK    9  A    between atoms: C10_30  and  N7_31 
REMARK   10  A    between atoms: C12_35  and  C13_36 
REMARK   11  A    between atoms: C13_36  and  O7_37 
REMARK   12  A    between atoms: C13_36  and  O8_39 
ROOT
HETATM    1  C4  UNL     1      40.009   3.600  12.515  1.00  0.00     0.255 A 
HETATM    2  N3  UNL     1      40.734   2.499  12.299  1.00  0.00    -0.306 N 
ATOM      3  H3  UNL     1      41.729   2.619  12.110  1.00  0.00     0.171 HD
HETATM    4  C5  UNL     1      40.261   1.274  12.312  1.00  0.00     0.120 A 
HETATM    5  C6  UNL     1      38.894   1.095  12.570  1.00  0.00     0.108 A 
HETATM    6  C9  UNL     1      38.103   2.220  12.801  1.00  0.00     0.106 A 
HETATM    7  C10 UNL     1      36.742   2.029  13.052  1.00  0.00     0.058 A 
HETATM    8  C11 UNL     1      36.001   3.220  13.268  1.00  0.00     0.063 A 
HETATM    9  C12 UNL     1      36.620   4.425  13.224  1.00  0.00     0.083 A 
HETATM   10  N8  UNL     1      37.937   4.506  12.976  1.00  0.00    -0.290 N 
ATOM     11  H8  UNL     1      38.382   5.423  12.948  1.00  0.00     0.187 HD
HETATM   12  N9  UNL     1      38.669   3.426  12.768  1.00  0.00    -0.215 N 
ENDROOT
BRANCH   5  13
HETATM   13  C7  UNL     1      38.397  -0.248  12.562  1.00  0.00     0.276 C 
HETATM   14  O4  UNL     1      37.830  -0.702  11.541  1.00  0.00    -0.266 OA
HETATM   15  N5  UNL     1      38.538  -1.073  13.710  1.00  0.00    -0.266 N 
HETATM   16  N6  UNL     1      37.559  -1.475  14.417  1.00  0.00    -0.282 N 
ATOM     17  H5  UNL     1      39.478  -1.360  13.983  1.00  0.00     0.190 HD
ATOM     18  H6  UNL     1      36.597  -1.220  14.193  1.00  0.00     0.185 HD
BRANCH  16  19
HETATM   19  C8  UNL     1      37.879  -2.311  15.557  1.00  0.00     0.380 C 
BRANCH  19  20
HETATM   20  O5  UNL     1      37.296  -1.787  16.686  1.00  0.00    -0.354 OA
ATOM     21  H5  UNL     1      36.574  -2.343  16.955  1.00  0.00     0.214 HD
ENDBRANCH  19  20
BRANCH  19  22
HETATM   22  O6  UNL     1      37.567  -3.637  15.348  1.00  0.00    -0.354 OA
ATOM     23  H6  UNL     1      36.991  -3.988  16.016  1.00  0.00     0.214 HD
ENDBRANCH  19  22
ENDBRANCH  16  19
ENDBRANCH   5  13
BRANCH   4  24
HETATM   24  N4  UNL     1      40.965   0.205  12.102  1.00  0.00    -0.384 N 
ATOM     25  H42 UNL     1      41.513   0.173  11.243  1.00  0.00     0.157 HD
ATOM     26  H41 UNL     1      41.009  -0.597  12.731  1.00  0.00     0.157 HD
ENDBRANCH   4  24
BRANCH   7  27
HETATM   27  N7  UNL     1      36.197   0.954  13.112  1.00  0.00    -0.397 N 
ATOM     28  H72 UNL     1      36.590   0.209  13.688  1.00  0.00     0.156 HD
ATOM     29  H71 UNL     1      35.350   0.703  12.602  1.00  0.00     0.156 HD
ENDBRANCH   7  27
BRANCH   1  30
HETATM   30  O3  UNL     1      40.499   4.895  12.501  1.00  0.00    -0.238 OA
BRANCH  30  31
HETATM   31  C3  UNL     1      41.138   5.435  11.399  1.00  0.00     0.339 C 
HETATM   32  O2  UNL     1      42.310   5.902  11.596  1.00  0.00    -0.255 OA
BRANCH  31  33
HETATM   33  C2  UNL     1      40.524   5.476  10.078  1.00  0.00     0.228 A 
HETATM   34  N1  UNL     1      40.832   5.189   8.830  1.00  0.00    -0.214 N 
HETATM   35  C1  UNL     1      41.998   4.638   8.167  1.00  0.00     0.190 C 
HETATM   36  O1  UNL     1      39.638   5.597   8.444  1.00  0.00    -0.151 OA
HETATM   37  N2  UNL     1      39.318   5.883   9.648  1.00  0.00    -0.218 N 
ATOM     38  H2  UNL     1      38.485   6.265  10.098  1.00  0.00     0.198 HD
ENDBRANCH  31  33
ENDBRANCH  30  31
ENDBRANCH   1  30
BRANCH   9  39
HETATM   39  C13 UNL     1      35.800   5.660  13.453  1.00  0.00     0.306 C 
BRANCH  39  40
HETATM   40  O7  UNL     1      36.329   6.783  12.870  1.00  0.00    -0.366 OA
ATOM     41  H7  UNL     1      36.590   6.653  11.966  1.00  0.00     0.213 HD
ENDBRANCH  39  40
BRANCH  39  42
HETATM   42  O8  UNL     1      34.523   5.416  12.935  1.00  0.00    -0.366 OA
ATOM     43  H8  UNL     1      34.342   6.094  12.295  1.00  0.00     0.213 HD
ENDBRANCH  39  42
ENDBRANCH   9  39
TORSDOF 12
ENDMDL
MODEL 4
REMARK VINA RESULT: -6.600111865      3.177      6.548
REMARK  12 active torsions:
REMARK  status: ('A' for Active; 'I' for Inactive)
REMARK    1  A    between atoms: C2_6  and  C3_7 
REMARK    2  A    between atoms: C3_7  and  O3_9 
REMARK    3  A    between atoms: O3_9  and  C4_10 
REMARK    4  A    between atoms: C5_13  and  N4_14 
REMARK    5  A    between atoms: C6_17  and  C7_18 
REMARK       I    between atoms: C7_18  and  N5_20 
REMARK    6  A    between atoms: N6_22  and  C8_24 
REMARK    7  A    between atoms: C8_24  and  O5_25 
REMARK    8  A    between atoms: C8_24  and  O6_27 
REMARK    9  A    between atoms: C10_30  and  N7_31 
REMARK   10  A    between atoms: C12_35  and  C13_36 
REMARK   11  A    between atoms: C13_36  and  O7_37 
REMARK   12  A    between atoms: C13_36  and  O8_39 
ROOT
HETATM    1  C4  UNL     1      36.666   5.852  20.822  1.00  0.00     0.255 A 
HETATM    2  N3  UNL     1      36.698   6.428  22.027  1.00  0.00    -0.306 N 
ATOM      3  H3  UNL     1      36.290   5.913  22.807  1.00  0.00     0.171 HD
HETATM    4  C5  UNL     1      37.217   7.607  22.283  1.00  0.00     0.120 A 
HETATM    5  C6  UNL     1      37.780   8.326  21.218  1.00  0.00     0.108 A 
HETATM    6  C9  UNL     1      37.766   7.760  19.944  1.00  0.00     0.106 A 
HETATM    7  C10 UNL     1      38.327   8.488  18.892  1.00  0.00     0.058 A 
HETATM    8  C11 UNL     1      38.268   7.851  17.625  1.00  0.00     0.063 A 
HETATM    9  C12 UNL     1      37.699   6.627  17.505  1.00  0.00     0.083 A 
HETATM   10  N8  UNL     1      37.187   6.004  18.578  1.00  0.00    -0.290 N 
ATOM     11  H8  UNL     1      36.764   5.083  18.464  1.00  0.00     0.187 HD
HETATM   12  N9  UNL     1      37.218   6.556  19.778  1.00  0.00    -0.215 N 
ENDROOT
BRANCH   5  13
HETATM   13  C7  UNL     1      38.325   9.618  21.517  1.00  0.00     0.276 C 
HETATM   14  O4  UNL     1      39.511   9.723  21.906  1.00  0.00    -0.266 OA
HETATM   15  N5  UNL     1      37.525  10.783  21.381  1.00  0.00    -0.266 N 
HETATM   16  N6  UNL     1      37.152  11.504  22.362  1.00  0.00    -0.282 N 
ATOM     17  H5  UNL     1      37.233  11.059  20.444  1.00  0.00     0.190 HD
ATOM     18  H6  UNL     1      37.413  11.278  23.322  1.00  0.00     0.185 HD
BRANCH  16  19
HETATM   19  C8  UNL     1      36.338  12.661  22.047  1.00  0.00     0.380 C 
BRANCH  19  20
HETATM   20  O5  UNL     1      35.772  12.495  20.804  1.00  0.00    -0.354 OA
ATOM     21  H5  UNL     1      35.496  13.340  20.468  1.00  0.00     0.214 HD
ENDBRANCH  19  20
BRANCH  19  22
HETATM   22  O6  UNL     1      35.417  12.948  23.031  1.00  0.00    -0.354 OA
ATOM     23  H6  UNL     1      35.327  12.247  23.664  1.00  0.00     0.214 HD
ENDBRANCH  19  22
ENDBRANCH  16  19
ENDBRANCH   5  13
BRANCH   4  24
HETATM   24  N4  UNL     1      37.248   8.166  23.452  1.00  0.00    -0.384 N 
ATOM     25  H42 UNL     1      37.523   7.577  24.239  1.00  0.00     0.157 HD
ATOM     26  H41 UNL     1      37.019   9.142  23.639  1.00  0.00     0.157 HD
ENDBRANCH   4  24
BRANCH   7  27
HETATM   27  N7  UNL     1      38.852   9.569  19.005  1.00  0.00    -0.397 N 
ATOM     28  H72 UNL     1      39.536   9.734  19.744  1.00  0.00     0.156 HD
ATOM     29  H71 UNL     1      38.654  10.376  18.414  1.00  0.00     0.156 HD
ENDBRANCH   7  27
BRANCH   1  30
HETATM   30  O3  UNL     1      36.119   4.612  20.543  1.00  0.00    -0.238 OA
BRANCH  30  31
HETATM   31  C3  UNL     1      36.327   3.510  21.354  1.00  0.00     0.339 C 
HETATM   32  O2  UNL     1      35.827   3.566  22.527  1.00  0.00    -0.255 OA
BRANCH  31  33
HETATM   33  C2  UNL     1      37.072   2.339  20.909  1.00  0.00     0.228 A 
HETATM   34  N1  UNL     1      38.094   2.049  20.129  1.00  0.00    -0.214 N 
HETATM   35  C1  UNL     1      39.018   2.825  19.326  1.00  0.00     0.190 C 
HETATM   36  O1  UNL     1      37.931   0.767  20.399  1.00  0.00    -0.151 OA
HETATM   37  N2  UNL     1      36.938   1.025  21.159  1.00  0.00    -0.218 N 
ATOM     38  H2  UNL     1      36.301   0.463  21.725  1.00  0.00     0.198 HD
ENDBRANCH  31  33
ENDBRANCH  30  31
ENDBRANCH   1  30
BRANCH   9  39
HETATM   39  C13 UNL     1      37.651   5.989  16.148  1.00  0.00     0.306 C 
BRANCH  39  40
HETATM   40  O7  UNL     1      37.846   4.632  16.174  1.00  0.00    -0.366 OA
ATOM     41  H7  UNL     1      37.346   4.165  15.515  1.00  0.00     0.213 HD
ENDBRANCH  39  40
BRANCH  39  42
HETATM   42  O8  UNL     1      36.396   6.276  15.596  1.00  0.00    -0.366 OA
ATOM     43  H8  UNL     1      36.163   7.157  15.864  1.00  0.00     0.213 HD
ENDBRANCH  39  42
ENDBRANCH   9  39
TORSDOF 12
ENDMDL
MODEL 5
REMARK VINA RESULT: -6.548612547      5.479      7.725
REMARK  12 active torsions:
REMARK  status: ('A' for Active; 'I' for Inactive)
REMARK    1  A    between atoms: C2_6  and  C3_7 
REMARK    2  A    between atoms: C3_7  and  O3_9 
REMARK    3  A    between atoms: O3_9  and  C4_10 
REMARK    4  A    between atoms: C5_13  and  N4_14 
REMARK    5  A    between atoms: C6_17  and  C7_18 
REMARK       I    between atoms: C7_18  and  N5_20 
REMARK    6  A    between atoms: N6_22  and  C8_24 
REMARK    7  A    between atoms: C8_24  and  O5_25 
REMARK    8  A    between atoms: C8_24  and  O6_27 
REMARK    9  A    between atoms: C10_30  and  N7_31 
REMARK   10  A    between atoms: C12_35  and  C13_36 
REMARK   11  A    between atoms: C13_36  and  O7_37 
REMARK   12  A    between atoms: C13_36  and  O8_39 
ROOT
HETATM    1  C4  UNL     1      40.594   2.457  11.794  1.00  0.00     0.255 A 
HETATM    2  N3  UNL     1      40.772   1.133  11.784  1.00  0.00    -0.306 N 
ATOM      3  H3  UNL     1      41.666   0.780  11.444  1.00  0.00     0.171 HD
HETATM    4  C5  UNL     1      39.881   0.252  12.178  1.00  0.00     0.120 A 
HETATM    5  C6  UNL     1      38.645   0.725  12.645  1.00  0.00     0.108 A 
HETATM    6  C9  UNL     1      38.421   2.101  12.672  1.00  0.00     0.106 A 
HETATM    7  C10 UNL     1      37.185   2.559  13.137  1.00  0.00     0.058 A 
HETATM    8  C11 UNL     1      37.027   3.968  13.126  1.00  0.00     0.063 A 
HETATM    9  C12 UNL     1      38.034   4.763  12.688  1.00  0.00     0.083 A 
HETATM   10  N8  UNL     1      39.189   4.228  12.262  1.00  0.00    -0.290 N 
ATOM     11  H8  UNL     1      39.933   4.845  11.938  1.00  0.00     0.187 HD
HETATM   12  N9  UNL     1      39.383   2.921  12.252  1.00  0.00    -0.215 N 
ENDROOT
BRANCH   5  13
HETATM   13  C7  UNL     1      37.683  -0.255  13.054  1.00  0.00     0.276 C 
HETATM   14  O4  UNL     1      37.695  -0.696  14.227  1.00  0.00    -0.266 OA
HETATM   15  N5  UNL     1      36.713  -0.736  12.135  1.00  0.00    -0.266 N 
HETATM   16  N6  UNL     1      36.684  -1.931  11.698  1.00  0.00    -0.282 N 
ATOM     17  H5  UNL     1      35.999  -0.086  11.805  1.00  0.00     0.190 HD
ATOM     18  H6  UNL     1      37.371  -2.626  11.992  1.00  0.00     0.185 HD
BRANCH  16  19
HETATM   19  C8  UNL     1      35.625  -2.257  10.763  1.00  0.00     0.380 C 
BRANCH  19  20
HETATM   20  O5  UNL     1      35.215  -3.553  10.972  1.00  0.00    -0.354 OA
ATOM     21  H5  UNL     1      34.421  -3.716  10.476  1.00  0.00     0.214 HD
ENDBRANCH  19  20
BRANCH  19  22
HETATM   22  O6  UNL     1      34.591  -1.347  10.793  1.00  0.00    -0.354 OA
ATOM     23  H6  UNL     1      33.752  -1.738  10.581  1.00  0.00     0.214 HD
ENDBRANCH  19  22
ENDBRANCH  16  19
ENDBRANCH   5  13
BRANCH   4  24
HETATM   24  N4  UNL     1      40.053  -1.033  12.167  1.00  0.00    -0.384 N 
ATOM     25  H42 UNL     1      41.007  -1.371  12.040  1.00  0.00     0.157 HD
ATOM     26  H41 UNL     1      39.309  -1.723  12.276  1.00  0.00     0.157 HD
ENDBRANCH   4  24
BRANCH   7  27
HETATM   27  N7  UNL     1      36.297   1.850  13.545  1.00  0.00    -0.397 N 
ATOM     28  H72 UNL     1      36.245   0.873  13.256  1.00  0.00     0.156 HD
ATOM     29  H71 UNL     1      35.550   2.155  14.168  1.00  0.00     0.156 HD
ENDBRANCH   7  27
BRANCH   1  30
HETATM   30  O3  UNL     1      41.526   3.392  11.378  1.00  0.00    -0.238 OA
BRANCH  30  31
HETATM   31  C3  UNL     1      41.844   3.581  10.046  1.00  0.00     0.339 C 
HETATM   32  O2  UNL     1      42.698   2.773   9.546  1.00  0.00    -0.255 OA
BRANCH  31  33
HETATM   33  C2  UNL     1      41.247   4.637   9.239  1.00  0.00     0.228 A 
HETATM   34  N1  UNL     1      41.384   5.170   8.041  1.00  0.00    -0.214 N 
HETATM   35  C1  UNL     1      42.234   4.906   6.897  1.00  0.00     0.190 C 
HETATM   36  O1  UNL     1      40.419   6.027   8.317  1.00  0.00    -0.151 OA
HETATM   37  N2  UNL     1      40.270   5.527   9.482  1.00  0.00    -0.218 N 
ATOM     38  H2  UNL     1      39.658   5.722  10.275  1.00  0.00     0.198 HD
ENDBRANCH  31  33
ENDBRANCH  30  31
ENDBRANCH   1  30
BRANCH   9  39
HETATM   39  C13 UNL     1      37.826   6.249  12.688  1.00  0.00     0.306 C 
BRANCH  39  40
HETATM   40  O7  UNL     1      38.132   6.844  11.491  1.00  0.00    -0.366 OA
ATOM     41  H7  UNL     1      38.331   7.770  11.568  1.00  0.00     0.213 HD
ENDBRANCH  39  40
BRANCH  39  42
HETATM   42  O8  UNL     1      36.481   6.482  13.001  1.00  0.00    -0.366 OA
ATOM     43  H8  UNL     1      36.109   6.989  12.289  1.00  0.00     0.213 HD
ENDBRANCH  39  42
ENDBRANCH   9  39
TORSDOF 12
ENDMDL
