MODEL 1
REMARK VINA RESULT: -8.320225180      0.000      0.000
REMARK  12 active torsions:
REMARK  status: ('A' for Active; 'I' for Inactive)
REMARK    1  A    between atoms: N1_1  and  C1_4 
REMARK    2  A    between atoms: N5_11  and  C2_12 
REMARK    3  A    between atoms: C3_14  and  C4_15 
REMARK    4  A    between atoms: C4_15  and  C5_17 
REMARK    5  A    between atoms: C5_17  and  O3_18 
REMARK    6  A    between atoms: C5_17  and  O4_20 
REMARK    7  A    between atoms: C5_17  and  C6_22 
REMARK    8  A    between atoms: C6_22  and  O5_23 
REMARK    9  A    between atoms: C6_22  and  C7_25 
REMARK   10  A    between atoms: C8_28  and  C9_29 
REMARK   11  A    between atoms: C12_43  and  O7_44 
REMARK   12  A    between atoms: C13_46  and  O8_47 
ROOT
HETATM    1  C5  UNL     1      37.661   6.372  17.194  1.00  0.00     0.285 C 
ENDROOT
BRANCH   1   2
HETATM    2  C4  UNL     1      37.230   6.715  15.800  1.00  0.00     0.254 C 
HETATM    3  O2  UNL     1      36.958   7.902  15.492  1.00  0.00    -0.284 OA
BRANCH   2   4
HETATM    4  C3  UNL     1      37.110   5.702  14.760  1.00  0.00     0.166 A 
HETATM    5  O1  UNL     1      37.758   4.539  14.727  1.00  0.00    -0.282 OA
HETATM    6  C2  UNL     1      37.459   3.836  13.687  1.00  0.00     0.225 A 
HETATM    7  C13 UNL     1      36.530   4.591  12.959  1.00  0.00     0.156 A 
HETATM    8  C12 UNL     1      36.315   5.763  13.640  1.00  0.00     0.141 A 
BRANCH   6   9
HETATM    9  N5  UNL     1      37.960   2.551  13.332  1.00  0.00    -0.043 N 
HETATM   10  C1  UNL     1      37.254   1.435  13.046  1.00  0.00     0.716 A 
HETATM   11  N2  UNL     1      38.095   0.418  12.756  1.00  0.00    -0.115 N 
HETATM   12  N3  UNL     1      39.318   0.912  12.864  1.00  0.00    -0.213 N 
ATOM     13  H2  UNL     1      37.839  -0.536  12.505  1.00  0.00     0.207 HD
HETATM   14  N4  UNL     1      39.243   2.183  13.208  1.00  0.00    -0.204 N 
ATOM     15  H3  UNL     1      40.182   0.392  12.706  1.00  0.00     0.210 HD
ATOM     16  H4  UNL     1      40.045   2.796  13.356  1.00  0.00     0.211 HD
BRANCH  10  17
HETATM   17  N1  UNL     1      35.949   1.395  13.061  1.00  0.00    -0.231 N 
ATOM     18  H12 UNL     1      35.364   2.107  12.624  1.00  0.00     0.174 HD
ATOM     19  H11 UNL     1      35.362   0.680  13.493  1.00  0.00     0.174 HD
ENDBRANCH  10  17
ENDBRANCH   6   9
BRANCH   7  20
HETATM   20  O8  UNL     1      35.968   4.178  11.779  1.00  0.00    -0.354 OA
ATOM     21  H8  UNL     1      36.157   3.343  11.367  1.00  0.00     0.218 HD
ENDBRANCH   7  20
BRANCH   8  22
HETATM   22  O7  UNL     1      35.456   6.765  13.226  1.00  0.00    -0.355 OA
ATOM     23  H7  UNL     1      35.381   7.661  13.534  1.00  0.00     0.218 HD
ENDBRANCH   8  22
ENDBRANCH   2   4
ENDBRANCH   1   2
BRANCH   1  24
HETATM   24  O3  UNL     1      38.840   7.022  17.416  1.00  0.00    -0.354 OA
ATOM     25  H3  UNL     1      38.945   7.092  18.358  1.00  0.00     0.214 HD
ENDBRANCH   1  24
BRANCH   1  26
HETATM   26  O4  UNL     1      37.984   4.993  17.249  1.00  0.00    -0.354 OA
ATOM     27  H4  UNL     1      37.373   4.557  17.833  1.00  0.00     0.214 HD
ENDBRANCH   1  26
BRANCH   1  28
HETATM   28  C6  UNL     1      36.645   6.609  18.177  1.00  0.00     0.158 C 
BRANCH  28  29
HETATM   29  O5  UNL     1      35.737   7.504  17.854  1.00  0.00    -0.356 OA
ATOM     30  H5  UNL     1      35.306   7.935  18.583  1.00  0.00     0.217 HD
ENDBRANCH  28  29
BRANCH  28  31
HETATM   31  C7  UNL     1      36.483   6.002  19.472  1.00  0.00     0.144 A 
HETATM   32  N6  UNL     1      36.780   4.657  19.611  1.00  0.00    -0.337 N 
HETATM   33  C8  UNL     1      36.674   3.979  20.748  1.00  0.00     0.086 A 
ATOM     34  H6  UNL     1      37.102   4.153  18.784  1.00  0.00     0.167 HD
HETATM   35  C10 UNL     1      36.240   4.641  21.874  1.00  0.00     0.108 A 
HETATM   36  C11 UNL     1      35.934   5.972  21.790  1.00  0.00     0.249 A 
HETATM   37  O6  UNL     1      35.533   6.636  22.781  1.00  0.00    -0.268 OA
HETATM   38  N11 UNL     1      36.068   6.611  20.579  1.00  0.00    -0.307 N 
ATOM     39  H11 UNL     1      35.837   7.604  20.527  1.00  0.00     0.170 HD
BRANCH  33  40
HETATM   40  C9  UNL     1      37.010   2.541  20.816  1.00  0.00     0.164 A 
HETATM   41  N7  UNL     1      38.052   1.968  20.208  1.00  0.00    -0.267 N 
HETATM   42  N8  UNL     1      37.999   0.681  20.517  1.00  0.00    -0.227 N 
ATOM     43  H7  UNL     1      38.749   2.429  19.622  1.00  0.00     0.190 HD
HETATM   44  N9  UNL     1      36.977   0.419  21.288  1.00  0.00    -0.227 N 
ATOM     45  H8  UNL     1      38.670  -0.016  20.195  1.00  0.00     0.210 HD
HETATM   46  N10 UNL     1      36.352   1.585  21.480  1.00  0.00    -0.267 N 
ATOM     47  H9  UNL     1      36.711  -0.490  21.667  1.00  0.00     0.210 HD
ATOM     48  H10 UNL     1      35.511   1.722  22.040  1.00  0.00     0.190 HD
ENDBRANCH  33  40
ENDBRANCH  28  31
ENDBRANCH   1  28
TORSDOF 12
ENDMDL
MODEL 2
REMARK VINA RESULT: -8.267463728      2.115      3.417
REMARK  12 active torsions:
REMARK  status: ('A' for Active; 'I' for Inactive)
REMARK    1  A    between atoms: N1_1  and  C1_4 
REMARK    2  A    between atoms: N5_11  and  C2_12 
REMARK    3  A    between atoms: C3_14  and  C4_15 
REMARK    4  A    between atoms: C4_15  and  C5_17 
REMARK    5  A    between atoms: C5_17  and  O3_18 
REMARK    6  A    between atoms: C5_17  and  O4_20 
REMARK    7  A    between atoms: C5_17  and  C6_22 
REMARK    8  A    between atoms: C6_22  and  O5_23 
REMARK    9  A    between atoms: C6_22  and  C7_25 
REMARK   10  A    between atoms: C8_28  and  C9_29 
REMARK   11  A    between atoms: C12_43  and  O7_44 
REMARK   12  A    between atoms: C13_46  and  O8_47 
ROOT
HETATM    1  C5  UNL     1      38.806   5.563  16.651  1.00  0.00     0.285 C 
ENDROOT
BRANCH   1   2
HETATM    2  C4  UNL     1      38.953   5.646  15.162  1.00  0.00     0.254 C 
HETATM    3  O2  UNL     1      39.760   6.461  14.647  1.00  0.00    -0.284 OA
BRANCH   2   4
HETATM    4  C3  UNL     1      38.181   4.800  14.262  1.00  0.00     0.166 A 
HETATM    5  O1  UNL     1      38.085   3.474  14.333  1.00  0.00    -0.282 OA
HETATM    6  C2  UNL     1      37.332   2.983  13.406  1.00  0.00     0.225 A 
HETATM    7  C13 UNL     1      36.885   4.074  12.647  1.00  0.00     0.156 A 
HETATM    8  C12 UNL     1      37.423   5.212  13.192  1.00  0.00     0.141 A 
BRANCH   6   9
HETATM    9  N5  UNL     1      37.008   1.614  13.182  1.00  0.00    -0.043 N 
HETATM   10  C1  UNL     1      37.743   0.526  13.497  1.00  0.00     0.716 A 
HETATM   11  N2  UNL     1      37.090  -0.596  13.122  1.00  0.00    -0.115 N 
HETATM   12  N3  UNL     1      35.953  -0.194  12.578  1.00  0.00    -0.213 N 
ATOM     13  H2  UNL     1      37.409  -1.558  13.236  1.00  0.00     0.207 HD
HETATM   14  N4  UNL     1      35.899   1.123  12.611  1.00  0.00    -0.204 N 
ATOM     15  H3  UNL     1      35.232  -0.806  12.194  1.00  0.00     0.210 HD
ATOM     16  H4  UNL     1      35.126   1.685  12.254  1.00  0.00     0.211 HD
BRANCH  10  17
HETATM   17  N1  UNL     1      38.910   0.598  14.078  1.00  0.00    -0.231 N 
ATOM     18  H12 UNL     1      39.026   0.666  15.089  1.00  0.00     0.174 HD
ATOM     19  H11 UNL     1      39.823   0.596  13.622  1.00  0.00     0.174 HD
ENDBRANCH  10  17
ENDBRANCH   6   9
BRANCH   7  20
HETATM   20  O8  UNL     1      36.056   3.960  11.562  1.00  0.00    -0.354 OA
ATOM     21  H8  UNL     1      36.133   3.276  10.907  1.00  0.00     0.218 HD
ENDBRANCH   7  20
BRANCH   8  22
HETATM   22  O7  UNL     1      37.206   6.491  12.710  1.00  0.00    -0.355 OA
ATOM     23  H7  UNL     1      36.422   6.865  12.324  1.00  0.00     0.218 HD
ENDBRANCH   8  22
ENDBRANCH   2   4
ENDBRANCH   1   2
BRANCH   1  24
HETATM   24  O3  UNL     1      37.475   5.408  16.910  1.00  0.00    -0.354 OA
ATOM     25  H3  UNL     1      37.263   5.994  17.627  1.00  0.00     0.214 HD
ENDBRANCH   1  24
BRANCH   1  26
HETATM   26  O4  UNL     1      39.147   6.818  17.216  1.00  0.00    -0.354 OA
ATOM     27  H4  UNL     1      39.874   6.697  17.817  1.00  0.00     0.214 HD
ENDBRANCH   1  26
BRANCH   1  28
HETATM   28  C6  UNL     1      39.658   4.581  17.252  1.00  0.00     0.158 C 
BRANCH  28  29
HETATM   29  O5  UNL     1      40.927   4.641  16.910  1.00  0.00    -0.356 OA
ATOM     30  H5  UNL     1      41.485   3.966  17.278  1.00  0.00     0.217 HD
ENDBRANCH  28  29
BRANCH  28  31
HETATM   31  C7  UNL     1      39.317   3.535  18.179  1.00  0.00     0.144 A 
HETATM   32  N6  UNL     1      38.387   3.809  19.168  1.00  0.00    -0.337 N 
HETATM   33  C8  UNL     1      37.986   2.935  20.084  1.00  0.00     0.086 A 
ATOM     34  H6  UNL     1      37.985   4.746  19.196  1.00  0.00     0.167 HD
HETATM   35  C10 UNL     1      38.518   1.665  20.064  1.00  0.00     0.108 A 
HETATM   36  C11 UNL     1      39.441   1.343  19.106  1.00  0.00     0.249 A 
HETATM   37  O6  UNL     1      39.966   0.203  19.031  1.00  0.00    -0.268 OA
HETATM   38  N11 UNL     1      39.811   2.300  18.188  1.00  0.00    -0.307 N 
ATOM     39  H11 UNL     1      40.499   2.050  17.479  1.00  0.00     0.170 HD
BRANCH  33  40
HETATM   40  C9  UNL     1      36.987   3.304  21.110  1.00  0.00     0.164 A 
HETATM   41  N7  UNL     1      36.292   2.436  21.850  1.00  0.00    -0.267 N 
HETATM   42  N8  UNL     1      35.515   3.163  22.639  1.00  0.00    -0.227 N 
ATOM     43  H7  UNL     1      36.348   1.418  21.814  1.00  0.00     0.190 HD
HETATM   44  N9  UNL     1      35.689   4.441  22.431  1.00  0.00    -0.227 N 
ATOM     45  H8  UNL     1      34.865   2.774  23.322  1.00  0.00     0.210 HD
HETATM   46  N10 UNL     1      36.614   4.536  21.471  1.00  0.00    -0.267 N 
ATOM     47  H9  UNL     1      35.215   5.210  22.905  1.00  0.00     0.210 HD
ATOM     48  H10 UNL     1      36.975   5.405  21.078  1.00  0.00     0.190 HD
ENDBRANCH  33  40
ENDBRANCH  28  31
ENDBRANCH   1  28
TORSDOF 12
ENDMDL
MODEL 3
REMARK VINA RESULT: -8.227913340      3.029      7.628
REMARK  12 active torsions:
REMARK  status: ('A' for Active; 'I' for Inactive)
REMARK    1  A    between atoms: N1_1  and  C1_4 
REMARK    2  A    between atoms: N5_11  and  C2_12 
REMARK    3  A    between atoms: C3_14  and  C4_15 
REMARK    4  A    between atoms: C4_15  and  C5_17 
REMARK    5  A    between atoms: C5_17  and  O3_18 
REMARK    6  A    between atoms: C5_17  and  O4_20 
REMARK    7  A    between atoms: C5_17  and  C6_22 
REMARK    8  A    between atoms: C6_22  and  O5_23 
REMARK    9  A    between atoms: C6_22  and  C7_25 
REMARK   10  A    between atoms: C8_28  and  C9_29 
REMARK   11  A    between atoms: C12_43  and  O7_44 
REMARK   12  A    between atoms: C13_46  and  O8_47 
ROOT
HETATM    1  C5  UNL     1      36.749   2.509  12.892  1.00  0.00     0.285 C 
ENDROOT
BRANCH   1   2
HETATM    2  C4  UNL     1      37.082   3.969  12.814  1.00  0.00     0.254 C 
HETATM    3  O2  UNL     1      37.403   4.489  11.716  1.00  0.00    -0.284 OA
BRANCH   2   4
HETATM    4  C3  UNL     1      37.047   4.831  13.987  1.00  0.00     0.166 A 
HETATM    5  O1  UNL     1      37.602   4.562  15.167  1.00  0.00    -0.282 OA
HETATM    6  C2  UNL     1      37.415   5.506  16.028  1.00  0.00     0.225 A 
HETATM    7  C13 UNL     1      36.671   6.494  15.368  1.00  0.00     0.156 A 
HETATM    8  C12 UNL     1      36.444   6.062  14.086  1.00  0.00     0.141 A 
BRANCH   6   9
HETATM    9  N5  UNL     1      37.866   5.554  17.378  1.00  0.00    -0.043 N 
HETATM   10  C1  UNL     1      38.785   4.763  17.974  1.00  0.00     0.716 A 
HETATM   11  N2  UNL     1      38.936   5.127  19.267  1.00  0.00    -0.115 N 
HETATM   12  N3  UNL     1      38.110   6.142  19.462  1.00  0.00    -0.213 N 
ATOM     13  H2  UNL     1      39.561   4.704  19.953  1.00  0.00     0.207 HD
HETATM   14  N4  UNL     1      37.469   6.401  18.339  1.00  0.00    -0.204 N 
ATOM     15  H3  UNL     1      37.988   6.645  20.341  1.00  0.00     0.210 HD
ATOM     16  H4  UNL     1      36.774   7.137  18.220  1.00  0.00     0.211 HD
BRANCH  10  17
HETATM   17  N1  UNL     1      39.408   3.800  17.351  1.00  0.00    -0.231 N 
ATOM     18  H12 UNL     1      40.108   3.208  17.799  1.00  0.00     0.174 HD
ATOM     19  H11 UNL     1      39.288   3.521  16.378  1.00  0.00     0.174 HD
ENDBRANCH  10  17
ENDBRANCH   6   9
BRANCH   7  20
HETATM   20  O8  UNL     1      36.271   7.666  15.955  1.00  0.00    -0.354 OA
ATOM     21  H8  UNL     1      36.295   8.511  15.521  1.00  0.00     0.218 HD
ENDBRANCH   7  20
BRANCH   8  22
HETATM   22  O7  UNL     1      35.740   6.775  13.132  1.00  0.00    -0.355 OA
ATOM     23  H7  UNL     1      34.801   6.867  13.019  1.00  0.00     0.218 HD
ENDBRANCH   8  22
ENDBRANCH   2   4
ENDBRANCH   1   2
BRANCH   1  24
HETATM   24  O3  UNL     1      36.253   2.149  11.674  1.00  0.00    -0.354 OA
ATOM     25  H3  UNL     1      36.153   2.948  11.169  1.00  0.00     0.214 HD
ENDBRANCH   1  24
BRANCH   1  26
HETATM   26  O4  UNL     1      35.672   2.332  13.796  1.00  0.00    -0.354 OA
ATOM     27  H4  UNL     1      34.916   2.015  13.316  1.00  0.00     0.214 HD
ENDBRANCH   1  26
BRANCH   1  28
HETATM   28  C6  UNL     1      37.836   1.704  13.365  1.00  0.00     0.158 C 
BRANCH  28  29
HETATM   29  O5  UNL     1      38.977   2.334  13.546  1.00  0.00    -0.356 OA
ATOM     30  H5  UNL     1      39.577   1.930  14.161  1.00  0.00     0.217 HD
ENDBRANCH  28  29
BRANCH  28  31
HETATM   31  C7  UNL     1      37.852   0.298  13.668  1.00  0.00     0.144 A 
HETATM   32  N6  UNL     1      37.033  -0.544  12.934  1.00  0.00    -0.337 N 
HETATM   33  C8  UNL     1      36.954  -1.858  13.113  1.00  0.00     0.086 A 
ATOM     34  H6  UNL     1      36.452  -0.127  12.207  1.00  0.00     0.167 HD
HETATM   35  C10 UNL     1      37.730  -2.440  14.089  1.00  0.00     0.108 A 
HETATM   36  C11 UNL     1      38.557  -1.652  14.844  1.00  0.00     0.249 A 
HETATM   37  O6  UNL     1      39.292  -2.119  15.751  1.00  0.00    -0.268 OA
HETATM   38  N11 UNL     1      38.588  -0.297  14.603  1.00  0.00    -0.307 N 
ATOM     39  H11 UNL     1      39.207   0.281  15.171  1.00  0.00     0.170 HD
BRANCH  33  40
HETATM   40  C9  UNL     1      36.054  -2.690  12.286  1.00  0.00     0.164 A 
HETATM   41  N7  UNL     1      35.259  -3.656  12.754  1.00  0.00    -0.267 N 
HETATM   42  N8  UNL     1      34.624  -4.153  11.703  1.00  0.00    -0.227 N 
ATOM     43  H7  UNL     1      35.162  -3.953  13.726  1.00  0.00     0.190 HD
HETATM   44  N9  UNL     1      34.979  -3.548  10.602  1.00  0.00    -0.227 N 
ATOM     45  H8  UNL     1      33.944  -4.912  11.749  1.00  0.00     0.210 HD
HETATM   46  N10 UNL     1      35.879  -2.626  10.963  1.00  0.00    -0.267 N 
ATOM     47  H9  UNL     1      34.640  -3.738   9.659  1.00  0.00     0.210 HD
ATOM     48  H10 UNL     1      36.352  -1.980  10.331  1.00  0.00     0.190 HD
ENDBRANCH  33  40
ENDBRANCH  28  31
ENDBRANCH   1  28
TORSDOF 12
ENDMDL
MODEL 4
REMARK VINA RESULT: -8.147872789      5.272      7.642
REMARK  12 active torsions:
REMARK  status: ('A' for Active; 'I' for Inactive)
REMARK    1  A    between atoms: N1_1  and  C1_4 
REMARK    2  A    between atoms: N5_11  and  C2_12 
REMARK    3  A    between atoms: C3_14  and  C4_15 
REMARK    4  A    between atoms: C4_15  and  C5_17 
REMARK    5  A    between atoms: C5_17  and  O3_18 
REMARK    6  A    between atoms: C5_17  and  O4_20 
REMARK    7  A    between atoms: C5_17  and  C6_22 
REMARK    8  A    between atoms: C6_22  and  O5_23 
REMARK    9  A    between atoms: C6_22  and  C7_25 
REMARK   10  A    between atoms: C8_28  and  C9_29 
REMARK   11  A    between atoms: C12_43  and  O7_44 
REMARK   12  A    between atoms: C13_46  and  O8_47 
ROOT
HETATM    1  C5  UNL     1      36.667   2.647  13.089  1.00  0.00     0.285 C 
ENDROOT
BRANCH   1   2
HETATM    2  C4  UNL     1      36.723   4.117  13.377  1.00  0.00     0.254 C 
HETATM    3  O2  UNL     1      36.009   4.615  14.283  1.00  0.00    -0.284 OA
BRANCH   2   4
HETATM    4  C3  UNL     1      37.594   5.016  12.632  1.00  0.00     0.166 A 
HETATM    5  O1  UNL     1      38.242   4.716  11.508  1.00  0.00    -0.282 OA
HETATM    6  C2  UNL     1      38.943   5.705  11.064  1.00  0.00     0.225 A 
HETATM    7  C13 UNL     1      38.750   6.759  11.967  1.00  0.00     0.156 A 
HETATM    8  C12 UNL     1      37.900   6.318  12.950  1.00  0.00     0.141 A 
BRANCH   6   9
HETATM    9  N5  UNL     1      39.756   5.739   9.894  1.00  0.00    -0.043 N 
HETATM   10  C1  UNL     1      40.794   4.932   9.581  1.00  0.00     0.716 A 
HETATM   11  N2  UNL     1      41.306   5.285   8.382  1.00  0.00    -0.115 N 
HETATM   12  N3  UNL     1      40.581   6.309   7.960  1.00  0.00    -0.213 N 
ATOM     13  H2  UNL     1      42.093   4.850   7.900  1.00  0.00     0.207 HD
HETATM   14  N4  UNL     1      39.656   6.583   8.858  1.00  0.00    -0.204 N 
ATOM     15  H3  UNL     1      40.717   6.806   7.079  1.00  0.00     0.210 HD
ATOM     16  H4  UNL     1      38.965   7.329   8.775  1.00  0.00     0.211 HD
BRANCH  10  17
HETATM   17  N1  UNL     1      41.205   3.966  10.357  1.00  0.00    -0.231 N 
ATOM     18  H12 UNL     1      42.144   3.571  10.305  1.00  0.00     0.174 HD
ATOM     19  H11 UNL     1      40.669   3.496  11.087  1.00  0.00     0.174 HD
ENDBRANCH  10  17
ENDBRANCH   6   9
BRANCH   7  20
HETATM   20  O8  UNL     1      39.333   7.992  11.838  1.00  0.00    -0.354 OA
ATOM     21  H8  UNL     1      39.456   8.598  12.559  1.00  0.00     0.218 HD
ENDBRANCH   7  20
BRANCH   8  22
HETATM   22  O7  UNL     1      37.475   7.083  14.021  1.00  0.00    -0.355 OA
ATOM     23  H7  UNL     1      37.842   7.886  14.372  1.00  0.00     0.218 HD
ENDBRANCH   8  22
ENDBRANCH   2   4
ENDBRANCH   1   2
BRANCH   1  24
HETATM   24  O3  UNL     1      36.580   2.511  11.735  1.00  0.00    -0.354 OA
ATOM     25  H3  UNL     1      36.012   3.205  11.423  1.00  0.00     0.214 HD
ENDBRANCH   1  24
BRANCH   1  26
HETATM   26  O4  UNL     1      35.447   2.128  13.591  1.00  0.00    -0.354 OA
ATOM     27  H4  UNL     1      34.828   2.842  13.695  1.00  0.00     0.214 HD
ENDBRANCH   1  26
BRANCH   1  28
HETATM   28  C6  UNL     1      37.728   1.907  13.706  1.00  0.00     0.158 C 
BRANCH  28  29
HETATM   29  O5  UNL     1      38.516   2.596  14.503  1.00  0.00    -0.356 OA
ATOM     30  H5  UNL     1      38.470   2.371  15.424  1.00  0.00     0.217 HD
ENDBRANCH  28  29
BRANCH  28  31
HETATM   31  C7  UNL     1      38.050   0.511  13.573  1.00  0.00     0.144 A 
HETATM   32  N6  UNL     1      37.124  -0.325  12.973  1.00  0.00    -0.337 N 
HETATM   33  C8  UNL     1      37.298  -1.629  12.789  1.00  0.00     0.086 A 
ATOM     34  H6  UNL     1      36.249   0.088  12.651  1.00  0.00     0.167 HD
HETATM   35  C10 UNL     1      38.472  -2.206  13.217  1.00  0.00     0.108 A 
HETATM   36  C11 UNL     1      39.422  -1.423  13.817  1.00  0.00     0.249 A 
HETATM   37  O6  UNL     1      40.516  -1.885  14.231  1.00  0.00    -0.268 OA
HETATM   38  N11 UNL     1      39.173  -0.078  13.975  1.00  0.00    -0.307 N 
ATOM     39  H11 UNL     1      39.887   0.496  14.422  1.00  0.00     0.170 HD
BRANCH  33  40
HETATM   40  C9  UNL     1      36.260  -2.456  12.139  1.00  0.00     0.164 A 
HETATM   41  N7  UNL     1      35.468  -3.328  12.771  1.00  0.00    -0.267 N 
HETATM   42  N8  UNL     1      34.685  -3.856  11.841  1.00  0.00    -0.227 N 
ATOM     43  H7  UNL     1      35.467  -3.543  13.768  1.00  0.00     0.190 HD
HETATM   44  N9  UNL     1      34.946  -3.360  10.661  1.00  0.00    -0.227 N 
ATOM     45  H8  UNL     1      33.971  -4.560  12.024  1.00  0.00     0.210 HD
HETATM   46  N10 UNL     1      35.935  -2.479  10.843  1.00  0.00    -0.267 N 
ATOM     47  H9  UNL     1      34.489  -3.597   9.781  1.00  0.00     0.210 HD
ATOM     48  H10 UNL     1      36.370  -1.916  10.112  1.00  0.00     0.190 HD
ENDBRANCH  33  40
ENDBRANCH  28  31
ENDBRANCH   1  28
TORSDOF 12
ENDMDL
MODEL 5
REMARK VINA RESULT: -8.057900671      5.766     10.410
REMARK  12 active torsions:
REMARK  status: ('A' for Active; 'I' for Inactive)
REMARK    1  A    between atoms: N1_1  and  C1_4 
REMARK    2  A    between atoms: N5_11  and  C2_12 
REMARK    3  A    between atoms: C3_14  and  C4_15 
REMARK    4  A    between atoms: C4_15  and  C5_17 
REMARK    5  A    between atoms: C5_17  and  O3_18 
REMARK    6  A    between atoms: C5_17  and  O4_20 
REMARK    7  A    between atoms: C5_17  and  C6_22 
REMARK    8  A    between atoms: C6_22  and  O5_23 
REMARK    9  A    between atoms: C6_22  and  C7_25 
REMARK   10  A    between atoms: C8_28  and  C9_29 
REMARK   11  A    between atoms: C12_43  and  O7_44 
REMARK   12  A    between atoms: C13_46  and  O8_47 
ROOT
HETATM    1  C5  UNL     1      39.808   5.346  10.943  1.00  0.00     0.285 C 
ENDROOT
BRANCH   1   2
HETATM    2  C4  UNL     1      39.680   4.620  12.248  1.00  0.00     0.254 C 
HETATM    3  O2  UNL     1      40.536   4.785  13.153  1.00  0.00    -0.284 OA
BRANCH   2   4
HETATM    4  C3  UNL     1      38.577   3.709  12.518  1.00  0.00     0.166 A 
HETATM    5  O1  UNL     1      38.642   2.379  12.491  1.00  0.00    -0.282 OA
HETATM    6  C2  UNL     1      37.511   1.823  12.771  1.00  0.00     0.225 A 
HETATM    7  C13 UNL     1      36.609   2.869  13.007  1.00  0.00     0.156 A 
HETATM    8  C12 UNL     1      37.287   4.052  12.846  1.00  0.00     0.141 A 
BRANCH   6   9
HETATM    9  N5  UNL     1      37.218   0.430  12.835  1.00  0.00    -0.043 N 
HETATM   10  C1  UNL     1      36.733  -0.360  11.852  1.00  0.00     0.716 A 
HETATM   11  N2  UNL     1      36.592  -1.625  12.306  1.00  0.00    -0.115 N 
HETATM   12  N3  UNL     1      36.992  -1.609  13.568  1.00  0.00    -0.213 N 
ATOM     13  H2  UNL     1      36.247  -2.430  11.783  1.00  0.00     0.207 HD
HETATM   14  N4  UNL     1      37.366  -0.386  13.888  1.00  0.00    -0.204 N 
ATOM     15  H3  UNL     1      37.008  -2.415  14.193  1.00  0.00     0.210 HD
ATOM     16  H4  UNL     1      37.716  -0.103  14.803  1.00  0.00     0.211 HD
BRANCH  10  17
HETATM   17  N1  UNL     1      36.456   0.079  10.655  1.00  0.00    -0.231 N 
ATOM     18  H12 UNL     1      35.813   0.852  10.480  1.00  0.00     0.174 HD
ATOM     19  H11 UNL     1      36.826  -0.272   9.771  1.00  0.00     0.174 HD
ENDBRANCH  10  17
ENDBRANCH   6   9
BRANCH   7  20
HETATM   20  O8  UNL     1      35.292   2.682  13.338  1.00  0.00    -0.354 OA
ATOM     21  H8  UNL     1      34.846   3.161  14.026  1.00  0.00     0.218 HD
ENDBRANCH   7  20
BRANCH   8  22
HETATM   22  O7  UNL     1      36.723   5.306  12.998  1.00  0.00    -0.355 OA
ATOM     23  H7  UNL     1      37.094   6.161  12.812  1.00  0.00     0.218 HD
ENDBRANCH   8  22
ENDBRANCH   2   4
ENDBRANCH   1   2
BRANCH   1  24
HETATM   24  O3  UNL     1      40.064   6.653  11.239  1.00  0.00    -0.354 OA
ATOM     25  H3  UNL     1      40.980   6.807  11.040  1.00  0.00     0.214 HD
ENDBRANCH   1  24
BRANCH   1  26
HETATM   26  O4  UNL     1      38.546   5.355  10.298  1.00  0.00    -0.354 OA
ATOM     27  H4  UNL     1      38.680   5.432   9.360  1.00  0.00     0.214 HD
ENDBRANCH   1  26
BRANCH   1  28
HETATM   28  C6  UNL     1      40.740   4.735  10.042  1.00  0.00     0.158 C 
BRANCH  28  29
HETATM   29  O5  UNL     1      41.331   3.646  10.485  1.00  0.00    -0.356 OA
ATOM     30  H5  UNL     1      41.528   3.633  11.413  1.00  0.00     0.217 HD
ENDBRANCH  28  29
BRANCH  28  31
HETATM   31  C7  UNL     1      41.120   5.151   8.718  1.00  0.00     0.144 A 
HETATM   32  N6  UNL     1      40.623   6.350   8.235  1.00  0.00    -0.337 N 
HETATM   33  C8  UNL     1      40.896   6.846   7.034  1.00  0.00     0.086 A 
ATOM     34  H6  UNL     1      40.005   6.887   8.843  1.00  0.00     0.167 HD
HETATM   35  C10 UNL     1      41.727   6.135   6.199  1.00  0.00     0.108 A 
HETATM   36  C11 UNL     1      42.246   4.943   6.628  1.00  0.00     0.249 A 
HETATM   37  O6  UNL     1      43.011   4.244   5.916  1.00  0.00    -0.268 OA
HETATM   38  N11 UNL     1      41.920   4.490   7.886  1.00  0.00    -0.307 N 
ATOM     39  H11 UNL     1      42.312   3.600   8.196  1.00  0.00     0.170 HD
BRANCH  33  40
HETATM   40  C9  UNL     1      40.325   8.135   6.590  1.00  0.00     0.164 A 
HETATM   41  N7  UNL     1      40.969   9.305   6.609  1.00  0.00    -0.267 N 
HETATM   42  N8  UNL     1      40.117  10.203   6.135  1.00  0.00    -0.227 N 
ATOM     43  H7  UNL     1      41.925   9.474   6.924  1.00  0.00     0.190 HD
HETATM   44  N9  UNL     1      38.974   9.655   5.821  1.00  0.00    -0.227 N 
ATOM     45  H8  UNL     1      40.328  11.195   6.029  1.00  0.00     0.210 HD
HETATM   46  N10 UNL     1      39.099   8.354   6.105  1.00  0.00    -0.267 N 
ATOM     47  H9  UNL     1      38.154  10.123   5.437  1.00  0.00     0.210 HD
ATOM     48  H10 UNL     1      38.377   7.646   5.972  1.00  0.00     0.190 HD
ENDBRANCH  33  40
ENDBRANCH  28  31
ENDBRANCH   1  28
TORSDOF 12
ENDMDL
