MODEL 1
REMARK VINA RESULT: -7.461379571      0.000      0.000
REMARK  7 active torsions:
REMARK  status: ('A' for Active; 'I' for Inactive)
REMARK    1  A    between atoms: N1_2  and  C2_4 
REMARK    2  A    between atoms: C3_7  and  C4_8 
REMARK    3  A    between atoms: C4_8  and  N3_9 
REMARK    4  A    between atoms: C6_11  and  C7_12 
REMARK    5  A    between atoms: C7_12  and  C8_13 
REMARK    6  A    between atoms: C9_18  and  N6_19 
REMARK    7  A    between atoms: C11_32  and  N12_33 
ROOT
HETATM    1  N3  UNL     1      40.288  -4.475  25.408  1.00  0.00    -0.280 N 
HETATM    2  C5  UNL     1      40.253  -3.466  24.520  1.00  0.00     0.139 A 
HETATM    3  C6  UNL     1      39.004  -3.445  23.973  1.00  0.00     0.050 A 
HETATM    4  N9  UNL     1      38.296  -4.451  24.545  1.00  0.00    -0.289 N 
ATOM      5  H9  UNL     1      37.326  -4.701  24.351  1.00  0.00     0.188 HD
HETATM    6  N10 UNL     1      39.106  -5.042  25.399  1.00  0.00    -0.240 N 
ATOM      7  H10 UNL     1      38.847  -5.839  25.981  1.00  0.00     0.208 HD
ENDROOT
BRANCH   1   8
HETATM    8  C4  UNL     1      41.411  -4.854  26.211  1.00  0.00     0.227 C 
BRANCH   8   9
HETATM    9  C3  UNL     1      41.054  -5.187  27.613  1.00  0.00     0.133 A 
HETATM   10  N2  UNL     1      40.065  -6.044  27.908  1.00  0.00    -0.178 N 
HETATM   11  C2  UNL     1      39.725  -6.360  29.173  1.00  0.00     0.693 A 
ATOM     12  H2  UNL     1      39.549  -6.476  27.142  1.00  0.00     0.185 HD
HETATM   13  N13 UNL     1      40.413  -5.782  30.193  1.00  0.00    -0.023 N 
HETATM   14  C11 UNL     1      41.403  -4.924  29.915  1.00  0.00     0.691 A 
ATOM     15  H13 UNL     1      40.177  -6.000  31.161  1.00  0.00     0.203 HD
HETATM   16  N11 UNL     1      41.721  -4.628  28.635  1.00  0.00    -0.178 N 
ATOM     17  H11 UNL     1      42.478  -3.972  28.442  1.00  0.00     0.185 HD
BRANCH  11  18
HETATM   18  N1  UNL     1      38.775  -7.187  29.465  1.00  0.00    -0.230 N 
HETATM   19  C1  UNL     1      39.168  -8.529  29.857  1.00  0.00     0.165 C 
ATOM     20  H1  UNL     1      37.793  -6.910  29.422  1.00  0.00     0.177 HD
ENDBRANCH  11  18
BRANCH  14  21
HETATM   21  N12 UNL     1      42.065  -4.367  30.853  1.00  0.00    -0.234 N 
ATOM     22 2H12 UNL     1      41.586  -3.917  31.633  1.00  0.00     0.174 HD
ATOM     23 1H12 UNL     1      43.084  -4.382  30.807  1.00  0.00     0.174 HD
ENDBRANCH  14  21
ENDBRANCH   8   9
ENDBRANCH   1   8
BRANCH   3  24
HETATM   24  C7  UNL     1      38.418  -2.558  22.948  1.00  0.00     0.122 C 
BRANCH  24  25
HETATM   25  C8  UNL     1      37.730  -1.369  23.514  1.00  0.00     0.073 A 
HETATM   26  N4  UNL     1      38.462  -0.379  24.099  1.00  0.00    -0.287 N 
HETATM   27  N5  UNL     1      37.877   0.682  24.614  1.00  0.00    -0.132 N 
ATOM     28  H4  UNL     1      39.478  -0.462  24.140  1.00  0.00     0.187 HD
HETATM   29  C9  UNL     1      36.550   0.874  24.606  1.00  0.00     0.691 A 
ATOM     30  H5  UNL     1      38.465   1.397  25.041  1.00  0.00     0.205 HD
HETATM   31  N7  UNL     1      35.797  -0.080  24.037  1.00  0.00    -0.176 N 
HETATM   32  C10 UNL     1      36.369  -1.183  23.499  1.00  0.00     0.156 A 
ATOM     33  H7  UNL     1      34.782   0.028  24.010  1.00  0.00     0.185 HD
HETATM   34  N8  UNL     1      35.528  -2.150  22.910  1.00  0.00    -0.080 NA
BRANCH  29  35
HETATM   35  N6  UNL     1      36.057   1.936  25.128  1.00  0.00    -0.233 N 
ATOM     36  H62 UNL     1      35.135   2.298  24.887  1.00  0.00     0.174 HD
ATOM     37  H61 UNL     1      36.597   2.459  25.817  1.00  0.00     0.174 HD
ENDBRANCH  29  35
ENDBRANCH  24  25
ENDBRANCH   3  24
TORSDOF 7
ENDMDL
MODEL 2
REMARK VINA RESULT: -7.398323959      7.222     13.008
REMARK  7 active torsions:
REMARK  status: ('A' for Active; 'I' for Inactive)
REMARK    1  A    between atoms: N1_2  and  C2_4 
REMARK    2  A    between atoms: C3_7  and  C4_8 
REMARK    3  A    between atoms: C4_8  and  N3_9 
REMARK    4  A    between atoms: C6_11  and  C7_12 
REMARK    5  A    between atoms: C7_12  and  C8_13 
REMARK    6  A    between atoms: C9_18  and  N6_19 
REMARK    7  A    between atoms: C11_32  and  N12_33 
ROOT
HETATM    1  N3  UNL     1      35.026   8.145  25.223  1.00  0.00    -0.280 N 
HETATM    2  C5  UNL     1      35.296   7.431  24.116  1.00  0.00     0.139 A 
HETATM    3  C6  UNL     1      34.798   6.177  24.307  1.00  0.00     0.050 A 
HETATM    4  N9  UNL     1      34.230   6.151  25.538  1.00  0.00    -0.289 N 
ATOM      5  H9  UNL     1      33.768   5.355  25.980  1.00  0.00     0.188 HD
HETATM    6  N10 UNL     1      34.390   7.353  26.051  1.00  0.00    -0.240 N 
ATOM      7  H10 UNL     1      34.060   7.633  26.975  1.00  0.00     0.208 HD
ENDROOT
BRANCH   1   8
HETATM    8  C4  UNL     1      35.372   9.516  25.449  1.00  0.00     0.227 C 
BRANCH   8   9
HETATM    9  C3  UNL     1      34.826  10.066  26.715  1.00  0.00     0.133 A 
HETATM   10  N2  UNL     1      35.505   9.993  27.870  1.00  0.00    -0.178 N 
HETATM   11  C2  UNL     1      35.028  10.485  29.030  1.00  0.00     0.693 A 
ATOM     12  H2  UNL     1      36.421   9.545  27.871  1.00  0.00     0.185 HD
HETATM   13  N13 UNL     1      33.806  11.081  29.028  1.00  0.00    -0.023 N 
HETATM   14  C11 UNL     1      33.116  11.162  27.883  1.00  0.00     0.691 A 
ATOM     15  H13 UNL     1      33.417  11.462  29.891  1.00  0.00     0.203 HD
HETATM   16  N11 UNL     1      33.623  10.659  26.735  1.00  0.00    -0.178 N 
ATOM     17  H11 UNL     1      33.083  10.730  25.872  1.00  0.00     0.185 HD
BRANCH  11  18
HETATM   18  N1  UNL     1      35.677  10.420  30.147  1.00  0.00    -0.230 N 
HETATM   19  C1  UNL     1      34.996   9.797  31.268  1.00  0.00     0.165 C 
ATOM     20  H1  UNL     1      36.624  10.790  30.236  1.00  0.00     0.177 HD
ENDBRANCH  11  18
BRANCH  14  21
HETATM   21  N12 UNL     1      31.966  11.716  27.852  1.00  0.00    -0.234 N 
ATOM     22 2H12 UNL     1      31.148  11.200  27.529  1.00  0.00     0.174 HD
ATOM     23 1H12 UNL     1      31.883  12.685  28.157  1.00  0.00     0.174 HD
ENDBRANCH  14  21
ENDBRANCH   8   9
ENDBRANCH   1   8
BRANCH   3  24
HETATM   24  C7  UNL     1      34.818   4.991  23.427  1.00  0.00     0.122 C 
BRANCH  24  25
HETATM   25  C8  UNL     1      35.902   4.028  23.749  1.00  0.00     0.073 A 
HETATM   26  N4  UNL     1      37.100   4.120  23.105  1.00  0.00    -0.287 N 
HETATM   27  N5  UNL     1      38.076   3.276  23.366  1.00  0.00    -0.132 N 
ATOM     28  H4  UNL     1      37.243   4.854  22.410  1.00  0.00     0.187 HD
HETATM   29  C9  UNL     1      37.977   2.282  24.261  1.00  0.00     0.691 A 
ATOM     30  H5  UNL     1      38.955   3.383  22.860  1.00  0.00     0.205 HD
HETATM   31  N7  UNL     1      36.812   2.162  24.916  1.00  0.00    -0.176 N 
HETATM   32  C10 UNL     1      35.789   3.015  24.669  1.00  0.00     0.156 A 
ATOM     33  H7  UNL     1      36.696   1.419  25.606  1.00  0.00     0.185 HD
HETATM   34  N8  UNL     1      34.589   2.844  25.390  1.00  0.00    -0.080 NA
BRANCH  29  35
HETATM   35  N6  UNL     1      38.974   1.502  24.459  1.00  0.00    -0.233 N 
ATOM     36  H62 UNL     1      39.944   1.808  24.382  1.00  0.00     0.174 HD
ATOM     37  H61 UNL     1      38.812   0.525  24.704  1.00  0.00     0.174 HD
ENDBRANCH  29  35
ENDBRANCH  24  25
ENDBRANCH   3  24
TORSDOF 7
ENDMDL
MODEL 3
REMARK VINA RESULT: -7.393749948      5.853      9.919
REMARK  7 active torsions:
REMARK  status: ('A' for Active; 'I' for Inactive)
REMARK    1  A    between atoms: N1_2  and  C2_4 
REMARK    2  A    between atoms: C3_7  and  C4_8 
REMARK    3  A    between atoms: C4_8  and  N3_9 
REMARK    4  A    between atoms: C6_11  and  C7_12 
REMARK    5  A    between atoms: C7_12  and  C8_13 
REMARK    6  A    between atoms: C9_18  and  N6_19 
REMARK    7  A    between atoms: C11_32  and  N12_33 
ROOT
HETATM    1  N3  UNL     1      35.292   4.072  23.953  1.00  0.00    -0.280 N 
HETATM    2  C5  UNL     1      34.806   5.313  24.134  1.00  0.00     0.139 A 
HETATM    3  C6  UNL     1      35.155   6.052  23.043  1.00  0.00     0.050 A 
HETATM    4  N9  UNL     1      35.852   5.239  22.211  1.00  0.00    -0.289 N 
ATOM      5  H9  UNL     1      36.253   5.491  21.307  1.00  0.00     0.188 HD
HETATM    6  N10 UNL     1      35.909   4.061  22.797  1.00  0.00    -0.240 N 
ATOM      7  H10 UNL     1      36.375   3.244  22.401  1.00  0.00     0.208 HD
ENDROOT
BRANCH   1   8
HETATM    8  C4  UNL     1      35.155   2.972  24.858  1.00  0.00     0.227 C 
BRANCH   8   9
HETATM    9  C3  UNL     1      36.077   1.845  24.567  1.00  0.00     0.133 A 
HETATM   10  N2  UNL     1      37.394   1.926  24.808  1.00  0.00    -0.178 N 
HETATM   11  C2  UNL     1      38.248   0.916  24.552  1.00  0.00     0.693 A 
ATOM     12  H2  UNL     1      37.766   2.790  25.203  1.00  0.00     0.185 HD
HETATM   13  N13 UNL     1      37.751  -0.234  24.025  1.00  0.00    -0.023 N 
HETATM   14  C11 UNL     1      36.438  -0.332  23.778  1.00  0.00     0.691 A 
ATOM     15  H13 UNL     1      38.373  -1.016  23.818  1.00  0.00     0.203 HD
HETATM   16  N11 UNL     1      35.607   0.700  24.048  1.00  0.00    -0.178 N 
ATOM     17  H11 UNL     1      34.610   0.608  23.853  1.00  0.00     0.185 HD
BRANCH  11  18
HETATM   18  N1  UNL     1      39.518   0.986  24.783  1.00  0.00    -0.230 N 
HETATM   19  C1  UNL     1      40.101   2.314  24.856  1.00  0.00     0.165 C 
ATOM     20  H1  UNL     1      40.085   0.147  24.909  1.00  0.00     0.177 HD
ENDBRANCH  11  18
BRANCH  14  21
HETATM   21  N12 UNL     1      35.945  -1.400  23.283  1.00  0.00    -0.234 N 
ATOM     22 2H12 UNL     1      35.403  -2.041  23.863  1.00  0.00     0.174 HD
ATOM     23 1H12 UNL     1      36.106  -1.601  22.297  1.00  0.00     0.174 HD
ENDBRANCH  14  21
ENDBRANCH   8   9
ENDBRANCH   1   8
BRANCH   3  24
HETATM   24  C7  UNL     1      34.891   7.468  22.719  1.00  0.00     0.122 C 
BRANCH  24  25
HETATM   25  C8  UNL     1      34.638   8.316  23.912  1.00  0.00     0.073 A 
HETATM   26  N4  UNL     1      33.356   8.560  24.307  1.00  0.00    -0.287 N 
HETATM   27  N5  UNL     1      33.102   9.313  25.357  1.00  0.00    -0.132 N 
ATOM     28  H4  UNL     1      32.582   8.155  23.780  1.00  0.00     0.187 HD
HETATM   29  C9  UNL     1      34.056   9.887  26.105  1.00  0.00     0.691 A 
ATOM     30  H5  UNL     1      32.128   9.468  25.615  1.00  0.00     0.205 HD
HETATM   31  N7  UNL     1      35.330   9.667  25.747  1.00  0.00    -0.176 N 
HETATM   32  C10 UNL     1      35.624   8.898  24.672  1.00  0.00     0.156 A 
ATOM     33  H7  UNL     1      36.086  10.085  26.291  1.00  0.00     0.185 HD
HETATM   34  N8  UNL     1      36.981   8.697  24.345  1.00  0.00    -0.080 NA
BRANCH  29  35
HETATM   35  N6  UNL     1      33.727  10.606  27.113  1.00  0.00    -0.233 N 
ATOM     36  H62 UNL     1      34.277  11.403  27.432  1.00  0.00     0.174 HD
ATOM     37  H61 UNL     1      32.880  10.386  27.637  1.00  0.00     0.174 HD
ENDBRANCH  29  35
ENDBRANCH  24  25
ENDBRANCH   3  24
TORSDOF 7
ENDMDL
MODEL 4
REMARK VINA RESULT: -7.335739593      5.286      9.310
REMARK  7 active torsions:
REMARK  status: ('A' for Active; 'I' for Inactive)
REMARK    1  A    between atoms: N1_2  and  C2_4 
REMARK    2  A    between atoms: C3_7  and  C4_8 
REMARK    3  A    between atoms: C4_8  and  N3_9 
REMARK    4  A    between atoms: C6_11  and  C7_12 
REMARK    5  A    between atoms: C7_12  and  C8_13 
REMARK    6  A    between atoms: C9_18  and  N6_19 
REMARK    7  A    between atoms: C11_32  and  N12_33 
ROOT
HETATM    1  N3  UNL     1      35.484   3.704  23.965  1.00  0.00    -0.280 N 
HETATM    2  C5  UNL     1      34.945   4.924  24.132  1.00  0.00     0.139 A 
HETATM    3  C6  UNL     1      35.291   5.677  23.049  1.00  0.00     0.050 A 
HETATM    4  N9  UNL     1      36.041   4.892  22.236  1.00  0.00    -0.289 N 
ATOM      5  H9  UNL     1      36.455   5.159  21.342  1.00  0.00     0.188 HD
HETATM    6  N10 UNL     1      36.131   3.717  22.825  1.00  0.00    -0.240 N 
ATOM      7  H10 UNL     1      36.639   2.919  22.443  1.00  0.00     0.208 HD
ENDROOT
BRANCH   1   8
HETATM    8  C4  UNL     1      35.369   2.600  24.869  1.00  0.00     0.227 C 
BRANCH   8   9
HETATM    9  C3  UNL     1      36.241   1.451  24.517  1.00  0.00     0.133 A 
HETATM   10  N2  UNL     1      35.746   0.318  23.995  1.00  0.00    -0.178 N 
HETATM   11  C2  UNL     1      36.518  -0.736  23.669  1.00  0.00     0.693 A 
ATOM     12  H2  UNL     1      34.740   0.252  23.839  1.00  0.00     0.185 HD
HETATM   13  N13 UNL     1      37.858  -0.647  23.880  1.00  0.00    -0.023 N 
HETATM   14  C11 UNL     1      38.369   0.477  24.400  1.00  0.00     0.691 A 
ATOM     15  H13 UNL     1      38.469  -1.429  23.645  1.00  0.00     0.203 HD
HETATM   16  N11 UNL     1      37.566   1.518  24.716  1.00  0.00    -0.178 N 
ATOM     17  H11 UNL     1      37.974   2.366  25.111  1.00  0.00     0.185 HD
BRANCH  11  18
HETATM   18  N1  UNL     1      36.048  -1.830  23.164  1.00  0.00    -0.230 N 
HETATM   19  C1  UNL     1      36.717  -3.065  23.532  1.00  0.00     0.165 C 
ATOM     20  H1  UNL     1      35.243  -1.825  22.537  1.00  0.00     0.177 HD
ENDBRANCH  11  18
BRANCH  14  21
HETATM   21  N12 UNL     1      39.624   0.587  24.608  1.00  0.00    -0.234 N 
ATOM     22 2H12 UNL     1      40.019   0.386  25.527  1.00  0.00     0.174 HD
ATOM     23 1H12 UNL     1      40.222   0.881  23.838  1.00  0.00     0.174 HD
ENDBRANCH  14  21
ENDBRANCH   8   9
ENDBRANCH   1   8
BRANCH   3  24
HETATM   24  C7  UNL     1      34.979   7.081  22.716  1.00  0.00     0.122 C 
BRANCH  24  25
HETATM   25  C8  UNL     1      34.743   7.937  23.906  1.00  0.00     0.073 A 
HETATM   26  N4  UNL     1      33.468   8.162  24.334  1.00  0.00    -0.287 N 
HETATM   27  N5  UNL     1      33.230   8.923  25.382  1.00  0.00    -0.132 N 
ATOM     28  H4  UNL     1      32.687   7.736  23.834  1.00  0.00     0.187 HD
HETATM   29  C9  UNL     1      34.193   9.523  26.097  1.00  0.00     0.691 A 
ATOM     30  H5  UNL     1      32.260   9.062  25.666  1.00  0.00     0.205 HD
HETATM   31  N7  UNL     1      35.461   9.323  25.706  1.00  0.00    -0.176 N 
HETATM   32  C10 UNL     1      35.738   8.547  24.631  1.00  0.00     0.156 A 
ATOM     33  H7  UNL     1      36.223   9.761  26.223  1.00  0.00     0.185 HD
HETATM   34  N8  UNL     1      37.089   8.367  24.269  1.00  0.00    -0.080 NA
BRANCH  29  35
HETATM   35  N6  UNL     1      33.878  10.248  27.106  1.00  0.00    -0.233 N 
ATOM     36  H62 UNL     1      33.838  11.266  27.069  1.00  0.00     0.174 HD
ATOM     37  H61 UNL     1      33.657   9.805  27.997  1.00  0.00     0.174 HD
ENDBRANCH  29  35
ENDBRANCH  24  25
ENDBRANCH   3  24
TORSDOF 7
ENDMDL
MODEL 5
REMARK VINA RESULT: -7.218688659      5.540      9.166
REMARK  7 active torsions:
REMARK  status: ('A' for Active; 'I' for Inactive)
REMARK    1  A    between atoms: N1_2  and  C2_4 
REMARK    2  A    between atoms: C3_7  and  C4_8 
REMARK    3  A    between atoms: C4_8  and  N3_9 
REMARK    4  A    between atoms: C6_11  and  C7_12 
REMARK    5  A    between atoms: C7_12  and  C8_13 
REMARK    6  A    between atoms: C9_18  and  N6_19 
REMARK    7  A    between atoms: C11_32  and  N12_33 
ROOT
HETATM    1  N3  UNL     1      35.158   2.682  24.417  1.00  0.00    -0.280 N 
HETATM    2  C5  UNL     1      35.280   3.533  23.384  1.00  0.00     0.139 A 
HETATM    3  C6  UNL     1      35.023   4.787  23.853  1.00  0.00     0.050 A 
HETATM    4  N9  UNL     1      34.747   4.673  25.177  1.00  0.00    -0.289 N 
ATOM      5  H9  UNL     1      34.514   5.431  25.819  1.00  0.00     0.188 HD
HETATM    6  N10 UNL     1      34.840   3.393  25.471  1.00  0.00    -0.240 N 
ATOM      7  H10 UNL     1      34.685   3.004  26.402  1.00  0.00     0.208 HD
ENDROOT
BRANCH   1   8
HETATM    8  C4  UNL     1      35.343   1.263  24.368  1.00  0.00     0.227 C 
BRANCH   8   9
HETATM    9  C3  UNL     1      36.754   0.854  24.150  1.00  0.00     0.133 A 
HETATM   10  N2  UNL     1      37.772   1.460  24.778  1.00  0.00    -0.178 N 
HETATM   11  C2  UNL     1      39.059   1.106  24.595  1.00  0.00     0.693 A 
ATOM     12  H2  UNL     1      37.564   2.223  25.423  1.00  0.00     0.185 HD
HETATM   13  N13 UNL     1      39.335   0.091  23.734  1.00  0.00    -0.023 N 
HETATM   14  C11 UNL     1      38.330  -0.525  23.098  1.00  0.00     0.691 A 
ATOM     15  H13 UNL     1      40.300  -0.200  23.572  1.00  0.00     0.203 HD
HETATM   16  N11 UNL     1      37.048  -0.146  23.305  1.00  0.00    -0.178 N 
ATOM     17  H11 UNL     1      36.295  -0.626  22.812  1.00  0.00     0.185 HD
BRANCH  11  18
HETATM   18  N1  UNL     1      40.046   1.684  25.198  1.00  0.00    -0.230 N 
HETATM   19  C1  UNL     1      40.967   0.827  25.923  1.00  0.00     0.165 C 
ATOM     20  H1  UNL     1      40.172   2.696  25.166  1.00  0.00     0.177 HD
ENDBRANCH  11  18
BRANCH  14  21
HETATM   21  N12 UNL     1      38.560  -1.481  22.285  1.00  0.00    -0.234 N 
ATOM     22 2H12 UNL     1      38.053  -2.363  22.360  1.00  0.00     0.174 HD
ATOM     23 1H12 UNL     1      39.262  -1.345  21.559  1.00  0.00     0.174 HD
ENDBRANCH  14  21
ENDBRANCH   8   9
ENDBRANCH   1   8
BRANCH   3  24
HETATM   24  C7  UNL     1      35.008   6.089  23.158  1.00  0.00     0.122 C 
BRANCH  24  25
HETATM   25  C8  UNL     1      34.678   7.234  24.045  1.00  0.00     0.073 A 
HETATM   26  N4  UNL     1      33.374   7.530  24.308  1.00  0.00    -0.287 N 
HETATM   27  N5  UNL     1      33.052   8.543  25.085  1.00  0.00    -0.132 N 
ATOM     28  H4  UNL     1      32.635   6.959  23.896  1.00  0.00     0.187 HD
HETATM   29  C9  UNL     1      33.955   9.347  25.667  1.00  0.00     0.691 A 
ATOM     30  H5  UNL     1      32.064   8.727  25.254  1.00  0.00     0.205 HD
HETATM   31  N7  UNL     1      35.250   9.085  25.432  1.00  0.00    -0.176 N 
HETATM   32  C10 UNL     1      35.612   8.050  24.636  1.00  0.00     0.156 A 
ATOM     33  H7  UNL     1      35.969   9.671  25.856  1.00  0.00     0.185 HD
HETATM   34  N8  UNL     1      36.988   7.818  24.428  1.00  0.00    -0.080 NA
BRANCH  29  35
HETATM   35  N6  UNL     1      33.562  10.313  26.411  1.00  0.00    -0.233 N 
ATOM     36  H62 UNL     1      32.577  10.533  26.563  1.00  0.00     0.174 HD
ATOM     37  H61 UNL     1      34.248  10.901  26.882  1.00  0.00     0.174 HD
ENDBRANCH  29  35
ENDBRANCH  24  25
ENDBRANCH   3  24
TORSDOF 7
ENDMDL
