MODEL 1
REMARK VINA RESULT: -7.615347109      0.000      0.000
REMARK  6 active torsions:
REMARK  status: ('A' for Active; 'I' for Inactive)
REMARK    1  A    between atoms: N1_1  and  C1_4 
REMARK    2  A    between atoms: N5_12  and  C4_13 
REMARK    3  A    between atoms: C4_13  and  C5_14 
REMARK    4  A    between atoms: C5_14  and  N6_15 
REMARK    5  A    between atoms: C7_22  and  S1_23 
REMARK    6  A    between atoms: S1_23  and  N10_24 
ROOT
HETATM    1  C1  UNL     1      36.780   5.331  22.072  1.00  0.00     0.678 A 
HETATM    2  N2  UNL     1      36.917   4.155  22.712  1.00  0.00    -0.173 N 
ATOM      3  H2  UNL     1      37.660   3.520  22.420  1.00  0.00     0.186 HD
HETATM    4  C2  UNL     1      36.111   3.788  23.722  1.00  0.00     0.167 A 
HETATM    5  C3  UNL     1      35.102   4.636  24.130  1.00  0.00     0.133 A 
HETATM    6  N3  UNL     1      34.484   4.008  25.130  1.00  0.00    -0.278 N 
ATOM      7  H3  UNL     1      33.687   4.370  25.654  1.00  0.00     0.184 HD
HETATM    8  N4  UNL     1      35.071   2.843  25.334  1.00  0.00    -0.018 NA
HETATM    9  N5  UNL     1      36.078   2.667  24.488  1.00  0.00    -0.256 N 
HETATM   10  C7  UNL     1      34.947   5.848  23.483  1.00  0.00     0.195 A 
HETATM   11  N11 UNL     1      35.790   6.138  22.489  1.00  0.00    -0.177 N 
ATOM     12  H11 UNL     1      35.674   7.033  22.013  1.00  0.00     0.185 HD
ENDROOT
BRANCH   9  13
HETATM   13  C4  UNL     1      36.980   1.558  24.354  1.00  0.00     0.170 C 
BRANCH  13  14
HETATM   14  C5  UNL     1      36.247   0.250  24.567  1.00  0.00     0.172 C 
BRANCH  14  15
HETATM   15  N6  UNL     1      36.948  -0.841  23.919  1.00  0.00    -0.226 N 
HETATM   16  N7  UNL     1      38.352  -1.003  23.795  1.00  0.00    -0.002 NA
HETATM   17  N8  UNL     1      38.490  -2.401  23.947  1.00  0.00    -0.004 NA
HETATM   18  N9  UNL     1      37.467  -2.913  23.143  1.00  0.00    -0.236 N 
HETATM   19  C6  UNL     1      36.379  -1.985  23.268  1.00  0.00     0.352 C 
ATOM     20  H9  UNL     1      37.488  -3.767  22.586  1.00  0.00     0.188 HD
HETATM   21  O1  UNL     1      35.193  -2.091  22.914  1.00  0.00    -0.244 OA
ENDBRANCH  14  15
ENDBRANCH  13  14
ENDBRANCH   9  13
BRANCH   1  22
HETATM   22  N1  UNL     1      37.579   5.665  21.090  1.00  0.00    -0.234 N 
ATOM     23  H12 UNL     1      38.392   5.100  20.840  1.00  0.00     0.174 HD
ATOM     24  H11 UNL     1      37.414   6.507  20.539  1.00  0.00     0.174 HD
ENDBRANCH   1  22
BRANCH  10  25
HETATM   25  S1  UNL     1      33.671   6.901  24.012  1.00  0.00     0.275 S 
HETATM   26  O2  UNL     1      32.364   6.188  24.153  1.00  0.00    -0.199 OA
HETATM   27  O3  UNL     1      33.478   7.953  22.939  1.00  0.00    -0.199 OA
BRANCH  25  28
HETATM   28  N10 UNL     1      34.093   7.734  25.460  1.00  0.00    -0.323 N 
ATOM     29 2H10 UNL     1      34.419   7.261  26.303  1.00  0.00     0.169 HD
ATOM     30 1H10 UNL     1      33.973   8.742  25.363  1.00  0.00     0.169 HD
ENDBRANCH  25  28
ENDBRANCH  10  25
TORSDOF 6
ENDMDL
MODEL 2
REMARK VINA RESULT: -7.114693512      1.149      1.355
REMARK  6 active torsions:
REMARK  status: ('A' for Active; 'I' for Inactive)
REMARK    1  A    between atoms: N1_1  and  C1_4 
REMARK    2  A    between atoms: N5_12  and  C4_13 
REMARK    3  A    between atoms: C4_13  and  C5_14 
REMARK    4  A    between atoms: C5_14  and  N6_15 
REMARK    5  A    between atoms: C7_22  and  S1_23 
REMARK    6  A    between atoms: S1_23  and  N10_24 
ROOT
HETATM    1  C1  UNL     1      37.096   5.619  22.214  1.00  0.00     0.678 A 
HETATM    2  N2  UNL     1      37.256   4.416  22.798  1.00  0.00    -0.173 N 
ATOM      3  H2  UNL     1      38.063   3.848  22.541  1.00  0.00     0.186 HD
HETATM    4  C2  UNL     1      36.390   3.938  23.706  1.00  0.00     0.167 A 
HETATM    5  C3  UNL     1      35.293   4.694  24.066  1.00  0.00     0.133 A 
HETATM    6  N3  UNL     1      34.633   3.969  24.968  1.00  0.00    -0.278 N 
ATOM      7  H3  UNL     1      33.770   4.247  25.434  1.00  0.00     0.184 HD
HETATM    8  N4  UNL     1      35.278   2.832  25.160  1.00  0.00    -0.018 NA
HETATM    9  N5  UNL     1      36.366   2.772  24.403  1.00  0.00    -0.256 N 
HETATM   10  C7  UNL     1      35.114   5.932  23.476  1.00  0.00     0.195 A 
HETATM   11  N11 UNL     1      36.020   6.335  22.581  1.00  0.00    -0.177 N 
ATOM     12  H11 UNL     1      35.887   7.248  22.147  1.00  0.00     0.185 HD
ENDROOT
BRANCH   9  13
HETATM   13  C4  UNL     1      37.350   1.732  24.291  1.00  0.00     0.170 C 
BRANCH  13  14
HETATM   14  C5  UNL     1      37.136   0.935  23.021  1.00  0.00     0.172 C 
BRANCH  14  15
HETATM   15  N6  UNL     1      36.826  -0.446  23.331  1.00  0.00    -0.226 N 
HETATM   16  N7  UNL     1      35.538  -1.018  23.501  1.00  0.00    -0.002 NA
HETATM   17  N8  UNL     1      35.713  -2.291  22.914  1.00  0.00    -0.004 NA
HETATM   18  N9  UNL     1      36.943  -2.714  23.428  1.00  0.00    -0.236 N 
HETATM   19  C6  UNL     1      37.745  -1.529  23.530  1.00  0.00     0.352 C 
ATOM     20  H9  UNL     1      37.213  -3.665  23.677  1.00  0.00     0.188 HD
HETATM   21  O1  UNL     1      38.964  -1.403  23.739  1.00  0.00    -0.244 OA
ENDBRANCH  14  15
ENDBRANCH  13  14
ENDBRANCH   9  13
BRANCH   1  22
HETATM   22  N1  UNL     1      37.955   6.062  21.331  1.00  0.00    -0.234 N 
ATOM     23  H12 UNL     1      38.742   5.496  21.011  1.00  0.00     0.174 HD
ATOM     24  H11 UNL     1      37.865   6.995  20.930  1.00  0.00     0.174 HD
ENDBRANCH   1  22
BRANCH  10  25
HETATM   25  S1  UNL     1      33.728   6.868  23.942  1.00  0.00     0.275 S 
HETATM   26  O2  UNL     1      32.480   6.047  24.005  1.00  0.00    -0.199 OA
HETATM   27  O3  UNL     1      33.505   7.913  22.868  1.00  0.00    -0.199 OA
BRANCH  25  28
HETATM   28  N10 UNL     1      33.998   7.715  25.417  1.00  0.00    -0.323 N 
ATOM     29 2H10 UNL     1      34.752   8.391  25.545  1.00  0.00     0.169 HD
ATOM     30 1H10 UNL     1      33.318   7.454  26.131  1.00  0.00     0.169 HD
ENDBRANCH  25  28
ENDBRANCH  10  25
TORSDOF 6
ENDMDL
MODEL 3
REMARK VINA RESULT: -6.984084222      2.853      6.806
REMARK  6 active torsions:
REMARK  status: ('A' for Active; 'I' for Inactive)
REMARK    1  A    between atoms: N1_1  and  C1_4 
REMARK    2  A    between atoms: N5_12  and  C4_13 
REMARK    3  A    between atoms: C4_13  and  C5_14 
REMARK    4  A    between atoms: C5_14  and  N6_15 
REMARK    5  A    between atoms: C7_22  and  S1_23 
REMARK    6  A    between atoms: S1_23  and  N10_24 
ROOT
HETATM    1  C1  UNL     1      37.495   3.697  21.814  1.00  0.00     0.678 A 
HETATM    2  N2  UNL     1      36.460   4.249  22.474  1.00  0.00    -0.173 N 
ATOM      3  H2  UNL     1      36.039   5.101  22.104  1.00  0.00     0.186 HD
HETATM    4  C2  UNL     1      35.961   3.717  23.602  1.00  0.00     0.167 A 
HETATM    5  C3  UNL     1      36.518   2.564  24.116  1.00  0.00     0.133 A 
HETATM    6  N3  UNL     1      35.824   2.286  25.218  1.00  0.00    -0.278 N 
ATOM      7  H3  UNL     1      35.986   1.490  25.835  1.00  0.00     0.184 HD
HETATM    8  N4  UNL     1      34.891   3.206  25.382  1.00  0.00    -0.018 NA
HETATM    9  N5  UNL     1      34.941   4.107  24.409  1.00  0.00    -0.256 N 
HETATM   10  C7  UNL     1      37.583   1.984  23.450  1.00  0.00     0.195 A 
HETATM   11  N11 UNL     1      38.020   2.575  22.335  1.00  0.00    -0.177 N 
ATOM     12  H11 UNL     1      38.805   2.146  21.845  1.00  0.00     0.185 HD
ENDROOT
BRANCH   9  13
HETATM   13  C4  UNL     1      34.125   5.269  24.192  1.00  0.00     0.170 C 
BRANCH  13  14
HETATM   14  C5  UNL     1      34.858   6.520  24.629  1.00  0.00     0.172 C 
BRANCH  14  15
HETATM   15  N6  UNL     1      35.389   7.229  23.482  1.00  0.00    -0.226 N 
HETATM   16  N7  UNL     1      36.744   7.291  23.066  1.00  0.00    -0.002 NA
HETATM   17  N8  UNL     1      36.610   7.265  21.659  1.00  0.00    -0.004 NA
HETATM   18  N9  UNL     1      35.569   8.168  21.420  1.00  0.00    -0.236 N 
HETATM   19  C6  UNL     1      34.666   8.016  22.525  1.00  0.00     0.352 C 
ATOM     20  H9  UNL     1      35.472   8.801  20.627  1.00  0.00     0.188 HD
HETATM   21  O1  UNL     1      33.509   8.442  22.677  1.00  0.00    -0.244 OA
ENDBRANCH  14  15
ENDBRANCH  13  14
ENDBRANCH   9  13
BRANCH   1  22
HETATM   22  N1  UNL     1      37.963   4.236  20.716  1.00  0.00    -0.234 N 
ATOM     23  H12 UNL     1      37.568   5.091  20.324  1.00  0.00     0.174 HD
ATOM     24  H11 UNL     1      38.744   3.814  20.214  1.00  0.00     0.174 HD
ENDBRANCH   1  22
BRANCH  10  25
HETATM   25  S1  UNL     1      38.270   0.533  24.112  1.00  0.00     0.275 S 
HETATM   26  O2  UNL     1      38.815  -0.374  23.055  1.00  0.00    -0.199 OA
HETATM   27  O3  UNL     1      37.152  -0.225  24.798  1.00  0.00    -0.199 OA
BRANCH  25  28
HETATM   28  N10 UNL     1      39.453   0.880  25.314  1.00  0.00    -0.323 N 
ATOM     29 2H10 UNL     1      39.378   0.564  26.281  1.00  0.00     0.169 HD
ATOM     30 1H10 UNL     1      40.223   1.432  24.937  1.00  0.00     0.169 HD
ENDBRANCH  25  28
ENDBRANCH  10  25
TORSDOF 6
ENDMDL
MODEL 4
REMARK VINA RESULT: -6.948882591      1.589      1.862
REMARK  6 active torsions:
REMARK  status: ('A' for Active; 'I' for Inactive)
REMARK    1  A    between atoms: N1_1  and  C1_4 
REMARK    2  A    between atoms: N5_12  and  C4_13 
REMARK    3  A    between atoms: C4_13  and  C5_14 
REMARK    4  A    between atoms: C5_14  and  N6_15 
REMARK    5  A    between atoms: C7_22  and  S1_23 
REMARK    6  A    between atoms: S1_23  and  N10_24 
ROOT
HETATM    1  C1  UNL     1      37.146   3.848  22.069  1.00  0.00     0.678 A 
HETATM    2  N2  UNL     1      37.059   2.703  22.772  1.00  0.00    -0.173 N 
ATOM      3  H2  UNL     1      37.646   1.915  22.503  1.00  0.00     0.186 HD
HETATM    4  C2  UNL     1      36.226   2.564  23.817  1.00  0.00     0.167 A 
HETATM    5  C3  UNL     1      35.425   3.622  24.196  1.00  0.00     0.133 A 
HETATM    6  N3  UNL     1      34.723   3.188  25.242  1.00  0.00    -0.278 N 
ATOM      7  H3  UNL     1      34.033   3.733  25.759  1.00  0.00     0.184 HD
HETATM    8  N4  UNL     1      35.065   1.939  25.501  1.00  0.00    -0.018 NA
HETATM    9  N5  UNL     1      35.989   1.515  24.647  1.00  0.00    -0.256 N 
HETATM   10  C7  UNL     1      35.502   4.805  23.483  1.00  0.00     0.195 A 
HETATM   11  N11 UNL     1      36.355   4.862  22.457  1.00  0.00    -0.177 N 
ATOM     12  H11 UNL     1      36.410   5.736  21.933  1.00  0.00     0.185 HD
ENDROOT
BRANCH   9  13
HETATM   13  C4  UNL     1      36.640   0.239  24.559  1.00  0.00     0.170 C 
BRANCH  13  14
HETATM   14  C5  UNL     1      35.946  -0.640  23.539  1.00  0.00     0.172 C 
BRANCH  14  15
HETATM   15  N6  UNL     1      36.521  -1.971  23.535  1.00  0.00    -0.226 N 
HETATM   16  N7  UNL     1      36.117  -3.081  24.319  1.00  0.00    -0.002 NA
HETATM   17  N8  UNL     1      36.290  -4.149  23.409  1.00  0.00    -0.004 NA
HETATM   18  N9  UNL     1      37.536  -3.880  22.834  1.00  0.00    -0.236 N 
HETATM   19  C6  UNL     1      37.617  -2.450  22.743  1.00  0.00     0.352 C 
ATOM     20  H9  UNL     1      38.239  -4.558  22.541  1.00  0.00     0.188 HD
HETATM   21  O1  UNL     1      38.426  -1.733  22.132  1.00  0.00    -0.244 OA
ENDBRANCH  14  15
ENDBRANCH  13  14
ENDBRANCH   9  13
BRANCH   1  22
HETATM   22  N1  UNL     1      37.966   3.958  21.054  1.00  0.00    -0.234 N 
ATOM     23  H12 UNL     1      37.629   4.067  20.097  1.00  0.00     0.174 HD
ATOM     24  H11 UNL     1      38.977   3.938  21.189  1.00  0.00     0.174 HD
ENDBRANCH   1  22
BRANCH  10  25
HETATM   25  S1  UNL     1      34.486   6.124  23.976  1.00  0.00     0.275 S 
HETATM   26  O2  UNL     1      34.767   6.569  25.375  1.00  0.00    -0.199 OA
HETATM   27  O3  UNL     1      33.056   5.625  23.959  1.00  0.00    -0.199 OA
BRANCH  25  28
HETATM   28  N10 UNL     1      34.571   7.441  22.868  1.00  0.00    -0.323 N 
ATOM     29 2H10 UNL     1      34.053   8.311  22.992  1.00  0.00     0.169 HD
ATOM     30 1H10 UNL     1      35.196   7.237  22.089  1.00  0.00     0.169 HD
ENDBRANCH  25  28
ENDBRANCH  10  25
TORSDOF 6
ENDMDL
MODEL 5
REMARK VINA RESULT: -6.847054138      3.906      8.274
REMARK  6 active torsions:
REMARK  status: ('A' for Active; 'I' for Inactive)
REMARK    1  A    between atoms: N1_1  and  C1_4 
REMARK    2  A    between atoms: N5_12  and  C4_13 
REMARK    3  A    between atoms: C4_13  and  C5_14 
REMARK    4  A    between atoms: C5_14  and  N6_15 
REMARK    5  A    between atoms: C7_22  and  S1_23 
REMARK    6  A    between atoms: S1_23  and  N10_24 
ROOT
HETATM    1  C1  UNL     1      33.435   6.394  24.108  1.00  0.00     0.678 A 
HETATM    2  N2  UNL     1      33.809   7.412  23.309  1.00  0.00    -0.173 N 
ATOM      3  H2  UNL     1      33.216   8.239  23.257  1.00  0.00     0.186 HD
HETATM    4  C2  UNL     1      34.936   7.375  22.579  1.00  0.00     0.167 A 
HETATM    5  C3  UNL     1      35.751   6.263  22.639  1.00  0.00     0.133 A 
HETATM    6  N3  UNL     1      36.772   6.517  21.822  1.00  0.00    -0.278 N 
ATOM      7  H3  UNL     1      37.555   5.890  21.640  1.00  0.00     0.184 HD
HETATM    8  N4  UNL     1      36.606   7.713  21.287  1.00  0.00    -0.018 NA
HETATM    9  N5  UNL     1      35.487   8.276  21.726  1.00  0.00    -0.256 N 
HETATM   10  C7  UNL     1      35.381   5.209  23.455  1.00  0.00     0.195 A 
HETATM   11  N11 UNL     1      34.245   5.323  24.148  1.00  0.00    -0.177 N 
ATOM     12  H11 UNL     1      33.974   4.544  24.749  1.00  0.00     0.185 HD
ENDROOT
BRANCH   9  13
HETATM   13  C4  UNL     1      34.920   9.557  21.411  1.00  0.00     0.170 C 
BRANCH  13  14
HETATM   14  C5  UNL     1      35.410  10.608  22.384  1.00  0.00     0.172 C 
BRANCH  14  15
HETATM   15  N6  UNL     1      34.638  10.570  23.610  1.00  0.00    -0.226 N 
HETATM   16  N7  UNL     1      33.229  10.670  23.739  1.00  0.00    -0.002 NA
HETATM   17  N8  UNL     1      32.974   9.764  24.793  1.00  0.00    -0.004 NA
HETATM   18  N9  UNL     1      33.971  10.070  25.725  1.00  0.00    -0.236 N 
HETATM   19  C6  UNL     1      35.126  10.423  24.951  1.00  0.00     0.352 C 
ATOM     20  H9  UNL     1      33.892  10.048  26.741  1.00  0.00     0.188 HD
HETATM   21  O1  UNL     1      36.308  10.578  25.303  1.00  0.00    -0.244 OA
ENDBRANCH  14  15
ENDBRANCH  13  14
ENDBRANCH   9  13
BRANCH   1  22
HETATM   22  N1  UNL     1      32.331   6.455  24.809  1.00  0.00    -0.234 N 
ATOM     23  H12 UNL     1      32.011   5.673  25.380  1.00  0.00     0.174 HD
ATOM     24  H11 UNL     1      31.752   7.294  24.807  1.00  0.00     0.174 HD
ENDBRANCH   1  22
BRANCH  10  25
HETATM   25  S1  UNL     1      36.420   3.818  23.516  1.00  0.00     0.275 S 
HETATM   26  O2  UNL     1      36.129   2.941  24.692  1.00  0.00    -0.199 OA
HETATM   27  O3  UNL     1      37.838   4.320  23.691  1.00  0.00    -0.199 OA
BRANCH  25  28
HETATM   28  N10 UNL     1      36.380   2.928  22.042  1.00  0.00    -0.323 N 
ATOM     29 2H10 UNL     1      36.911   2.070  21.892  1.00  0.00     0.169 HD
ATOM     30 1H10 UNL     1      35.767   3.366  21.355  1.00  0.00     0.169 HD
ENDBRANCH  25  28
ENDBRANCH  10  25
TORSDOF 6
ENDMDL
