MODEL 1
REMARK VINA RESULT: -6.151733403      0.000      0.000
REMARK  7 active torsions:
REMARK  status: ('A' for Active; 'I' for Inactive)
REMARK    1  A    between atoms: O1_2  and  C2_3 
REMARK    2  A    between atoms: C5_6  and  N1_7 
REMARK    3  A    between atoms: N1_7  and  N2_9 
REMARK    4  A    between atoms: C7_13  and  O2_14 
REMARK    5  A    between atoms: N3_17  and  O3_19 
REMARK    6  A    between atoms: N6_26  and  C11_27 
REMARK    7  A    between atoms: C11_27  and  C12_28 
ROOT
HETATM    1  C2  UNL     1      36.534   6.710  21.801  1.00  0.00     0.160 A 
HETATM    2  C3  UNL     1      37.489   5.784  21.639  1.00  0.00     0.075 A 
HETATM    3  C4  UNL     1      37.382   4.563  22.445  1.00  0.00     0.043 A 
HETATM    4  C5  UNL     1      38.372   3.597  22.288  1.00  0.00     0.077 A 
HETATM    5  C6  UNL     1      38.252   2.463  23.061  1.00  0.00     0.060 A 
HETATM    6  C7  UNL     1      39.185   1.552  22.933  1.00  0.00     0.149 C 
HETATM    7  C8  UNL     1      37.189   2.287  23.957  1.00  0.00     0.143 A 
HETATM    8  N3  UNL     1      37.176   1.198  24.621  1.00  0.00    -0.252 N 
ATOM      9  H3  UNL     1      37.946   0.554  24.435  1.00  0.00     0.196 HD
HETATM   10  N4  UNL     1      36.256   3.217  24.094  1.00  0.00    -0.320 N 
HETATM   11  C9  UNL     1      35.153   3.068  25.002  1.00  0.00     0.159 C 
HETATM   12  C10 UNL     1      36.372   4.347  23.327  1.00  0.00     0.136 A 
HETATM   13  N5  UNL     1      35.460   5.237  23.478  1.00  0.00    -0.280 N 
ATOM     14  H5  UNL     1      34.699   5.081  24.139  1.00  0.00     0.189 HD
HETATM   15  N6  UNL     1      35.508   6.419  22.740  1.00  0.00    -0.261 N 
ENDROOT
BRANCH   4  16
HETATM   16  N1  UNL     1      39.435   3.766  21.378  1.00  0.00    -0.305 N 
ATOM     17  H1  UNL     1      40.316   4.166  21.700  1.00  0.00     0.186 HD
BRANCH  16  18
HETATM   18  N2  UNL     1      39.294   3.396  20.046  1.00  0.00    -0.345 N 
ATOM     19  H22 UNL     1      39.402   2.412  19.798  1.00  0.00     0.176 HD
ATOM     20  H21 UNL     1      39.087   4.094  19.332  1.00  0.00     0.176 HD
ENDBRANCH  16  18
ENDBRANCH   4  16
BRANCH   6  21
HETATM   21  O2  UNL     1      39.095   0.400  23.695  1.00  0.00    -0.372 OA
ATOM     22  H2  UNL     1      39.878   0.076  24.125  1.00  0.00     0.216 HD
ENDBRANCH   6  21
BRANCH   1  23
HETATM   23  O1  UNL     1      36.604   7.873  21.057  1.00  0.00    -0.340 OA
HETATM   24  C1  UNL     1      37.546   8.895  21.338  1.00  0.00     0.211 C 
ENDBRANCH   1  23
BRANCH   8  25
HETATM   25  O3  UNL     1      36.277   0.788  25.536  1.00  0.00    -0.288 OA
ATOM     26  H3  UNL     1      36.436   0.353  26.366  1.00  0.00     0.244 HD
ENDBRANCH   8  25
BRANCH  15  27
HETATM   27  C11 UNL     1      34.445   7.385  22.972  1.00  0.00     0.250 C 
BRANCH  27  28
HETATM   28  C12 UNL     1      33.760   7.019  24.244  1.00  0.00     0.251 C 
HETATM   29  N7  UNL     1      32.469   6.431  24.257  1.00  0.00    -0.061 NA
HETATM   30  O4  UNL     1      34.310   7.220  25.368  1.00  0.00    -0.275 OA
ENDBRANCH  27  28
ENDBRANCH  15  27
TORSDOF 7
ENDMDL
MODEL 2
REMARK VINA RESULT: -6.127941818      1.052      1.082
REMARK  7 active torsions:
REMARK  status: ('A' for Active; 'I' for Inactive)
REMARK    1  A    between atoms: O1_2  and  C2_3 
REMARK    2  A    between atoms: C5_6  and  N1_7 
REMARK    3  A    between atoms: N1_7  and  N2_9 
REMARK    4  A    between atoms: C7_13  and  O2_14 
REMARK    5  A    between atoms: N3_17  and  O3_19 
REMARK    6  A    between atoms: N6_26  and  C11_27 
REMARK    7  A    between atoms: C11_27  and  C12_28 
ROOT
HETATM    1  C2  UNL     1      36.684   6.613  21.990  1.00  0.00     0.160 A 
HETATM    2  C3  UNL     1      37.277   5.508  21.516  1.00  0.00     0.075 A 
HETATM    3  C4  UNL     1      37.121   4.276  22.296  1.00  0.00     0.043 A 
HETATM    4  C5  UNL     1      37.736   3.124  21.815  1.00  0.00     0.077 A 
HETATM    5  C6  UNL     1      37.580   1.983  22.569  1.00  0.00     0.060 A 
HETATM    6  C7  UNL     1      38.167   0.895  22.135  1.00  0.00     0.149 C 
HETATM    7  C8  UNL     1      36.839   1.977  23.759  1.00  0.00     0.143 A 
HETATM    8  N3  UNL     1      36.758   0.864  24.376  1.00  0.00    -0.252 N 
ATOM      9  H3  UNL     1      37.244   0.078  23.943  1.00  0.00     0.196 HD
HETATM   10  N4  UNL     1      36.259   3.082  24.202  1.00  0.00    -0.320 N 
HETATM   11  C9  UNL     1      35.492   3.111  25.416  1.00  0.00     0.159 C 
HETATM   12  C10 UNL     1      36.413   4.220  23.455  1.00  0.00     0.136 A 
HETATM   13  N5  UNL     1      35.848   5.282  23.904  1.00  0.00    -0.280 N 
ATOM     14  H5  UNL     1      35.315   5.246  24.773  1.00  0.00     0.189 HD
HETATM   15  N6  UNL     1      35.961   6.483  23.206  1.00  0.00    -0.261 N 
ENDROOT
BRANCH   4  16
HETATM   16  N1  UNL     1      38.472   3.125  20.612  1.00  0.00    -0.305 N 
ATOM     17  H1  UNL     1      39.458   3.386  20.624  1.00  0.00     0.186 HD
BRANCH  16  18
HETATM   18  N2  UNL     1      37.867   2.775  19.411  1.00  0.00    -0.345 N 
ATOM     19  H22 UNL     1      37.870   3.452  18.647  1.00  0.00     0.176 HD
ATOM     20  H21 UNL     1      37.430   1.861  19.296  1.00  0.00     0.176 HD
ENDBRANCH  16  18
ENDBRANCH   4  16
BRANCH   6  21
HETATM   21  O2  UNL     1      38.030  -0.271  22.868  1.00  0.00    -0.372 OA
ATOM     22  H2  UNL     1      38.481  -1.052  22.571  1.00  0.00     0.216 HD
ENDBRANCH   6  21
BRANCH   1  23
HETATM   23  O1  UNL     1      36.811   7.791  21.279  1.00  0.00    -0.340 OA
HETATM   24  C1  UNL     1      37.987   8.582  21.329  1.00  0.00     0.211 C 
ENDBRANCH   1  23
BRANCH   8  25
HETATM   25  O3  UNL     1      36.113   0.592  25.527  1.00  0.00    -0.288 OA
ATOM     26  H3  UNL     1      36.013  -0.247  25.962  1.00  0.00     0.244 HD
ENDBRANCH   8  25
BRANCH  15  27
HETATM   27  C11 UNL     1      35.301   7.645  23.783  1.00  0.00     0.250 C 
BRANCH  27  28
HETATM   28  C12 UNL     1      33.872   7.620  23.362  1.00  0.00     0.251 C 
HETATM   29  N7  UNL     1      32.951   6.679  23.892  1.00  0.00    -0.061 NA
HETATM   30  O4  UNL     1      33.423   8.445  22.510  1.00  0.00    -0.275 OA
ENDBRANCH  27  28
ENDBRANCH  15  27
TORSDOF 7
ENDMDL
MODEL 3
REMARK VINA RESULT: -6.081701357      2.719      6.404
REMARK  7 active torsions:
REMARK  status: ('A' for Active; 'I' for Inactive)
REMARK    1  A    between atoms: O1_2  and  C2_3 
REMARK    2  A    between atoms: C5_6  and  N1_7 
REMARK    3  A    between atoms: N1_7  and  N2_9 
REMARK    4  A    between atoms: C7_13  and  O2_14 
REMARK    5  A    between atoms: N3_17  and  O3_19 
REMARK    6  A    between atoms: N6_26  and  C11_27 
REMARK    7  A    between atoms: C11_27  and  C12_28 
ROOT
HETATM    1  C2  UNL     1      39.086  -0.720  22.033  1.00  0.00     0.160 A 
HETATM    2  C3  UNL     1      39.139   0.604  21.828  1.00  0.00     0.075 A 
HETATM    3  C4  UNL     1      38.204   1.438  22.590  1.00  0.00     0.043 A 
HETATM    4  C5  UNL     1      38.247   2.814  22.381  1.00  0.00     0.077 A 
HETATM    5  C6  UNL     1      37.354   3.574  23.103  1.00  0.00     0.060 A 
HETATM    6  C7  UNL     1      37.375   4.869  22.905  1.00  0.00     0.149 C 
HETATM    7  C8  UNL     1      36.449   2.995  24.004  1.00  0.00     0.143 A 
HETATM    8  N3  UNL     1      35.669   3.794  24.622  1.00  0.00    -0.252 N 
ATOM      9  H3  UNL     1      35.778   4.784  24.399  1.00  0.00     0.196 HD
HETATM   10  N4  UNL     1      36.422   1.685  24.191  1.00  0.00    -0.320 N 
HETATM   11  C9  UNL     1      35.508   1.060  25.107  1.00  0.00     0.159 C 
HETATM   12  C10 UNL     1      37.308   0.925  23.473  1.00  0.00     0.136 A 
HETATM   13  N5  UNL     1      37.262  -0.343  23.665  1.00  0.00    -0.280 N 
ATOM     14  H5  UNL     1      36.592  -0.734  24.327  1.00  0.00     0.189 HD
HETATM   15  N6  UNL     1      38.126  -1.188  22.970  1.00  0.00    -0.261 N 
ENDROOT
BRANCH   4  16
HETATM   16  N1  UNL     1      39.165   3.398  21.485  1.00  0.00    -0.305 N 
ATOM     17  H1  UNL     1      40.080   3.697  21.823  1.00  0.00     0.186 HD
BRANCH  16  18
HETATM   18  N2  UNL     1      38.836   3.571  20.146  1.00  0.00    -0.345 N 
ATOM     19  H22 UNL     1      39.113   2.852  19.477  1.00  0.00     0.176 HD
ATOM     20  H21 UNL     1      38.328   4.401  19.839  1.00  0.00     0.176 HD
ENDBRANCH  16  18
ENDBRANCH   4  16
BRANCH   6  21
HETATM   21  O2  UNL     1      36.491   5.662  23.615  1.00  0.00    -0.372 OA
ATOM     22  H2  UNL     1      35.862   6.186  23.134  1.00  0.00     0.216 HD
ENDBRANCH   6  21
BRANCH   1  23
HETATM   23  O1  UNL     1      39.954  -1.534  21.331  1.00  0.00    -0.340 OA
HETATM   24  C1  UNL     1      39.877  -1.687  19.924  1.00  0.00     0.211 C 
ENDBRANCH   1  23
BRANCH   8  25
HETATM   25  O3  UNL     1      34.719   3.498  25.529  1.00  0.00    -0.288 OA
ATOM     26  H3  UNL     1      33.832   3.193  25.376  1.00  0.00     0.244 HD
ENDBRANCH   8  25
BRANCH  15  27
HETATM   27  C11 UNL     1      38.008  -2.614  23.233  1.00  0.00     0.250 C 
BRANCH  27  28
HETATM   28  C12 UNL     1      36.576  -2.913  23.514  1.00  0.00     0.251 C 
HETATM   29  N7  UNL     1      35.534  -2.453  22.668  1.00  0.00    -0.061 NA
HETATM   30  O4  UNL     1      36.233  -3.597  24.525  1.00  0.00    -0.275 OA
ENDBRANCH  27  28
ENDBRANCH  15  27
TORSDOF 7
ENDMDL
MODEL 4
REMARK VINA RESULT: -5.835226358      2.009      5.733
REMARK  7 active torsions:
REMARK  status: ('A' for Active; 'I' for Inactive)
REMARK    1  A    between atoms: O1_2  and  C2_3 
REMARK    2  A    between atoms: C5_6  and  N1_7 
REMARK    3  A    between atoms: N1_7  and  N2_9 
REMARK    4  A    between atoms: C7_13  and  O2_14 
REMARK    5  A    between atoms: N3_17  and  O3_19 
REMARK    6  A    between atoms: N6_26  and  C11_27 
REMARK    7  A    between atoms: C11_27  and  C12_28 
ROOT
HETATM    1  C2  UNL     1      38.936   0.739  21.693  1.00  0.00     0.160 A 
HETATM    2  C3  UNL     1      38.956   2.044  21.385  1.00  0.00     0.075 A 
HETATM    3  C4  UNL     1      37.974   2.905  22.052  1.00  0.00     0.043 A 
HETATM    4  C5  UNL     1      37.983   4.261  21.736  1.00  0.00     0.077 A 
HETATM    5  C6  UNL     1      37.047   5.046  22.370  1.00  0.00     0.060 A 
HETATM    6  C7  UNL     1      37.035   6.322  22.071  1.00  0.00     0.149 C 
HETATM    7  C8  UNL     1      36.133   4.512  23.290  1.00  0.00     0.143 A 
HETATM    8  N3  UNL     1      35.312   5.332  23.820  1.00  0.00    -0.252 N 
ATOM      9  H3  UNL     1      35.398   6.304  23.522  1.00  0.00     0.196 HD
HETATM   10  N4  UNL     1      36.139   3.220  23.580  1.00  0.00    -0.320 N 
HETATM   11  C9  UNL     1      35.217   2.641  24.517  1.00  0.00     0.159 C 
HETATM   12  C10 UNL     1      37.068   2.435  22.949  1.00  0.00     0.136 A 
HETATM   13  N5  UNL     1      37.054   1.185  23.239  1.00  0.00    -0.280 N 
ATOM     14  H5  UNL     1      36.376   0.826  23.912  1.00  0.00     0.189 HD
HETATM   15  N6  UNL     1      37.963   0.316  22.637  1.00  0.00    -0.261 N 
ENDROOT
BRANCH   4  16
HETATM   16  N1  UNL     1      38.910   4.801  20.821  1.00  0.00    -0.305 N 
ATOM     17  H1  UNL     1      38.671   4.851  19.831  1.00  0.00     0.186 HD
BRANCH  16  18
HETATM   18  N2  UNL     1      40.145   5.267  21.255  1.00  0.00    -0.345 N 
ATOM     19  H22 UNL     1      40.179   5.872  22.075  1.00  0.00     0.176 HD
ATOM     20  H21 UNL     1      41.000   5.007  20.763  1.00  0.00     0.176 HD
ENDBRANCH  16  18
ENDBRANCH   4  16
BRANCH   6  21
HETATM   21  O2  UNL     1      36.108   7.140  22.691  1.00  0.00    -0.372 OA
ATOM     22  H2  UNL     1      36.310   8.062  22.795  1.00  0.00     0.216 HD
ENDBRANCH   6  21
BRANCH   1  23
HETATM   23  O1  UNL     1      39.848  -0.100  21.082  1.00  0.00    -0.340 OA
HETATM   24  C1  UNL     1      40.168   0.004  19.704  1.00  0.00     0.211 C 
ENDBRANCH   1  23
BRANCH   8  25
HETATM   25  O3  UNL     1      34.344   5.078  24.722  1.00  0.00    -0.288 OA
ATOM     26  H3  UNL     1      33.763   4.327  24.768  1.00  0.00     0.244 HD
ENDBRANCH   8  25
BRANCH  15  27
HETATM   27  C11 UNL     1      37.879  -1.088  23.009  1.00  0.00     0.250 C 
BRANCH  27  28
HETATM   28  C12 UNL     1      36.530  -1.330  23.593  1.00  0.00     0.251 C 
HETATM   29  N7  UNL     1      35.486  -1.933  22.845  1.00  0.00    -0.061 NA
HETATM   30  O4  UNL     1      36.264  -1.006  24.790  1.00  0.00    -0.275 OA
ENDBRANCH  27  28
ENDBRANCH  15  27
TORSDOF 7
ENDMDL
MODEL 5
REMARK VINA RESULT: -5.794290831      4.629      8.578
REMARK  7 active torsions:
REMARK  status: ('A' for Active; 'I' for Inactive)
REMARK    1  A    between atoms: O1_2  and  C2_3 
REMARK    2  A    between atoms: C5_6  and  N1_7 
REMARK    3  A    between atoms: N1_7  and  N2_9 
REMARK    4  A    between atoms: C7_13  and  O2_14 
REMARK    5  A    between atoms: N3_17  and  O3_19 
REMARK    6  A    between atoms: N6_26  and  C11_27 
REMARK    7  A    between atoms: C11_27  and  C12_28 
ROOT
HETATM    1  C2  UNL     1      42.059  -1.182  24.972  1.00  0.00     0.160 A 
HETATM    2  C3  UNL     1      41.294  -0.081  24.981  1.00  0.00     0.075 A 
HETATM    3  C4  UNL     1      39.903  -0.229  24.540  1.00  0.00     0.043 A 
HETATM    4  C5  UNL     1      39.100   0.909  24.540  1.00  0.00     0.077 A 
HETATM    5  C6  UNL     1      37.801   0.745  24.114  1.00  0.00     0.060 A 
HETATM    6  C7  UNL     1      37.039   1.811  24.097  1.00  0.00     0.149 C 
HETATM    7  C8  UNL     1      37.308  -0.502  23.705  1.00  0.00     0.143 A 
HETATM    8  N3  UNL     1      36.088  -0.539  23.332  1.00  0.00    -0.252 N 
ATOM      9  H3  UNL     1      35.585   0.348  23.368  1.00  0.00     0.196 HD
HETATM   10  N4  UNL     1      38.085  -1.574  23.711  1.00  0.00    -0.320 N 
HETATM   11  C9  UNL     1      37.611  -2.866  23.298  1.00  0.00     0.159 C 
HETATM   12  C10 UNL     1      39.379  -1.414  24.132  1.00  0.00     0.136 A 
HETATM   13  N5  UNL     1      40.117  -2.465  24.126  1.00  0.00    -0.280 N 
ATOM     14  H5  UNL     1      39.729  -3.358  23.822  1.00  0.00     0.189 HD
HETATM   15  N6  UNL     1      41.448  -2.387  24.535  1.00  0.00    -0.261 N 
ENDROOT
BRANCH   4  16
HETATM   16  N1  UNL     1      39.591   2.161  24.964  1.00  0.00    -0.305 N 
ATOM     17  H1  UNL     1      39.517   2.426  25.946  1.00  0.00     0.186 HD
BRANCH  16  18
HETATM   18  N2  UNL     1      40.175   3.037  24.058  1.00  0.00    -0.345 N 
ATOM     19  H22 UNL     1      39.605   3.402  23.294  1.00  0.00     0.176 HD
ATOM     20  H21 UNL     1      41.153   3.310  24.154  1.00  0.00     0.176 HD
ENDBRANCH  16  18
ENDBRANCH   4  16
BRANCH   6  21
HETATM   21  O2  UNL     1      35.728   1.682  23.675  1.00  0.00    -0.372 OA
ATOM     22  H2  UNL     1      35.158   1.078  24.137  1.00  0.00     0.216 HD
ENDBRANCH   6  21
BRANCH   1  23
HETATM   23  O1  UNL     1      43.375  -1.078  25.383  1.00  0.00    -0.340 OA
HETATM   24  C1  UNL     1      44.385  -0.529  24.552  1.00  0.00     0.211 C 
ENDBRANCH   1  23
BRANCH   8  25
HETATM   25  O3  UNL     1      35.380  -1.599  22.898  1.00  0.00    -0.288 OA
ATOM     26  H3  UNL     1      34.532  -1.604  22.468  1.00  0.00     0.244 HD
ENDBRANCH   8  25
BRANCH  15  27
HETATM   27  C11 UNL     1      42.223  -3.617  24.491  1.00  0.00     0.250 C 
BRANCH  27  28
HETATM   28  C12 UNL     1      42.078  -4.301  25.807  1.00  0.00     0.251 C 
HETATM   29  N7  UNL     1      40.820  -4.429  26.451  1.00  0.00    -0.061 NA
HETATM   30  O4  UNL     1      43.080  -4.800  26.403  1.00  0.00    -0.275 OA
ENDBRANCH  27  28
ENDBRANCH  15  27
TORSDOF 7
ENDMDL
