MODEL 1
REMARK VINA RESULT: -6.871449186      0.000      0.000
REMARK  6 active torsions:
REMARK  status: ('A' for Active; 'I' for Inactive)
REMARK    1  A    between atoms: O1_2  and  C2_3 
REMARK    2  A    between atoms: C5_8  and  C6_9 
REMARK    3  A    between atoms: C6_9  and  N2_10 
REMARK    4  A    between atoms: C8_18  and  N6_19 
REMARK    5  A    between atoms: N8_25  and  N9_27 
REMARK    6  A    between atoms: N10_32  and  N11_34 
ROOT
HETATM    1  N2  UNL     1      35.127  -5.098  12.046  1.00  0.00    -0.254 N 
HETATM    2  N3  UNL     1      34.822  -4.387  10.931  1.00  0.00    -0.237 N 
ATOM      3  H3  UNL     1      34.318  -4.864  10.183  1.00  0.00     0.208 HD
HETATM    4  N4  UNL     1      35.134  -3.130  10.757  1.00  0.00    -0.269 N 
ATOM      5  H4  UNL     1      34.870  -2.664   9.889  1.00  0.00     0.190 HD
HETATM    6  C7  UNL     1      35.792  -2.444  11.694  1.00  0.00     0.154 A 
HETATM    7  N5  UNL     1      36.122  -1.127  11.514  1.00  0.00    -0.174 N 
ATOM      8  H5  UNL     1      35.864  -0.647  10.651  1.00  0.00     0.186 HD
HETATM    9  C8  UNL     1      36.785  -0.470  12.478  1.00  0.00     0.679 A 
HETATM   10  N7  UNL     1      37.144  -1.068  13.635  1.00  0.00    -0.174 N 
ATOM     11  H7  UNL     1      37.648  -0.555  14.358  1.00  0.00     0.186 HD
HETATM   12  C9  UNL     1      36.811  -2.383  13.806  1.00  0.00     0.153 A 
HETATM   13  N8  UNL     1      37.124  -3.013  14.887  1.00  0.00    -0.291 N 
ATOM     14  H8  UNL     1      36.875  -3.993  15.018  1.00  0.00     0.188 HD
HETATM   15  C10 UNL     1      36.132  -3.079  12.834  1.00  0.00     0.102 A 
HETATM   16  C11 UNL     1      35.780  -4.451  13.001  1.00  0.00     0.156 A 
HETATM   17  N10 UNL     1      36.095  -4.895  14.111  1.00  0.00    -0.290 N 
ATOM     18  H10 UNL     1      36.594  -4.200  14.666  1.00  0.00     0.188 HD
ENDROOT
BRANCH   1  19
HETATM   19  C6  UNL     1      34.782  -6.498  12.074  1.00  0.00     0.209 C 
BRANCH  19  20
HETATM   20  C5  UNL     1      35.589  -7.349  11.197  1.00  0.00     0.031 A 
HETATM   21  N1  UNL     1      36.849  -7.655  11.449  1.00  0.00    -0.368 N 
HETATM   22  C4  UNL     1      37.657  -8.411  10.719  1.00  0.00     0.091 A 
ATOM     23  H1  UNL     1      37.245  -7.264  12.304  1.00  0.00     0.165 HD
HETATM   24  C3  UNL     1      37.113  -8.943   9.551  1.00  0.00     0.053 A 
HETATM   25  C2  UNL     1      35.803  -8.686   9.191  1.00  0.00     0.071 A 
HETATM   26  C12 UNL     1      35.055  -7.890  10.019  1.00  0.00     0.063 A 
BRANCH  25  27
HETATM   27  O1  UNL     1      35.271  -9.231   8.007  1.00  0.00    -0.356 OA
HETATM   28  C1  UNL     1      36.185  -9.758   7.075  1.00  0.00     0.210 C 
ENDBRANCH  25  27
ENDBRANCH  19  20
ENDBRANCH   1  19
BRANCH  17  29
HETATM   29  N11 UNL     1      35.955  -6.036  14.767  1.00  0.00    -0.344 N 
ATOM     30 2H11 UNL     1      34.966  -6.251  14.893  1.00  0.00     0.176 HD
ATOM     31 1H11 UNL     1      36.572  -6.741  15.170  1.00  0.00     0.176 HD
ENDBRANCH  17  29
BRANCH  13  32
HETATM   32  N9  UNL     1      37.814  -2.303  15.871  1.00  0.00    -0.344 N 
ATOM     33  H92 UNL     1      37.993  -1.305  15.756  1.00  0.00     0.176 HD
ATOM     34  H91 UNL     1      38.125  -2.819  16.694  1.00  0.00     0.176 HD
ENDBRANCH  13  32
BRANCH   9  35
HETATM   35  N6  UNL     1      37.095   0.788  12.298  1.00  0.00    -0.234 N 
ATOM     36  H62 UNL     1      36.462   1.377  11.757  1.00  0.00     0.174 HD
ATOM     37  H61 UNL     1      37.960   1.151  12.699  1.00  0.00     0.174 HD
ENDBRANCH   9  35
TORSDOF 6
ENDMDL
MODEL 2
REMARK VINA RESULT: -6.739041074      1.149      1.526
REMARK  6 active torsions:
REMARK  status: ('A' for Active; 'I' for Inactive)
REMARK    1  A    between atoms: O1_2  and  C2_3 
REMARK    2  A    between atoms: C5_8  and  C6_9 
REMARK    3  A    between atoms: C6_9  and  N2_10 
REMARK    4  A    between atoms: C8_18  and  N6_19 
REMARK    5  A    between atoms: N8_25  and  N9_27 
REMARK    6  A    between atoms: N10_32  and  N11_34 
ROOT
HETATM    1  N2  UNL     1      35.118  -5.097  12.041  1.00  0.00    -0.254 N 
HETATM    2  N3  UNL     1      34.820  -4.383  10.927  1.00  0.00    -0.237 N 
ATOM      3  H3  UNL     1      34.312  -4.854  10.179  1.00  0.00     0.208 HD
HETATM    4  N4  UNL     1      35.144  -3.128  10.755  1.00  0.00    -0.269 N 
ATOM      5  H4  UNL     1      34.885  -2.660   9.887  1.00  0.00     0.190 HD
HETATM    6  C7  UNL     1      35.808  -2.450  11.692  1.00  0.00     0.154 A 
HETATM    7  N5  UNL     1      36.151  -1.136  11.514  1.00  0.00    -0.174 N 
ATOM      8  H5  UNL     1      35.898  -0.653  10.651  1.00  0.00     0.186 HD
HETATM    9  C8  UNL     1      36.820  -0.487  12.479  1.00  0.00     0.679 A 
HETATM   10  N7  UNL     1      37.172  -1.089  13.635  1.00  0.00    -0.174 N 
ATOM     11  H7  UNL     1      37.681  -0.581  14.359  1.00  0.00     0.186 HD
HETATM   12  C9  UNL     1      36.827  -2.401  13.805  1.00  0.00     0.153 A 
HETATM   13  N8  UNL     1      37.133  -3.034  14.885  1.00  0.00    -0.291 N 
ATOM     14  H8  UNL     1      36.875  -4.012  15.015  1.00  0.00     0.188 HD
HETATM   15  C10 UNL     1      36.141  -3.089  12.832  1.00  0.00     0.102 A 
HETATM   16  C11 UNL     1      35.776  -4.458  12.998  1.00  0.00     0.156 A 
HETATM   17  N10 UNL     1      36.087  -4.905  14.107  1.00  0.00    -0.290 N 
ATOM     18  H10 UNL     1      36.592  -4.216  14.664  1.00  0.00     0.188 HD
ENDROOT
BRANCH   1  19
HETATM   19  C6  UNL     1      34.759  -6.495  12.069  1.00  0.00     0.209 C 
BRANCH  19  20
HETATM   20  C5  UNL     1      35.405  -7.316  11.043  1.00  0.00     0.031 A 
HETATM   21  N1  UNL     1      34.837  -7.603   9.886  1.00  0.00    -0.368 N 
HETATM   22  C4  UNL     1      35.338  -8.336   8.900  1.00  0.00     0.091 A 
ATOM     23  H1  UNL     1      33.906  -7.216   9.733  1.00  0.00     0.165 HD
HETATM   24  C3  UNL     1      36.611  -8.863   9.112  1.00  0.00     0.053 A 
HETATM   25  C2  UNL     1      37.296  -8.625  10.290  1.00  0.00     0.071 A 
HETATM   26  C12 UNL     1      36.684  -7.853  11.244  1.00  0.00     0.063 A 
BRANCH  25  27
HETATM   27  O1  UNL     1      38.581  -9.167  10.487  1.00  0.00    -0.356 OA
HETATM   28  C1  UNL     1      39.374  -9.372   9.342  1.00  0.00     0.210 C 
ENDBRANCH  25  27
ENDBRANCH  19  20
ENDBRANCH   1  19
BRANCH  17  29
HETATM   29  N11 UNL     1      35.935  -6.046  14.762  1.00  0.00    -0.344 N 
ATOM     30 2H11 UNL     1      35.082  -6.516  14.459  1.00  0.00     0.176 HD
ATOM     31 1H11 UNL     1      36.444  -6.563  15.479  1.00  0.00     0.176 HD
ENDBRANCH  17  29
BRANCH  13  32
HETATM   32  N9  UNL     1      37.830  -2.332  15.871  1.00  0.00    -0.344 N 
ATOM     33  H92 UNL     1      38.836  -2.185  15.784  1.00  0.00     0.176 HD
ATOM     34  H91 UNL     1      37.296  -1.980  16.665  1.00  0.00     0.176 HD
ENDBRANCH  13  32
BRANCH   9  35
HETATM   35  N6  UNL     1      37.142   0.769  12.300  1.00  0.00    -0.234 N 
ATOM     36  H62 UNL     1      36.786   1.465  12.955  1.00  0.00     0.174 HD
ATOM     37  H61 UNL     1      37.738   1.023  11.512  1.00  0.00     0.174 HD
ENDBRANCH   9  35
TORSDOF 6
ENDMDL
MODEL 3
REMARK VINA RESULT: -6.736896578      3.617      7.283
REMARK  6 active torsions:
REMARK  status: ('A' for Active; 'I' for Inactive)
REMARK    1  A    between atoms: O1_2  and  C2_3 
REMARK    2  A    between atoms: C5_8  and  C6_9 
REMARK    3  A    between atoms: C6_9  and  N2_10 
REMARK    4  A    between atoms: C8_18  and  N6_19 
REMARK    5  A    between atoms: N8_25  and  N9_27 
REMARK    6  A    between atoms: N10_32  and  N11_34 
ROOT
HETATM    1  N2  UNL     1      37.198  -4.257  12.383  1.00  0.00    -0.254 N 
HETATM    2  N3  UNL     1      37.890  -4.925  13.339  1.00  0.00    -0.237 N 
ATOM      3  H3  UNL     1      38.830  -4.600  13.565  1.00  0.00     0.208 HD
HETATM    4  N4  UNL     1      37.427  -5.961  13.989  1.00  0.00    -0.269 N 
ATOM      5  H4  UNL     1      38.009  -6.410  14.695  1.00  0.00     0.190 HD
HETATM    6  C7  UNL     1      36.205  -6.440  13.745  1.00  0.00     0.154 A 
HETATM    7  N5  UNL     1      35.717  -7.526  14.423  1.00  0.00    -0.174 N 
ATOM      8  H5  UNL     1      36.288  -7.986  15.133  1.00  0.00     0.186 HD
HETATM    9  C8  UNL     1      34.485  -7.980  14.150  1.00  0.00     0.679 A 
HETATM   10  N7  UNL     1      33.697  -7.399  13.220  1.00  0.00    -0.174 N 
ATOM     11  H7  UNL     1      32.762  -7.756  13.024  1.00  0.00     0.186 HD
HETATM   12  C9  UNL     1      34.192  -6.316  12.548  1.00  0.00     0.153 A 
HETATM   13  N8  UNL     1      33.492  -5.715  11.648  1.00  0.00    -0.291 N 
ATOM     14  H8  UNL     1      33.858  -4.906  11.146  1.00  0.00     0.188 HD
HETATM   15  C10 UNL     1      35.452  -5.831  12.808  1.00  0.00     0.102 A 
HETATM   16  C11 UNL     1      35.979  -4.702  12.113  1.00  0.00     0.156 A 
HETATM   17  N10 UNL     1      35.168  -4.202  11.327  1.00  0.00    -0.290 N 
ATOM     18  H10 UNL     1      34.297  -4.733  11.294  1.00  0.00     0.188 HD
ENDROOT
BRANCH   1  19
HETATM   19  C6  UNL     1      37.860  -3.173  11.698  1.00  0.00     0.209 C 
BRANCH  19  20
HETATM   20  C5  UNL     1      37.902  -1.911  12.439  1.00  0.00     0.031 A 
HETATM   21  N1  UNL     1      38.552  -1.767  13.579  1.00  0.00    -0.368 N 
HETATM   22  C4  UNL     1      38.646  -0.671  14.321  1.00  0.00     0.091 A 
ATOM     23  H1  UNL     1      39.037  -2.592  13.930  1.00  0.00     0.165 HD
HETATM   24  C3  UNL     1      37.982   0.456  13.840  1.00  0.00     0.053 A 
HETATM   25  C2  UNL     1      37.270   0.415  12.656  1.00  0.00     0.071 A 
HETATM   26  C12 UNL     1      37.238  -0.770  11.967  1.00  0.00     0.063 A 
BRANCH  25  27
HETATM   27  O1  UNL     1      36.604   1.563  12.185  1.00  0.00    -0.356 OA
HETATM   28  C1  UNL     1      36.810   2.761  12.897  1.00  0.00     0.210 C 
ENDBRANCH  25  27
ENDBRANCH  19  20
ENDBRANCH   1  19
BRANCH  17  29
HETATM   29  N11 UNL     1      35.132  -3.157  10.514  1.00  0.00    -0.344 N 
ATOM     30 2H11 UNL     1      35.755  -2.424  10.855  1.00  0.00     0.176 HD
ATOM     31 1H11 UNL     1      34.651  -2.903   9.652  1.00  0.00     0.176 HD
ENDBRANCH  17  29
BRANCH  13  32
HETATM   32  N9  UNL     1      32.213  -6.212  11.385  1.00  0.00    -0.344 N 
ATOM     33  H92 UNL     1      31.761  -6.844  12.047  1.00  0.00     0.176 HD
ATOM     34  H91 UNL     1      31.762  -5.919  10.519  1.00  0.00     0.176 HD
ENDBRANCH  13  32
BRANCH   9  35
HETATM   35  N6  UNL     1      34.026  -9.017  14.803  1.00  0.00    -0.234 N 
ATOM     36  H62 UNL     1      33.653  -8.880  15.743  1.00  0.00     0.174 HD
ATOM     37  H61 UNL     1      34.053  -9.936  14.362  1.00  0.00     0.174 HD
ENDBRANCH   9  35
TORSDOF 6
ENDMDL
MODEL 4
REMARK VINA RESULT: -6.645596064      4.034      7.957
REMARK  6 active torsions:
REMARK  status: ('A' for Active; 'I' for Inactive)
REMARK    1  A    between atoms: O1_2  and  C2_3 
REMARK    2  A    between atoms: C5_8  and  C6_9 
REMARK    3  A    between atoms: C6_9  and  N2_10 
REMARK    4  A    between atoms: C8_18  and  N6_19 
REMARK    5  A    between atoms: N8_25  and  N9_27 
REMARK    6  A    between atoms: N10_32  and  N11_34 
ROOT
HETATM    1  N2  UNL     1      38.255  -0.858  12.300  1.00  0.00    -0.254 N 
HETATM    2  N3  UNL     1      37.482  -0.687  11.199  1.00  0.00    -0.237 N 
ATOM      3  H3  UNL     1      37.668   0.120  10.603  1.00  0.00     0.208 HD
HETATM    4  N4  UNL     1      36.513  -1.494  10.853  1.00  0.00    -0.269 N 
ATOM      5  H4  UNL     1      35.976  -1.298  10.009  1.00  0.00     0.190 HD
HETATM    6  C7  UNL     1      36.214  -2.570  11.584  1.00  0.00     0.154 A 
HETATM    7  N5  UNL     1      35.199  -3.416  11.226  1.00  0.00    -0.174 N 
ATOM      8  H5  UNL     1      34.652  -3.233  10.384  1.00  0.00     0.186 HD
HETATM    9  C8  UNL     1      34.927  -4.487  11.987  1.00  0.00     0.679 A 
HETATM   10  N7  UNL     1      35.627  -4.765  13.107  1.00  0.00    -0.174 N 
ATOM     11  H7  UNL     1      35.408  -5.584  13.675  1.00  0.00     0.186 HD
HETATM   12  C9  UNL     1      36.638  -3.916  13.458  1.00  0.00     0.153 A 
HETATM   13  N8  UNL     1      37.345  -4.124  14.516  1.00  0.00    -0.291 N 
ATOM     14  H8  UNL     1      38.102  -3.492  14.779  1.00  0.00     0.188 HD
HETATM   15  C10 UNL     1      36.938  -2.811  12.696  1.00  0.00     0.102 A 
HETATM   16  C11 UNL     1      37.990  -1.917  13.053  1.00  0.00     0.156 A 
HETATM   17  N10 UNL     1      38.612  -2.284  14.056  1.00  0.00    -0.290 N 
ATOM     18  H10 UNL     1      38.209  -3.129  14.460  1.00  0.00     0.188 HD
ENDROOT
BRANCH   1  19
HETATM   19  C6  UNL     1      39.244   0.149  12.598  1.00  0.00     0.209 C 
BRANCH  19  20
HETATM   20  C5  UNL     1      38.736   1.522  12.628  1.00  0.00     0.031 A 
HETATM   21  N1  UNL     1      39.473   2.571  12.310  1.00  0.00    -0.368 N 
HETATM   22  C4  UNL     1      39.105   3.845  12.308  1.00  0.00     0.091 A 
ATOM     23  H1  UNL     1      40.436   2.378  12.034  1.00  0.00     0.165 HD
HETATM   24  C3  UNL     1      37.788   4.106  12.685  1.00  0.00     0.053 A 
HETATM   25  C2  UNL     1      36.930   3.080  13.038  1.00  0.00     0.071 A 
HETATM   26  C12 UNL     1      37.415   1.798  13.006  1.00  0.00     0.063 A 
BRANCH  25  27
HETATM   27  O1  UNL     1      35.604   3.362  13.417  1.00  0.00    -0.356 OA
HETATM   28  C1  UNL     1      35.271   4.714  13.633  1.00  0.00     0.210 C 
ENDBRANCH  25  27
ENDBRANCH  19  20
ENDBRANCH   1  19
BRANCH  17  29
HETATM   29  N11 UNL     1      39.663  -1.866  14.744  1.00  0.00    -0.344 N 
ATOM     30 2H11 UNL     1      40.097  -1.070  14.276  1.00  0.00     0.176 HD
ATOM     31 1H11 UNL     1      40.139  -2.132  15.606  1.00  0.00     0.176 HD
ENDBRANCH  17  29
BRANCH  13  32
HETATM   32  N9  UNL     1      37.038  -5.246  15.288  1.00  0.00    -0.344 N 
ATOM     33  H92 UNL     1      36.096  -5.638  15.274  1.00  0.00     0.176 HD
ATOM     34  H91 UNL     1      37.785  -5.648  15.854  1.00  0.00     0.176 HD
ENDBRANCH  13  32
BRANCH   9  35
HETATM   35  N6  UNL     1      33.956  -5.291  11.636  1.00  0.00    -0.234 N 
ATOM     36  H62 UNL     1      33.426  -5.769  12.365  1.00  0.00     0.174 HD
ATOM     37  H61 UNL     1      33.751  -5.422  10.646  1.00  0.00     0.174 HD
ENDBRANCH   9  35
TORSDOF 6
ENDMDL
MODEL 5
REMARK VINA RESULT: -6.338557862      3.026      6.199
REMARK  6 active torsions:
REMARK  status: ('A' for Active; 'I' for Inactive)
REMARK    1  A    between atoms: O1_2  and  C2_3 
REMARK    2  A    between atoms: C5_8  and  C6_9 
REMARK    3  A    between atoms: C6_9  and  N2_10 
REMARK    4  A    between atoms: C8_18  and  N6_19 
REMARK    5  A    between atoms: N8_25  and  N9_27 
REMARK    6  A    between atoms: N10_32  and  N11_34 
ROOT
HETATM    1  N2  UNL     1      36.276  -3.390  12.916  1.00  0.00    -0.254 N 
HETATM    2  N3  UNL     1      35.632  -3.138  11.750  1.00  0.00    -0.237 N 
ATOM      3  H3  UNL     1      35.732  -2.210  11.338  1.00  0.00     0.208 HD
HETATM    4  N4  UNL     1      34.890  -4.012  11.120  1.00  0.00    -0.269 N 
ATOM      5  H4  UNL     1      34.437  -3.746  10.247  1.00  0.00     0.190 HD
HETATM    6  C7  UNL     1      34.715  -5.244  11.600  1.00  0.00     0.154 A 
HETATM    7  N5  UNL     1      33.938  -6.162  10.944  1.00  0.00    -0.174 N 
ATOM      8  H5  UNL     1      33.478  -5.911  10.068  1.00  0.00     0.186 HD
HETATM    9  C8  UNL     1      33.784  -7.391  11.458  1.00  0.00     0.679 A 
HETATM   10  N7  UNL     1      34.376  -7.763  12.613  1.00  0.00    -0.174 N 
ATOM     11  H7  UNL     1      34.249  -8.702  12.991  1.00  0.00     0.186 HD
HETATM   12  C9  UNL     1      35.150  -6.842  13.262  1.00  0.00     0.153 A 
HETATM   13  N8  UNL     1      35.743  -7.133  14.369  1.00  0.00    -0.291 N 
ATOM     14  H8  UNL     1      36.323  -6.448  14.854  1.00  0.00     0.188 HD
HETATM   15  C10 UNL     1      35.324  -5.575  12.757  1.00  0.00     0.102 A 
HETATM   16  C11 UNL     1      36.129  -4.606  13.425  1.00  0.00     0.156 A 
HETATM   17  N10 UNL     1      36.676  -5.053  14.438  1.00  0.00    -0.290 N 
ATOM     18  H10 UNL     1      36.398  -6.017  14.623  1.00  0.00     0.188 HD
ENDROOT
BRANCH   1  19
HETATM   19  C6  UNL     1      37.005  -2.310  13.537  1.00  0.00     0.209 C 
BRANCH  19  20
HETATM   20  C5  UNL     1      38.168  -1.840  12.782  1.00  0.00     0.031 A 
HETATM   21  N1  UNL     1      38.431  -0.561  12.587  1.00  0.00    -0.368 N 
HETATM   22  C4  UNL     1      39.452  -0.039  11.920  1.00  0.00     0.091 A 
ATOM     23  H1  UNL     1      37.773   0.103  12.996  1.00  0.00     0.165 HD
HETATM   24  C3  UNL     1      40.350  -0.947  11.361  1.00  0.00     0.053 A 
HETATM   25  C2  UNL     1      40.169  -2.311  11.504  1.00  0.00     0.071 A 
HETATM   26  C12 UNL     1      39.078  -2.742  12.214  1.00  0.00     0.063 A 
BRANCH  25  27
HETATM   27  O1  UNL     1      41.085  -3.214  10.932  1.00  0.00    -0.356 OA
HETATM   28  C1  UNL     1      42.453  -2.896  11.041  1.00  0.00     0.210 C 
ENDBRANCH  25  27
ENDBRANCH  19  20
ENDBRANCH   1  19
BRANCH  17  29
HETATM   29  N11 UNL     1      37.530  -4.609  15.348  1.00  0.00    -0.344 N 
ATOM     30 2H11 UNL     1      37.033  -4.347  16.199  1.00  0.00     0.176 HD
ATOM     31 1H11 UNL     1      38.537  -4.466  15.412  1.00  0.00     0.176 HD
ENDBRANCH  17  29
BRANCH  13  32
HETATM   32  N9  UNL     1      35.564  -8.421  14.879  1.00  0.00    -0.344 N 
ATOM     33  H92 UNL     1      36.276  -9.136  14.732  1.00  0.00     0.176 HD
ATOM     34  H91 UNL     1      34.704  -8.608  15.394  1.00  0.00     0.176 HD
ENDBRANCH  13  32
BRANCH   9  35
HETATM   35  N6  UNL     1      33.040  -8.261  10.824  1.00  0.00    -0.234 N 
ATOM     36  H62 UNL     1      32.084  -8.415  11.144  1.00  0.00     0.174 HD
ATOM     37  H61 UNL     1      33.431  -8.765  10.028  1.00  0.00     0.174 HD
ENDBRANCH   9  35
TORSDOF 6
ENDMDL
