MODEL 1
REMARK VINA RESULT: -5.833984836      0.000      0.000
REMARK  10 active torsions:
REMARK  status: ('A' for Active; 'I' for Inactive)
REMARK    1  A    between atoms: N1_2  and  C2_4 
REMARK    2  A    between atoms: C3_7  and  N3_8 
REMARK    3  A    between atoms: C5_14  and  N5_15 
REMARK       I    between atoms: N5_15  and  C6_17 
REMARK       I    between atoms: C6_17  and  N6_19 
REMARK    4  A    between atoms: N6_19  and  O2_21 
REMARK    5  A    between atoms: O2_21  and  C7_22 
REMARK    6  A    between atoms: C7_22  and  C8_23 
REMARK    7  A    between atoms: C8_23  and  O3_24 
REMARK    8  A    between atoms: O3_24  and  C9_25 
REMARK    9  A    between atoms: C9_25  and  N7_26 
REMARK   10  A    between atoms: C9_25  and  O4_30 
ROOT
HETATM    1  C2  UNL     1      37.761  -1.146  12.852  1.00  0.00     0.715 A 
HETATM    2  N2  UNL     1      38.069  -1.222  14.151  1.00  0.00    -0.021 N 
ATOM      3  H2  UNL     1      38.761  -0.575  14.529  1.00  0.00     0.203 HD
HETATM    4  C3  UNL     1      37.501  -2.124  14.985  1.00  0.00     0.692 A 
HETATM    5  N4  UNL     1      36.589  -2.978  14.492  1.00  0.00    -0.170 N 
ATOM      6  H4  UNL     1      36.148  -3.664  15.105  1.00  0.00     0.186 HD
HETATM    7  C4  UNL     1      36.258  -2.927  13.192  1.00  0.00     0.204 A 
HETATM    8  C5  UNL     1      35.326  -3.805  12.667  1.00  0.00     0.158 A 
HETATM    9  N8  UNL     1      35.026  -3.733  11.377  1.00  0.00    -0.334 N 
ATOM     10  H8  UNL     1      34.339  -4.371  10.975  1.00  0.00     0.168 HD
HETATM   11  C10 UNL     1      35.632  -2.810  10.595  1.00  0.00     0.200 A 
HETATM   12  N9  UNL     1      36.535  -1.955  11.091  1.00  0.00    -0.273 N 
ATOM     13  H9  UNL     1      36.982  -1.264  10.488  1.00  0.00     0.189 HD
HETATM   14  N10 UNL     1      36.837  -2.023  12.376  1.00  0.00    -0.064 N 
ENDROOT
BRANCH   8  15
HETATM   15  N5  UNL     1      34.804  -4.626  13.464  1.00  0.00    -0.290 N 
HETATM   16  C6  UNL     1      34.550  -6.008  13.285  1.00  0.00     0.345 C 
HETATM   17  O1  UNL     1      33.401  -6.408  12.925  1.00  0.00    -0.245 OA
HETATM   18  N6  UNL     1      35.572  -6.944  13.507  1.00  0.00    -0.216 N 
ATOM     19  H6  UNL     1      36.483  -6.582  13.793  1.00  0.00     0.199 HD
ATOM     20  H5  UNL     1      34.525  -4.242  14.367  1.00  0.00     0.172 HD
BRANCH  18  21
HETATM   21  O2  UNL     1      35.457  -8.242  13.379  1.00  0.00    -0.274 OA
BRANCH  21  22
HETATM   22  C7  UNL     1      36.520  -8.812  12.717  1.00  0.00     0.227 C 
BRANCH  22  23
HETATM   23  C8  UNL     1      36.230  -8.950  11.223  1.00  0.00     0.201 C 
BRANCH  23  24
HETATM   24  O3  UNL     1      36.006  -7.739  10.624  1.00  0.00    -0.337 OA
BRANCH  24  25
HETATM   25  C9  UNL     1      34.778  -7.677   9.964  1.00  0.00     0.464 C 
BRANCH  25  26
HETATM   26  N7  UNL     1      33.734  -8.426  10.592  1.00  0.00    -0.029 N 
ATOM     27  H73 UNL     1      32.978  -7.807  10.883  1.00  0.00     0.280 HD
ATOM     28  H72 UNL     1      33.240  -8.993   9.904  1.00  0.00     0.280 HD
ATOM     29  H71 UNL     1      34.043  -9.002  11.374  1.00  0.00     0.280 HD
ENDBRANCH  25  26
BRANCH  25  30
HETATM   30  O4  UNL     1      34.417  -6.330   9.965  1.00  0.00    -0.350 OA
ATOM     31  H4  UNL     1      33.678  -6.262   9.372  1.00  0.00     0.214 HD
ENDBRANCH  25  30
ENDBRANCH  24  25
ENDBRANCH  23  24
ENDBRANCH  22  23
ENDBRANCH  21  22
ENDBRANCH  18  21
ENDBRANCH   8  15
BRANCH   4  32
HETATM   32  N3  UNL     1      37.811  -2.178  16.222  1.00  0.00    -0.234 N 
ATOM     33  H32 UNL     1      37.232  -1.693  16.908  1.00  0.00     0.174 HD
ATOM     34  H31 UNL     1      38.627  -2.697  16.545  1.00  0.00     0.174 HD
ENDBRANCH   4  32
BRANCH   1  35
HETATM   35  N1  UNL     1      38.259  -0.307  12.037  1.00  0.00    -0.228 N 
HETATM   36  C1  UNL     1      39.435   0.501  12.239  1.00  0.00     0.165 C 
ATOM     37  H1  UNL     1      37.777  -0.194  11.146  1.00  0.00     0.177 HD
ENDBRANCH   1  35
TORSDOF 10
ENDMDL
MODEL 2
REMARK VINA RESULT: -5.676111035      4.237      7.924
REMARK  10 active torsions:
REMARK  status: ('A' for Active; 'I' for Inactive)
REMARK    1  A    between atoms: N1_2  and  C2_4 
REMARK    2  A    between atoms: C3_7  and  N3_8 
REMARK    3  A    between atoms: C5_14  and  N5_15 
REMARK       I    between atoms: N5_15  and  C6_17 
REMARK       I    between atoms: C6_17  and  N6_19 
REMARK    4  A    between atoms: N6_19  and  O2_21 
REMARK    5  A    between atoms: O2_21  and  C7_22 
REMARK    6  A    between atoms: C7_22  and  C8_23 
REMARK    7  A    between atoms: C8_23  and  O3_24 
REMARK    8  A    between atoms: O3_24  and  C9_25 
REMARK    9  A    between atoms: C9_25  and  N7_26 
REMARK   10  A    between atoms: C9_25  and  O4_30 
ROOT
HETATM    1  C2  UNL     1      35.163  -6.891  13.652  1.00  0.00     0.715 A 
HETATM    2  N2  UNL     1      34.019  -6.973  12.965  1.00  0.00    -0.021 N 
ATOM      3  H2  UNL     1      33.365  -7.722  13.192  1.00  0.00     0.203 HD
HETATM    4  C3  UNL     1      33.692  -6.102  11.982  1.00  0.00     0.692 A 
HETATM    5  N4  UNL     1      34.550  -5.113  11.681  1.00  0.00    -0.170 N 
ATOM      6  H4  UNL     1      34.322  -4.445  10.944  1.00  0.00     0.186 HD
HETATM    7  C4  UNL     1      35.707  -5.004  12.352  1.00  0.00     0.204 A 
HETATM    8  C5  UNL     1      36.606  -3.995  12.050  1.00  0.00     0.158 A 
HETATM    9  N8  UNL     1      37.743  -3.918  12.727  1.00  0.00    -0.334 N 
ATOM     10  H8  UNL     1      38.414  -3.179  12.517  1.00  0.00     0.168 HD
HETATM   11  C10 UNL     1      38.012  -4.823  13.698  1.00  0.00     0.200 A 
HETATM   12  N9  UNL     1      37.152  -5.803  14.000  1.00  0.00    -0.273 N 
ATOM     13  H9  UNL     1      37.368  -6.476  14.735  1.00  0.00     0.189 HD
HETATM   14  N10 UNL     1      36.016  -5.882  13.328  1.00  0.00    -0.064 N 
ENDROOT
BRANCH   8  15
HETATM   15  N5  UNL     1      36.275  -3.192  11.140  1.00  0.00    -0.290 N 
HETATM   16  C6  UNL     1      35.857  -1.842  11.247  1.00  0.00     0.345 C 
HETATM   17  O1  UNL     1      34.623  -1.552  11.249  1.00  0.00    -0.245 OA
HETATM   18  N6  UNL     1      36.811  -0.818  11.352  1.00  0.00    -0.216 N 
ATOM     19  H6  UNL     1      37.794  -1.094  11.350  1.00  0.00     0.199 HD
ATOM     20  H5  UNL     1      36.314  -3.565  10.192  1.00  0.00     0.172 HD
BRANCH  18  21
HETATM   21  O2  UNL     1      36.548   0.460  11.453  1.00  0.00    -0.274 OA
BRANCH  21  22
HETATM   22  C7  UNL     1      36.724   0.946  12.727  1.00  0.00     0.227 C 
BRANCH  22  23
HETATM   23  C8  UNL     1      36.751   2.474  12.736  1.00  0.00     0.201 C 
BRANCH  23  24
HETATM   24  O3  UNL     1      35.658   3.009  13.366  1.00  0.00    -0.337 OA
BRANCH  24  25
HETATM   25  C9  UNL     1      35.824   4.355  13.693  1.00  0.00     0.464 C 
BRANCH  25  26
HETATM   26  N7  UNL     1      37.134   4.867  13.438  1.00  0.00    -0.029 N 
ATOM     27  H73 UNL     1      37.496   5.347  14.261  1.00  0.00     0.280 HD
ATOM     28  H72 UNL     1      37.807   4.103  13.371  1.00  0.00     0.280 HD
ATOM     29  H71 UNL     1      37.197   5.470  12.618  1.00  0.00     0.280 HD
ENDBRANCH  25  26
BRANCH  25  30
HETATM   30  O4  UNL     1      34.915   5.051  12.894  1.00  0.00    -0.350 OA
ATOM     31  H4  UNL     1      34.810   5.901  13.305  1.00  0.00     0.214 HD
ENDBRANCH  25  30
ENDBRANCH  24  25
ENDBRANCH  23  24
ENDBRANCH  22  23
ENDBRANCH  21  22
ENDBRANCH  18  21
ENDBRANCH   8  15
BRANCH   4  32
HETATM   32  N3  UNL     1      32.594  -6.200  11.340  1.00  0.00    -0.234 N 
ATOM     33  H32 UNL     1      31.761  -6.546  11.817  1.00  0.00     0.174 HD
ATOM     34  H31 UNL     1      32.526  -5.940  10.356  1.00  0.00     0.174 HD
ENDBRANCH   4  32
BRANCH   1  35
HETATM   35  N1  UNL     1      35.503  -7.678  14.592  1.00  0.00    -0.228 N 
HETATM   36  C1  UNL     1      34.980  -8.996  14.846  1.00  0.00     0.165 C 
ATOM     37  H1  UNL     1      36.221  -7.341  15.232  1.00  0.00     0.177 HD
ENDBRANCH   1  35
TORSDOF 10
ENDMDL
MODEL 3
REMARK VINA RESULT: -5.649611679      4.897      8.145
REMARK  10 active torsions:
REMARK  status: ('A' for Active; 'I' for Inactive)
REMARK    1  A    between atoms: N1_2  and  C2_4 
REMARK    2  A    between atoms: C3_7  and  N3_8 
REMARK    3  A    between atoms: C5_14  and  N5_15 
REMARK       I    between atoms: N5_15  and  C6_17 
REMARK       I    between atoms: C6_17  and  N6_19 
REMARK    4  A    between atoms: N6_19  and  O2_21 
REMARK    5  A    between atoms: O2_21  and  C7_22 
REMARK    6  A    between atoms: C7_22  and  C8_23 
REMARK    7  A    between atoms: C8_23  and  O3_24 
REMARK    8  A    between atoms: O3_24  and  C9_25 
REMARK    9  A    between atoms: C9_25  and  N7_26 
REMARK   10  A    between atoms: C9_25  and  O4_30 
ROOT
HETATM    1  C2  UNL     1      35.297  -4.583  12.498  1.00  0.00     0.715 A 
HETATM    2  N2  UNL     1      35.980  -5.060  13.543  1.00  0.00    -0.021 N 
ATOM      3  H2  UNL     1      35.820  -6.026  13.833  1.00  0.00     0.203 HD
HETATM    4  C3  UNL     1      36.876  -4.316  14.233  1.00  0.00     0.692 A 
HETATM    5  N4  UNL     1      37.091  -3.046  13.854  1.00  0.00    -0.170 N 
ATOM      6  H4  UNL     1      37.763  -2.468  14.360  1.00  0.00     0.186 HD
HETATM    7  C4  UNL     1      36.420  -2.537  12.809  1.00  0.00     0.204 A 
HETATM    8  C5  UNL     1      36.624  -1.227  12.410  1.00  0.00     0.158 A 
HETATM    9  N8  UNL     1      35.941  -0.752  11.377  1.00  0.00    -0.334 N 
ATOM     10  H8  UNL     1      36.082   0.210  11.070  1.00  0.00     0.168 HD
HETATM   11  C10 UNL     1      35.057  -1.548  10.731  1.00  0.00     0.200 A 
HETATM   12  N9  UNL     1      34.850  -2.816  11.107  1.00  0.00    -0.273 N 
ATOM     13  H9  UNL     1      34.181  -3.403  10.609  1.00  0.00     0.189 HD
HETATM   14  N10 UNL     1      35.530  -3.293  12.135  1.00  0.00    -0.064 N 
ENDROOT
BRANCH   8  15
HETATM   15  N5  UNL     1      37.469  -0.559  13.059  1.00  0.00    -0.290 N 
HETATM   16  C6  UNL     1      38.242   0.553  12.641  1.00  0.00     0.345 C 
HETATM   17  O1  UNL     1      39.435   0.391  12.242  1.00  0.00    -0.245 OA
HETATM   18  N6  UNL     1      37.688   1.842  12.670  1.00  0.00    -0.216 N 
ATOM     19  H6  UNL     1      36.725   1.930  12.996  1.00  0.00     0.199 HD
ATOM     20  H5  UNL     1      37.619  -0.861  14.022  1.00  0.00     0.172 HD
BRANCH  18  21
HETATM   21  O2  UNL     1      38.302   2.943  12.314  1.00  0.00    -0.274 OA
BRANCH  21  22
HETATM   22  C7  UNL     1      38.848   3.622  13.379  1.00  0.00     0.227 C 
BRANCH  22  23
HETATM   23  C8  UNL     1      38.035   4.872  13.710  1.00  0.00     0.201 C 
BRANCH  23  24
HETATM   24  O3  UNL     1      36.895   4.965  12.956  1.00  0.00    -0.337 OA
BRANCH  24  25
HETATM   25  C9  UNL     1      35.731   4.777  13.703  1.00  0.00     0.464 C 
BRANCH  25  26
HETATM   26  N7  UNL     1      34.642   5.620  13.321  1.00  0.00    -0.029 N 
ATOM     27  H73 UNL     1      34.938   6.279  12.600  1.00  0.00     0.280 HD
ATOM     28  H72 UNL     1      33.948   5.088  12.797  1.00  0.00     0.280 HD
ATOM     29  H71 UNL     1      34.202   6.115  14.096  1.00  0.00     0.280 HD
ENDBRANCH  25  26
BRANCH  25  30
HETATM   30  O4  UNL     1      35.358   3.450  13.491  1.00  0.00    -0.350 OA
ATOM     31  H4  UNL     1      36.087   2.925  13.802  1.00  0.00     0.214 HD
ENDBRANCH  25  30
ENDBRANCH  24  25
ENDBRANCH  23  24
ENDBRANCH  22  23
ENDBRANCH  21  22
ENDBRANCH  18  21
ENDBRANCH   8  15
BRANCH   4  32
HETATM   32  N3  UNL     1      37.517  -4.793  15.228  1.00  0.00    -0.234 N 
ATOM     33  H32 UNL     1      38.313  -5.410  15.065  1.00  0.00     0.174 HD
ATOM     34  H31 UNL     1      37.252  -4.574  16.188  1.00  0.00     0.174 HD
ENDBRANCH   4  32
BRANCH   1  35
HETATM   35  N1  UNL     1      34.457  -5.251  11.815  1.00  0.00    -0.228 N 
HETATM   36  C1  UNL     1      33.665  -6.364  12.269  1.00  0.00     0.165 C 
ATOM     37  H1  UNL     1      34.332  -4.968  10.843  1.00  0.00     0.177 HD
ENDBRANCH   1  35
TORSDOF 10
ENDMDL
MODEL 4
REMARK VINA RESULT: -5.617999007      1.840      2.559
REMARK  10 active torsions:
REMARK  status: ('A' for Active; 'I' for Inactive)
REMARK    1  A    between atoms: N1_2  and  C2_4 
REMARK    2  A    between atoms: C3_7  and  N3_8 
REMARK    3  A    between atoms: C5_14  and  N5_15 
REMARK       I    between atoms: N5_15  and  C6_17 
REMARK       I    between atoms: C6_17  and  N6_19 
REMARK    4  A    between atoms: N6_19  and  O2_21 
REMARK    5  A    between atoms: O2_21  and  C7_22 
REMARK    6  A    between atoms: C7_22  and  C8_23 
REMARK    7  A    between atoms: C8_23  and  O3_24 
REMARK    8  A    between atoms: O3_24  and  C9_25 
REMARK    9  A    between atoms: C9_25  and  N7_26 
REMARK   10  A    between atoms: C9_25  and  O4_30 
ROOT
HETATM    1  C2  UNL     1      39.696  -0.952  14.995  1.00  0.00     0.715 A 
HETATM    2  N2  UNL     1      39.239  -1.394  16.172  1.00  0.00    -0.021 N 
ATOM      3  H2  UNL     1      39.831  -1.290  16.997  1.00  0.00     0.203 HD
HETATM    4  C3  UNL     1      38.024  -1.973  16.313  1.00  0.00     0.692 A 
HETATM    5  N4  UNL     1      37.242  -2.111  15.231  1.00  0.00    -0.170 N 
ATOM      6  H4  UNL     1      36.322  -2.543  15.317  1.00  0.00     0.186 HD
HETATM    7  C4  UNL     1      37.672  -1.678  14.035  1.00  0.00     0.204 A 
HETATM    8  C5  UNL     1      36.881  -1.820  12.908  1.00  0.00     0.158 A 
HETATM    9  N8  UNL     1      37.337  -1.388  11.740  1.00  0.00    -0.334 N 
ATOM     10  H8  UNL     1      36.766  -1.483  10.901  1.00  0.00     0.168 HD
HETATM   11  C10 UNL     1      38.563  -0.820  11.664  1.00  0.00     0.200 A 
HETATM   12  N9  UNL     1      39.338  -0.677  12.747  1.00  0.00    -0.273 N 
ATOM     13  H9  UNL     1      40.259  -0.246  12.673  1.00  0.00     0.189 HD
HETATM   14  N10 UNL     1      38.886  -1.106  13.913  1.00  0.00    -0.064 N 
ENDROOT
BRANCH   8  15
HETATM   15  N5  UNL     1      35.752  -2.351  13.067  1.00  0.00    -0.290 N 
HETATM   16  C6  UNL     1      35.346  -3.683  12.808  1.00  0.00     0.345 C 
HETATM   17  O1  UNL     1      34.762  -3.976  11.721  1.00  0.00    -0.245 OA
HETATM   18  N6  UNL     1      35.588  -4.688  13.758  1.00  0.00    -0.216 N 
ATOM     19  H6  UNL     1      36.062  -4.412  14.619  1.00  0.00     0.199 HD
ATOM     20  H5  UNL     1      35.027  -1.735  13.435  1.00  0.00     0.172 HD
BRANCH  18  21
HETATM   21  O2  UNL     1      35.257  -5.949  13.634  1.00  0.00    -0.274 OA
BRANCH  21  22
HETATM   22  C7  UNL     1      36.276  -6.724  13.132  1.00  0.00     0.227 C 
BRANCH  22  23
HETATM   23  C8  UNL     1      35.891  -7.339  11.788  1.00  0.00     0.201 C 
BRANCH  23  24
HETATM   24  O3  UNL     1      34.647  -7.915  11.818  1.00  0.00    -0.337 OA
BRANCH  24  25
HETATM   25  C9  UNL     1      33.722  -7.253  11.010  1.00  0.00     0.464 C 
BRANCH  25  26
HETATM   26  N7  UNL     1      32.845  -6.374  11.718  1.00  0.00    -0.029 N 
ATOM     27  H73 UNL     1      32.046  -6.889  12.087  1.00  0.00     0.280 HD
ATOM     28  H72 UNL     1      33.274  -6.070  12.591  1.00  0.00     0.280 HD
ATOM     29  H71 UNL     1      32.530  -5.569  11.176  1.00  0.00     0.280 HD
ENDBRANCH  25  26
BRANCH  25  30
HETATM   30  O4  UNL     1      34.478  -6.495  10.115  1.00  0.00    -0.350 OA
ATOM     31  H4  UNL     1      34.458  -6.973   9.294  1.00  0.00     0.214 HD
ENDBRANCH  25  30
ENDBRANCH  24  25
ENDBRANCH  23  24
ENDBRANCH  22  23
ENDBRANCH  21  22
ENDBRANCH  18  21
ENDBRANCH   8  15
BRANCH   4  32
HETATM   32  N3  UNL     1      37.609  -2.386  17.447  1.00  0.00    -0.234 N 
ATOM     33  H32 UNL     1      36.617  -2.318  17.675  1.00  0.00     0.174 HD
ATOM     34  H31 UNL     1      38.246  -2.786  18.136  1.00  0.00     0.174 HD
ENDBRANCH   4  32
BRANCH   1  35
HETATM   35  N1  UNL     1      40.823  -0.391  14.820  1.00  0.00    -0.228 N 
HETATM   36  C1  UNL     1      41.527   0.446  15.757  1.00  0.00     0.165 C 
ATOM     37  H1  UNL     1      41.277  -0.549  13.920  1.00  0.00     0.177 HD
ENDBRANCH   1  35
TORSDOF 10
ENDMDL
MODEL 5
REMARK VINA RESULT: -5.580309098      1.860      3.729
REMARK  10 active torsions:
REMARK  status: ('A' for Active; 'I' for Inactive)
REMARK    1  A    between atoms: N1_2  and  C2_4 
REMARK    2  A    between atoms: C3_7  and  N3_8 
REMARK    3  A    between atoms: C5_14  and  N5_15 
REMARK       I    between atoms: N5_15  and  C6_17 
REMARK       I    between atoms: C6_17  and  N6_19 
REMARK    4  A    between atoms: N6_19  and  O2_21 
REMARK    5  A    between atoms: O2_21  and  C7_22 
REMARK    6  A    between atoms: C7_22  and  C8_23 
REMARK    7  A    between atoms: C8_23  and  O3_24 
REMARK    8  A    between atoms: O3_24  and  C9_25 
REMARK    9  A    between atoms: C9_25  and  N7_26 
REMARK   10  A    between atoms: C9_25  and  O4_30 
ROOT
HETATM    1  C2  UNL     1      36.415  -2.653  13.604  1.00  0.00     0.715 A 
HETATM    2  N2  UNL     1      35.955  -1.788  12.695  1.00  0.00    -0.021 N 
ATOM      3  H2  UNL     1      36.136  -0.793  12.831  1.00  0.00     0.203 HD
HETATM    4  C3  UNL     1      35.260  -2.177  11.600  1.00  0.00     0.692 A 
HETATM    5  N4  UNL     1      35.021  -3.486  11.417  1.00  0.00    -0.170 N 
ATOM      6  H4  UNL     1      34.500  -3.800  10.598  1.00  0.00     0.186 HD
HETATM    7  C4  UNL     1      35.469  -4.380  12.312  1.00  0.00     0.204 A 
HETATM    8  C5  UNL     1      35.224  -5.732  12.142  1.00  0.00     0.158 A 
HETATM    9  N8  UNL     1      35.675  -6.590  13.048  1.00  0.00    -0.334 N 
ATOM     10  H8  UNL     1      35.505  -7.589  12.935  1.00  0.00     0.168 HD
HETATM   11  C10 UNL     1      36.361  -6.135  14.122  1.00  0.00     0.200 A 
HETATM   12  N9  UNL     1      36.604  -4.831  14.299  1.00  0.00    -0.273 N 
ATOM     13  H9  UNL     1      37.124  -4.505  15.114  1.00  0.00     0.189 HD
HETATM   14  N10 UNL     1      36.158  -3.973  13.397  1.00  0.00    -0.064 N 
ENDROOT
BRANCH   8  15
HETATM   15  N5  UNL     1      34.587  -6.070  11.112  1.00  0.00    -0.290 N 
HETATM   16  C6  UNL     1      34.343  -7.368  10.597  1.00  0.00     0.345 C 
HETATM   17  O1  UNL     1      35.075  -7.840   9.676  1.00  0.00    -0.245 OA
HETATM   18  N6  UNL     1      33.284  -8.137  11.105  1.00  0.00    -0.216 N 
ATOM     19  H6  UNL     1      32.719  -7.722  11.847  1.00  0.00     0.199 HD
ATOM     20  H5  UNL     1      34.189  -5.302  10.572  1.00  0.00     0.172 HD
BRANCH  18  21
HETATM   21  O2  UNL     1      32.960  -9.342  10.708  1.00  0.00    -0.274 OA
BRANCH  21  22
HETATM   22  C7  UNL     1      33.936 -10.274  10.972  1.00  0.00     0.227 C 
BRANCH  22  23
HETATM   23  C8  UNL     1      33.954 -10.650  12.453  1.00  0.00     0.201 C 
BRANCH  23  24
HETATM   24  O3  UNL     1      34.713  -9.785  13.198  1.00  0.00    -0.337 OA
BRANCH  24  25
HETATM   25  C9  UNL     1      34.088  -9.399  14.385  1.00  0.00     0.464 C 
BRANCH  25  26
HETATM   26  N7  UNL     1      34.988  -9.124  15.461  1.00  0.00    -0.029 N 
ATOM     27  H73 UNL     1      35.475  -8.242  15.303  1.00  0.00     0.280 HD
ATOM     28  H72 UNL     1      34.470  -8.888  16.307  1.00  0.00     0.280 HD
ATOM     29  H71 UNL     1      35.658  -9.871  15.650  1.00  0.00     0.280 HD
ENDBRANCH  25  26
BRANCH  25  30
HETATM   30  O4  UNL     1      33.394  -8.228  14.081  1.00  0.00    -0.350 OA
ATOM     31  H4  UNL     1      33.901  -7.522  14.464  1.00  0.00     0.214 HD
ENDBRANCH  25  30
ENDBRANCH  24  25
ENDBRANCH  23  24
ENDBRANCH  22  23
ENDBRANCH  21  22
ENDBRANCH  18  21
ENDBRANCH   8  15
BRANCH   4  32
HETATM   32  N3  UNL     1      34.832  -1.333  10.745  1.00  0.00    -0.234 N 
ATOM     33  H32 UNL     1      34.204  -1.643  10.003  1.00  0.00     0.174 HD
ATOM     34  H31 UNL     1      35.101  -0.350  10.784  1.00  0.00     0.174 HD
ENDBRANCH   4  32
BRANCH   1  35
HETATM   35  N1  UNL     1      37.082  -2.333  14.638  1.00  0.00    -0.228 N 
HETATM   36  C1  UNL     1      38.251  -1.491  14.685  1.00  0.00     0.165 C 
ATOM     37  H1  UNL     1      36.757  -2.711  15.527  1.00  0.00     0.177 HD
ENDBRANCH   1  35
TORSDOF 10
ENDMDL
