MODEL 1
REMARK VINA RESULT: -7.526655956      0.000      0.000
REMARK  7 active torsions:
REMARK  status: ('A' for Active; 'I' for Inactive)
REMARK    1  A    between atoms: C2_2  and  N1_3 
REMARK    2  A    between atoms: C2_2  and  C9_25 
REMARK    3  A    between atoms: N1_3  and  C3_5 
REMARK    4  A    between atoms: C3_5  and  C4_6 
REMARK    5  A    between atoms: C4_6  and  N2_7 
REMARK    6  A    between atoms: C6_14  and  N6_15 
REMARK    7  A    between atoms: C7_20  and  N8_21 
ROOT
HETATM    1  N2  UNL     1      35.504  -4.655  12.598  1.00  0.00    -0.267 N 
HETATM    2  N3  UNL     1      36.429  -4.430  13.532  1.00  0.00    -0.018 NA
HETATM    3  N4  UNL     1      36.479  -5.459  14.359  1.00  0.00    -0.267 N 
ATOM      4  H4  UNL     1      37.101  -5.543  15.163  1.00  0.00     0.186 HD
HETATM    5  C5  UNL     1      35.579  -6.377  13.970  1.00  0.00     0.166 A 
HETATM    6  N5  UNL     1      35.229  -7.581  14.452  1.00  0.00    -0.173 N 
ATOM      7  H5  UNL     1      35.698  -7.945  15.282  1.00  0.00     0.186 HD
HETATM    8  C6  UNL     1      34.272  -8.315  13.861  1.00  0.00     0.679 A 
HETATM    9  N7  UNL     1      33.675  -7.806  12.771  1.00  0.00    -0.175 N 
ATOM     10  H7  UNL     1      32.946  -8.360  12.320  1.00  0.00     0.186 HD
HETATM   11  C7  UNL     1      33.981  -6.608  12.240  1.00  0.00     0.146 A 
HETATM   12  C8  UNL     1      34.959  -5.843  12.834  1.00  0.00     0.138 A 
ENDROOT
BRANCH   1  13
HETATM   13  C4  UNL     1      35.205  -3.729  11.545  1.00  0.00     0.166 C 
BRANCH  13  14
HETATM   14  C3  UNL     1      35.526  -2.298  11.927  1.00  0.00     0.141 C 
BRANCH  14  15
HETATM   15  N1  UNL     1      36.709  -1.810  11.271  1.00  0.00    -0.391 N 
ATOM     16  H1  UNL     1      36.694  -1.750  10.252  1.00  0.00     0.159 HD
BRANCH  15  17
HETATM   17  C2  UNL     1      37.881  -1.411  11.927  1.00  0.00     0.016 C 
HETATM   18  C1  UNL     1      38.901  -2.421  12.270  1.00  0.00     0.069 C 
BRANCH  17  19
HETATM   19  C9  UNL     1      38.094  -0.155  12.245  1.00  0.00     0.051 A 
HETATM   20  C10 UNL     1      39.349   0.466  12.189  1.00  0.00     0.126 A 
HETATM   21  N9  UNL     1      39.170   1.727  12.580  1.00  0.00    -0.290 N 
HETATM   22  N10 UNL     1      37.906   1.986  12.887  1.00  0.00    -0.164 N 
ATOM     23  H9  UNL     1      39.920   2.415  12.637  1.00  0.00     0.188 HD
HETATM   24  C11 UNL     1      37.242   0.841  12.685  1.00  0.00     0.169 A 
HETATM   25  N13 UNL     1      36.979   2.933  13.327  1.00  0.00     0.016 NA
HETATM   26  N11 UNL     1      35.977   0.994  12.962  1.00  0.00    -0.268 N 
HETATM   27  N12 UNL     1      35.736   2.305  13.379  1.00  0.00    -0.005 NA
ATOM     28  H11 UNL     1      35.269   0.265  12.885  1.00  0.00     0.185 HD
ENDBRANCH  17  19
ENDBRANCH  15  17
ENDBRANCH  14  15
ENDBRANCH  13  14
ENDBRANCH   1  13
BRANCH  11  29
HETATM   29  N8  UNL     1      33.386  -6.147  11.192  1.00  0.00    -0.383 N 
ATOM     30  H82 UNL     1      33.954  -5.788  10.426  1.00  0.00     0.157 HD
ATOM     31  H81 UNL     1      32.369  -6.127  11.108  1.00  0.00     0.157 HD
ENDBRANCH  11  29
BRANCH   8  32
HETATM   32  N6  UNL     1      33.933  -9.490  14.332  1.00  0.00    -0.234 N 
ATOM     33  H62 UNL     1      33.773 -10.282  13.710  1.00  0.00     0.174 HD
ATOM     34  H61 UNL     1      33.821  -9.642  15.335  1.00  0.00     0.174 HD
ENDBRANCH   8  32
TORSDOF 7
ENDMDL
MODEL 2
REMARK VINA RESULT: -7.459201151      1.369      2.771
REMARK  7 active torsions:
REMARK  status: ('A' for Active; 'I' for Inactive)
REMARK    1  A    between atoms: C2_2  and  N1_3 
REMARK    2  A    between atoms: C2_2  and  C9_25 
REMARK    3  A    between atoms: N1_3  and  C3_5 
REMARK    4  A    between atoms: C3_5  and  C4_6 
REMARK    5  A    between atoms: C4_6  and  N2_7 
REMARK    6  A    between atoms: C6_14  and  N6_15 
REMARK    7  A    between atoms: C7_20  and  N8_21 
ROOT
HETATM    1  N2  UNL     1      36.725  -2.925  12.250  1.00  0.00    -0.267 N 
HETATM    2  N3  UNL     1      36.177  -2.406  11.150  1.00  0.00    -0.018 NA
HETATM    3  N4  UNL     1      35.172  -3.169  10.759  1.00  0.00    -0.267 N 
ATOM      4  H4  UNL     1      34.582  -2.999   9.943  1.00  0.00     0.186 HD
HETATM    5  C5  UNL     1      35.051  -4.203  11.606  1.00  0.00     0.166 A 
HETATM    6  N5  UNL     1      34.210  -5.250  11.664  1.00  0.00    -0.173 N 
ATOM      7  H5  UNL     1      33.485  -5.350  10.955  1.00  0.00     0.186 HD
HETATM    8  C6  UNL     1      34.308  -6.167  12.641  1.00  0.00     0.679 A 
HETATM    9  N7  UNL     1      35.274  -6.005  13.558  1.00  0.00    -0.175 N 
ATOM     10  H7  UNL     1      35.353  -6.700  14.301  1.00  0.00     0.186 HD
HETATM   11  C7  UNL     1      36.146  -4.980  13.555  1.00  0.00     0.146 A 
HETATM   12  C8  UNL     1      36.060  -4.030  12.561  1.00  0.00     0.138 A 
ENDROOT
BRANCH   1  13
HETATM   13  C4  UNL     1      37.840  -2.331  12.930  1.00  0.00     0.166 C 
BRANCH  13  14
HETATM   14  C3  UNL     1      38.989  -2.023  11.993  1.00  0.00     0.141 C 
BRANCH  14  15
HETATM   15  N1  UNL     1      39.005  -0.643  11.585  1.00  0.00    -0.391 N 
ATOM     16  H1  UNL     1      38.566  -0.409  10.694  1.00  0.00     0.159 HD
BRANCH  15  17
HETATM   17  C2  UNL     1      39.579   0.402  12.320  1.00  0.00     0.016 C 
HETATM   18  C1  UNL     1      40.923   0.225  12.904  1.00  0.00     0.069 C 
BRANCH  17  19
HETATM   19  C9  UNL     1      38.949   1.538  12.503  1.00  0.00     0.051 A 
HETATM   20  C10 UNL     1      39.551   2.798  12.387  1.00  0.00     0.126 A 
HETATM   21  N9  UNL     1      38.605   3.700  12.640  1.00  0.00    -0.290 N 
HETATM   22  N10 UNL     1      37.434   3.141  12.912  1.00  0.00    -0.164 N 
ATOM     23  H9  UNL     1      38.763   4.708  12.626  1.00  0.00     0.188 HD
HETATM   24  C11 UNL     1      37.635   1.820  12.831  1.00  0.00     0.169 A 
HETATM   25  N13 UNL     1      36.092   3.338  13.245  1.00  0.00     0.016 NA
HETATM   26  N11 UNL     1      36.531   1.175  13.085  1.00  0.00    -0.268 N 
HETATM   27  N12 UNL     1      35.502   2.080  13.360  1.00  0.00    -0.005 NA
ATOM     28  H11 UNL     1      36.432   0.160  13.085  1.00  0.00     0.185 HD
ENDBRANCH  17  19
ENDBRANCH  15  17
ENDBRANCH  14  15
ENDBRANCH  13  14
ENDBRANCH   1  13
BRANCH  11  29
HETATM   29  N8  UNL     1      37.065  -4.855  14.452  1.00  0.00    -0.383 N 
ATOM     30  H82 UNL     1      37.068  -5.499  15.242  1.00  0.00     0.157 HD
ATOM     31  H81 UNL     1      37.785  -4.133  14.397  1.00  0.00     0.157 HD
ENDBRANCH  11  29
BRANCH   8  32
HETATM   32  N6  UNL     1      33.485  -7.186  12.696  1.00  0.00    -0.234 N 
ATOM     33  H62 UNL     1      33.439  -7.867  11.938  1.00  0.00     0.174 HD
ATOM     34  H61 UNL     1      32.871  -7.324  13.498  1.00  0.00     0.174 HD
ENDBRANCH   8  32
TORSDOF 7
ENDMDL
MODEL 3
REMARK VINA RESULT: -7.368361393      1.360      2.032
REMARK  7 active torsions:
REMARK  status: ('A' for Active; 'I' for Inactive)
REMARK    1  A    between atoms: C2_2  and  N1_3 
REMARK    2  A    between atoms: C2_2  and  C9_25 
REMARK    3  A    between atoms: N1_3  and  C3_5 
REMARK    4  A    between atoms: C3_5  and  C4_6 
REMARK    5  A    between atoms: C4_6  and  N2_7 
REMARK    6  A    between atoms: C6_14  and  N6_15 
REMARK    7  A    between atoms: C7_20  and  N8_21 
ROOT
HETATM    1  N2  UNL     1      36.820  -3.453  13.358  1.00  0.00    -0.267 N 
HETATM    2  N3  UNL     1      37.421  -4.043  14.392  1.00  0.00    -0.018 NA
HETATM    3  N4  UNL     1      36.893  -5.240  14.582  1.00  0.00    -0.267 N 
ATOM      4  H4  UNL     1      37.171  -5.900  15.309  1.00  0.00     0.186 HD
HETATM    5  C5  UNL     1      35.934  -5.446  13.666  1.00  0.00     0.166 A 
HETATM    6  N5  UNL     1      35.105  -6.474  13.420  1.00  0.00    -0.173 N 
ATOM      7  H5  UNL     1      35.152  -7.307  14.006  1.00  0.00     0.186 HD
HETATM    8  C6  UNL     1      34.214  -6.424  12.416  1.00  0.00     0.679 A 
HETATM    9  N7  UNL     1      34.177  -5.312  11.665  1.00  0.00    -0.175 N 
ATOM     10  H7  UNL     1      33.501  -5.270  10.902  1.00  0.00     0.186 HD
HETATM   11  C7  UNL     1      34.981  -4.250  11.860  1.00  0.00     0.146 A 
HETATM   12  C8  UNL     1      35.900  -4.285  12.885  1.00  0.00     0.138 A 
ENDROOT
BRANCH   1  13
HETATM   13  C4  UNL     1      37.165  -2.142  12.888  1.00  0.00     0.166 C 
BRANCH  13  14
HETATM   14  C3  UNL     1      38.285  -2.173  11.867  1.00  0.00     0.141 C 
BRANCH  14  15
HETATM   15  N1  UNL     1      38.720  -0.853  11.495  1.00  0.00    -0.391 N 
ATOM     16  H1  UNL     1      38.575  -0.563  10.527  1.00  0.00     0.159 HD
BRANCH  15  17
HETATM   17  C2  UNL     1      39.325   0.064  12.364  1.00  0.00     0.016 C 
HETATM   18  C1  UNL     1      40.530  -0.336  13.117  1.00  0.00     0.069 C 
BRANCH  17  19
HETATM   19  C9  UNL     1      38.846   1.276  12.525  1.00  0.00     0.051 A 
HETATM   20  C10 UNL     1      39.605   2.445  12.385  1.00  0.00     0.126 A 
HETATM   21  N9  UNL     1      38.782   3.466  12.621  1.00  0.00    -0.290 N 
HETATM   22  N10 UNL     1      37.550   3.067  12.902  1.00  0.00    -0.164 N 
ATOM     23  H9  UNL     1      39.068   4.444  12.588  1.00  0.00     0.188 HD
HETATM   24  C11 UNL     1      37.580   1.730  12.846  1.00  0.00     0.169 A 
HETATM   25  N13 UNL     1      36.244   3.441  13.230  1.00  0.00     0.016 NA
HETATM   26  N11 UNL     1      36.402   1.237  13.111  1.00  0.00    -0.268 N 
HETATM   27  N12 UNL     1      35.499   2.271  13.367  1.00  0.00    -0.005 NA
ATOM     28  H11 UNL     1      36.174   0.243  13.129  1.00  0.00     0.185 HD
ENDBRANCH  17  19
ENDBRANCH  15  17
ENDBRANCH  14  15
ENDBRANCH  13  14
ENDBRANCH   1  13
BRANCH  11  29
HETATM   29  N8  UNL     1      34.918  -3.195  11.120  1.00  0.00    -0.383 N 
ATOM     30  H82 UNL     1      35.283  -3.243  10.169  1.00  0.00     0.157 HD
ATOM     31  H81 UNL     1      34.521  -2.317  11.456  1.00  0.00     0.157 HD
ENDBRANCH  11  29
BRANCH   8  32
HETATM   32  N6  UNL     1      33.407  -7.429  12.178  1.00  0.00    -0.234 N 
ATOM     33  H62 UNL     1      33.660  -8.382  12.441  1.00  0.00     0.174 HD
ATOM     34  H61 UNL     1      32.505  -7.284  11.724  1.00  0.00     0.174 HD
ENDBRANCH   8  32
TORSDOF 7
ENDMDL
MODEL 4
REMARK VINA RESULT: -7.315229978      1.767      3.146
REMARK  7 active torsions:
REMARK  status: ('A' for Active; 'I' for Inactive)
REMARK    1  A    between atoms: C2_2  and  N1_3 
REMARK    2  A    between atoms: C2_2  and  C9_25 
REMARK    3  A    between atoms: N1_3  and  C3_5 
REMARK    4  A    between atoms: C3_5  and  C4_6 
REMARK    5  A    between atoms: C4_6  and  N2_7 
REMARK    6  A    between atoms: C6_14  and  N6_15 
REMARK    7  A    between atoms: C7_20  and  N8_21 
ROOT
HETATM    1  N2  UNL     1      36.880  -2.367  13.174  1.00  0.00    -0.267 N 
HETATM    2  N3  UNL     1      36.640  -1.487  12.201  1.00  0.00    -0.018 NA
HETATM    3  N4  UNL     1      35.860  -2.042  11.289  1.00  0.00    -0.267 N 
ATOM      4  H4  UNL     1      35.525  -1.586  10.440  1.00  0.00     0.186 HD
HETATM    5  C5  UNL     1      35.579  -3.301  11.661  1.00  0.00     0.166 A 
HETATM    6  N5  UNL     1      34.847  -4.281  11.106  1.00  0.00    -0.173 N 
ATOM      7  H5  UNL     1      34.374  -4.112  10.218  1.00  0.00     0.186 HD
HETATM    8  C6  UNL     1      34.727  -5.481  11.698  1.00  0.00     0.679 A 
HETATM    9  N7  UNL     1      35.364  -5.670  12.865  1.00  0.00    -0.175 N 
ATOM     10  H7  UNL     1      35.277  -6.580  13.318  1.00  0.00     0.186 HD
HETATM   11  C7  UNL     1      36.111  -4.730  13.472  1.00  0.00     0.146 A 
HETATM   12  C8  UNL     1      36.245  -3.494  12.878  1.00  0.00     0.138 A 
ENDROOT
BRANCH   1  13
HETATM   13  C4  UNL     1      37.692  -2.074  14.319  1.00  0.00     0.166 C 
BRANCH  13  14
HETATM   14  C3  UNL     1      39.151  -1.884  13.957  1.00  0.00     0.141 C 
BRANCH  14  15
HETATM   15  N1  UNL     1      39.521  -0.495  13.892  1.00  0.00    -0.391 N 
ATOM     16  H1  UNL     1      39.814  -0.043  14.759  1.00  0.00     0.159 HD
BRANCH  15  17
HETATM   17  C2  UNL     1      39.509   0.283  12.727  1.00  0.00     0.016 C 
HETATM   18  C1  UNL     1      40.133  -0.242  11.497  1.00  0.00     0.069 C 
BRANCH  17  19
HETATM   19  C9  UNL     1      38.954   1.472  12.703  1.00  0.00     0.051 A 
HETATM   20  C10 UNL     1      39.644   2.655  12.407  1.00  0.00     0.126 A 
HETATM   21  N9  UNL     1      38.757   3.645  12.479  1.00  0.00    -0.290 N 
HETATM   22  N10 UNL     1      37.544   3.214  12.796  1.00  0.00    -0.164 N 
ATOM     23  H9  UNL     1      38.984   4.625  12.308  1.00  0.00     0.188 HD
HETATM   24  C11 UNL     1      37.655   1.887  12.935  1.00  0.00     0.169 A 
HETATM   25  N13 UNL     1      36.211   3.549  13.045  1.00  0.00     0.016 NA
HETATM   26  N11 UNL     1      36.503   1.364  13.251  1.00  0.00    -0.268 N 
HETATM   27  N12 UNL     1      35.533   2.366  13.340  1.00  0.00    -0.005 NA
ATOM     28  H11 UNL     1      36.335   0.371  13.410  1.00  0.00     0.185 HD
ENDBRANCH  17  19
ENDBRANCH  15  17
ENDBRANCH  14  15
ENDBRANCH  13  14
ENDBRANCH   1  13
BRANCH  11  29
HETATM   29  N8  UNL     1      36.712  -4.945  14.593  1.00  0.00    -0.383 N 
ATOM     30  H82 UNL     1      37.728  -4.855  14.628  1.00  0.00     0.157 HD
ATOM     31  H81 UNL     1      36.207  -5.206  15.440  1.00  0.00     0.157 HD
ENDBRANCH  11  29
BRANCH   8  32
HETATM   32  N6  UNL     1      34.011  -6.434  11.155  1.00  0.00    -0.234 N 
ATOM     33  H62 UNL     1      33.538  -6.294  10.262  1.00  0.00     0.174 HD
ATOM     34  H61 UNL     1      33.909  -7.341  11.611  1.00  0.00     0.174 HD
ENDBRANCH   8  32
TORSDOF 7
ENDMDL
MODEL 5
REMARK VINA RESULT: -7.242111065      1.882      3.630
REMARK  7 active torsions:
REMARK  status: ('A' for Active; 'I' for Inactive)
REMARK    1  A    between atoms: C2_2  and  N1_3 
REMARK    2  A    between atoms: C2_2  and  C9_25 
REMARK    3  A    between atoms: N1_3  and  C3_5 
REMARK    4  A    between atoms: C3_5  and  C4_6 
REMARK    5  A    between atoms: C4_6  and  N2_7 
REMARK    6  A    between atoms: C6_14  and  N6_15 
REMARK    7  A    between atoms: C7_20  and  N8_21 
ROOT
HETATM    1  N2  UNL     1      37.181  -1.771  12.605  1.00  0.00    -0.267 N 
HETATM    2  N3  UNL     1      36.838  -1.062  11.530  1.00  0.00    -0.018 NA
HETATM    3  N4  UNL     1      35.930  -1.726  10.836  1.00  0.00    -0.267 N 
ATOM      4  H4  UNL     1      35.498  -1.407   9.969  1.00  0.00     0.186 HD
HETATM    5  C5  UNL     1      35.667  -2.887  11.458  1.00  0.00     0.166 A 
HETATM    6  N5  UNL     1      34.842  -3.910  11.181  1.00  0.00    -0.173 N 
ATOM      7  H5  UNL     1      34.260  -3.873  10.344  1.00  0.00     0.186 HD
HETATM    8  C6  UNL     1      34.769  -4.982  11.987  1.00  0.00     0.679 A 
HETATM    9  N7  UNL     1      35.549  -5.000  13.079  1.00  0.00    -0.175 N 
ATOM     10  H7  UNL     1      35.498  -5.813  13.693  1.00  0.00     0.186 HD
HETATM   11  C7  UNL     1      36.395  -4.007  13.411  1.00  0.00     0.146 A 
HETATM   12  C8  UNL     1      36.482  -2.900  12.596  1.00  0.00     0.138 A 
ENDROOT
BRANCH   1  13
HETATM   13  C4  UNL     1      38.145  -1.326  13.569  1.00  0.00     0.166 C 
BRANCH  13  14
HETATM   14  C3  UNL     1      39.490  -1.023  12.941  1.00  0.00     0.141 C 
BRANCH  14  15
HETATM   15  N1  UNL     1      39.450   0.145  12.102  1.00  0.00    -0.391 N 
ATOM     16  H1  UNL     1      39.064   0.039  11.163  1.00  0.00     0.159 HD
BRANCH  15  17
HETATM   17  C2  UNL     1      39.901   1.416  12.479  1.00  0.00     0.016 C 
HETATM   18  C1  UNL     1      41.332   1.619  12.780  1.00  0.00     0.069 C 
BRANCH  17  19
HETATM   19  C9  UNL     1      39.079   2.436  12.572  1.00  0.00     0.051 A 
HETATM   20  C10 UNL     1      39.455   3.769  12.366  1.00  0.00     0.126 A 
HETATM   21  N9  UNL     1      38.362   4.508  12.545  1.00  0.00    -0.290 N 
HETATM   22  N10 UNL     1      37.301   3.774  12.850  1.00  0.00    -0.164 N 
ATOM     23  H9  UNL     1      38.343   5.524  12.456  1.00  0.00     0.188 HD
HETATM   24  C11 UNL     1      37.730   2.506  12.869  1.00  0.00     0.169 A 
HETATM   25  N13 UNL     1      35.938   3.758  13.158  1.00  0.00     0.016 NA
HETATM   26  N11 UNL     1      36.750   1.698  13.163  1.00  0.00    -0.268 N 
HETATM   27  N12 UNL     1      35.575   2.427  13.362  1.00  0.00    -0.005 NA
ATOM     28  H11 UNL     1      36.829   0.685  13.238  1.00  0.00     0.185 HD
ENDBRANCH  17  19
ENDBRANCH  15  17
ENDBRANCH  14  15
ENDBRANCH  13  14
ENDBRANCH   1  13
BRANCH  11  29
HETATM   29  N8  UNL     1      37.133  -4.056  14.468  1.00  0.00    -0.383 N 
ATOM     30  H82 UNL     1      36.951  -4.784  15.158  1.00  0.00     0.157 HD
ATOM     31  H81 UNL     1      37.888  -3.389  14.637  1.00  0.00     0.157 HD
ENDBRANCH  11  29
BRANCH   8  32
HETATM   32  N6  UNL     1      33.962  -5.979  11.715  1.00  0.00    -0.234 N 
ATOM     33  H62 UNL     1      34.214  -6.687  11.026  1.00  0.00     0.174 HD
ATOM     34  H61 UNL     1      33.062  -6.070  12.186  1.00  0.00     0.174 HD
ENDBRANCH   8  32
TORSDOF 7
ENDMDL
