MODEL 1
REMARK VINA RESULT: -8.280176561      0.000      0.000
REMARK  17 active torsions:
REMARK  status: ('A' for Active; 'I' for Inactive)
REMARK    1  A    between atoms: O1_1  and  C1_3 
REMARK    2  A    between atoms: C1_3  and  C2_4 
REMARK    3  A    between atoms: N1_6  and  C4_7 
REMARK    4  A    between atoms: C4_7  and  O2_8 
REMARK    5  A    between atoms: C4_7  and  C5_10 
REMARK    6  A    between atoms: C4_7  and  C6_13 
REMARK    7  A    between atoms: C5_10  and  O3_11 
REMARK    8  A    between atoms: C6_13  and  C7_14 
REMARK    9  A    between atoms: C7_14  and  C8_15 
REMARK   10  A    between atoms: C8_15  and  C9_16 
REMARK   11  A    between atoms: C9_16  and  C10_17 
REMARK   12  A    between atoms: C10_17  and  C11_18 
REMARK   13  A    between atoms: C11_18  and  C12_19 
REMARK   14  A    between atoms: C12_19  and  N2_20 
REMARK   15  A    between atoms: N2_20  and  C13_23 
REMARK   16  A    between atoms: C13_23  and  C14_24 
REMARK   17  A    between atoms: C14_24  and  C15_25 
ROOT
HETATM    1  C12 UNL     1     184.274 124.372  32.257  1.00  0.00     0.232 C 
ENDROOT
BRANCH   1   2
HETATM    2  C11 UNL     1     184.294 123.058  32.974  1.00  0.00     0.027 C 
BRANCH   2   3
HETATM    3  C10 UNL     1     183.906 121.945  31.992  1.00  0.00     0.002 C 
BRANCH   3   4
HETATM    4  C9  UNL     1     185.129 121.442  31.329  1.00  0.00     0.000 C 
BRANCH   4   5
HETATM    5  C8  UNL     1     185.898 120.511  32.282  1.00  0.00     0.000 C 
BRANCH   5   6
HETATM    6  C7  UNL     1     187.325 120.848  32.258  1.00  0.00     0.005 C 
BRANCH   6   7
HETATM    7  C6  UNL     1     187.871 121.637  33.380  1.00  0.00     0.064 C 
BRANCH   7   8
HETATM    8  C4  UNL     1     188.442 122.965  33.112  1.00  0.00     0.159 C 
BRANCH   8   9
HETATM    9  N1  UNL     1     189.803 123.231  33.427  1.00  0.00    -0.317 N 
HETATM   10  C3  UNL     1     190.780 123.459  32.508  1.00  0.00     0.122 A 
HETATM   11  C2  UNL     1     191.952 123.626  33.169  1.00  0.00     0.049 A 
HETATM   12  N4  UNL     1     191.686 123.499  34.480  1.00  0.00    -0.353 N 
HETATM   13  C28 UNL     1     190.383 123.259  34.643  1.00  0.00     0.185 A 
ATOM     14  H4  UNL     1     192.372 123.575  35.232  1.00  0.00     0.166 HD
BRANCH  11  15
HETATM   15  C1  UNL     1     193.269 123.896  32.543  1.00  0.00     0.222 C 
BRANCH  15  16
HETATM   16  O1  UNL     1     194.296 123.883  33.466  1.00  0.00    -0.395 OA
ATOM     17  H1  UNL     1     193.980 123.997  34.354  1.00  0.00     0.209 HD
ENDBRANCH  15  16
ENDBRANCH  11  15
ENDBRANCH   8   9
BRANCH   8  18
HETATM   18  O2  UNL     1     187.593 123.899  33.805  1.00  0.00    -0.368 OA
ATOM     19  H2  UNL     1     186.719 123.871  33.436  1.00  0.00     0.212 HD
ENDBRANCH   8  18
BRANCH   8  20
HETATM   20  C5  UNL     1     188.198 123.243  31.602  1.00  0.00     0.225 C 
BRANCH  20  21
HETATM   21  O3  UNL     1     187.614 124.487  31.423  1.00  0.00    -0.396 OA
ATOM     22  H3  UNL     1     186.747 124.399  31.047  1.00  0.00     0.209 HD
ENDBRANCH  20  21
ENDBRANCH   8  20
ENDBRANCH   7   8
ENDBRANCH   6   7
ENDBRANCH   5   6
ENDBRANCH   4   5
ENDBRANCH   3   4
ENDBRANCH   2   3
ENDBRANCH   1   2
BRANCH   1  23
HETATM   23  N2  UNL     1     185.097 125.361  32.868  1.00  0.00    -0.075 N 
ATOM     24  H22 UNL     1     185.110 125.245  33.881  1.00  0.00     0.277 HD
ATOM     25  H21 UNL     1     186.081 125.187  32.665  1.00  0.00     0.277 HD
BRANCH  23  26
HETATM   26  C13 UNL     1     184.739 126.691  32.519  1.00  0.00     0.235 C 
BRANCH  26  27
HETATM   27  C14 UNL     1     183.853 126.834  31.317  1.00  0.00     0.060 C 
BRANCH  27  28
HETATM   28  C15 UNL     1     183.590 128.263  31.007  1.00  0.00     0.135 C 
HETATM   29  C16 UNL     1     184.744 129.137  31.320  1.00  0.00     0.081 C 
HETATM   30  C17 UNL     1     185.443 129.159  29.967  1.00  0.00     0.019 A 
HETATM   31  S1  UNL     1     186.892 129.474  29.130  1.00  0.00    -0.096 SA
HETATM   32  C20 UNL     1     184.596 128.767  28.980  1.00  0.00     0.092 A 
HETATM   33  C18 UNL     1     186.393 129.099  27.543  1.00  0.00    -0.005 A 
HETATM   34  C19 UNL     1     185.088 128.734  27.704  1.00  0.00     0.017 A 
HETATM   35  C27 UNL     1     186.795 129.004  26.081  1.00  0.00     0.049 C 
HETATM   36  C21 UNL     1     184.564 128.394  26.304  1.00  0.00     0.057 C 
HETATM   37  C22 UNL     1     184.131 129.633  25.627  1.00  0.00     0.036 C 
HETATM   38  N3  UNL     1     183.665 127.306  26.331  1.00  0.00    -0.408 N 
HETATM   39  C26 UNL     1     185.836 127.914  25.637  1.00  0.00     0.041 C 
HETATM   40  C23 UNL     1     182.681 129.776  25.333  1.00  0.00     0.004 C 
HETATM   41  C24 UNL     1     182.050 128.442  25.019  1.00  0.00     0.019 C 
HETATM   42  C25 UNL     1     182.276 127.590  26.277  1.00  0.00     0.115 C 
ATOM     43  H3  UNL     1     184.003 126.345  26.387  1.00  0.00     0.154 HD
HETATM   44  O4  UNL     1     183.352 128.486  29.621  1.00  0.00    -0.344 OA
ENDBRANCH  27  28
ENDBRANCH  26  27
ENDBRANCH  23  26
ENDBRANCH   1  23
TORSDOF 17
ENDMDL
MODEL 2
REMARK VINA RESULT: -8.143118339      1.798      2.417
REMARK  17 active torsions:
REMARK  status: ('A' for Active; 'I' for Inactive)
REMARK    1  A    between atoms: O1_1  and  C1_3 
REMARK    2  A    between atoms: C1_3  and  C2_4 
REMARK    3  A    between atoms: N1_6  and  C4_7 
REMARK    4  A    between atoms: C4_7  and  O2_8 
REMARK    5  A    between atoms: C4_7  and  C5_10 
REMARK    6  A    between atoms: C4_7  and  C6_13 
REMARK    7  A    between atoms: C5_10  and  O3_11 
REMARK    8  A    between atoms: C6_13  and  C7_14 
REMARK    9  A    between atoms: C7_14  and  C8_15 
REMARK   10  A    between atoms: C8_15  and  C9_16 
REMARK   11  A    between atoms: C9_16  and  C10_17 
REMARK   12  A    between atoms: C10_17  and  C11_18 
REMARK   13  A    between atoms: C11_18  and  C12_19 
REMARK   14  A    between atoms: C12_19  and  N2_20 
REMARK   15  A    between atoms: N2_20  and  C13_23 
REMARK   16  A    between atoms: C13_23  and  C14_24 
REMARK   17  A    between atoms: C14_24  and  C15_25 
ROOT
HETATM    1  C12 UNL     1     184.230 125.701  31.134  1.00  0.00     0.232 C 
ENDROOT
BRANCH   1   2
HETATM    2  C11 UNL     1     183.847 125.703  32.581  1.00  0.00     0.027 C 
BRANCH   2   3
HETATM    3  C10 UNL     1     184.203 124.342  33.195  1.00  0.00     0.002 C 
BRANCH   3   4
HETATM    4  C9  UNL     1     184.405 123.363  32.105  1.00  0.00     0.000 C 
BRANCH   4   5
HETATM    5  C8  UNL     1     185.749 122.637  32.293  1.00  0.00     0.000 C 
BRANCH   5   6
HETATM    6  C7  UNL     1     186.471 123.219  33.429  1.00  0.00     0.005 C 
BRANCH   6   7
HETATM    7  C6  UNL     1     187.829 123.745  33.191  1.00  0.00     0.064 C 
BRANCH   7   8
HETATM    8  C4  UNL     1     188.981 122.840  33.316  1.00  0.00     0.159 C 
BRANCH   8   9
HETATM    9  N1  UNL     1     189.709 122.452  32.157  1.00  0.00    -0.317 N 
HETATM   10  C3  UNL     1     191.009 122.774  31.917  1.00  0.00     0.122 A 
HETATM   11  C2  UNL     1     191.350 122.278  30.701  1.00  0.00     0.049 A 
HETATM   12  N4  UNL     1     190.264 121.659  30.210  1.00  0.00    -0.353 N 
HETATM   13  C28 UNL     1     189.264 121.761  31.090  1.00  0.00     0.185 A 
ATOM     14  H4  UNL     1     190.211 121.185  29.308  1.00  0.00     0.166 HD
BRANCH  11  15
HETATM   15  C1  UNL     1     192.678 122.407  30.055  1.00  0.00     0.222 C 
BRANCH  15  16
HETATM   16  O1  UNL     1     192.578 122.797  28.734  1.00  0.00    -0.395 OA
ATOM     17  H1  UNL     1     193.312 122.490  28.214  1.00  0.00     0.209 HD
ENDBRANCH  15  16
ENDBRANCH  11  15
ENDBRANCH   8   9
BRANCH   8  18
HETATM   18  O2  UNL     1     188.482 121.668  33.988  1.00  0.00    -0.368 OA
ATOM     19  H2  UNL     1     188.610 121.758  34.925  1.00  0.00     0.212 HD
ENDBRANCH   8  18
BRANCH   8  20
HETATM   20  C5  UNL     1     189.947 123.507  34.334  1.00  0.00     0.225 C 
BRANCH  20  21
HETATM   21  O3  UNL     1     189.893 122.858  35.557  1.00  0.00    -0.396 OA
ATOM     22  H3  UNL     1     189.583 121.967  35.450  1.00  0.00     0.209 HD
ENDBRANCH  20  21
ENDBRANCH   8  20
ENDBRANCH   7   8
ENDBRANCH   6   7
ENDBRANCH   5   6
ENDBRANCH   4   5
ENDBRANCH   3   4
ENDBRANCH   2   3
ENDBRANCH   1   2
BRANCH   1  23
HETATM   23  N2  UNL     1     183.940 126.930  30.473  1.00  0.00    -0.075 N 
ATOM     24  H22 UNL     1     184.574 127.076  29.688  1.00  0.00     0.277 HD
ATOM     25  H21 UNL     1     183.056 126.868  29.968  1.00  0.00     0.277 HD
BRANCH  23  26
HETATM   26  C13 UNL     1     183.947 128.056  31.341  1.00  0.00     0.235 C 
BRANCH  26  27
HETATM   27  C14 UNL     1     185.201 128.879  31.331  1.00  0.00     0.060 C 
BRANCH  27  28
HETATM   28  C15 UNL     1     185.031 130.114  30.524  1.00  0.00     0.135 C 
HETATM   29  C16 UNL     1     186.322 130.746  30.168  1.00  0.00     0.081 C 
HETATM   30  C17 UNL     1     186.571 130.107  28.808  1.00  0.00     0.019 A 
HETATM   31  S1  UNL     1     187.722 129.746  27.606  1.00  0.00    -0.096 SA
HETATM   32  C20 UNL     1     185.422 129.591  28.300  1.00  0.00     0.092 A 
HETATM   33  C18 UNL     1     186.719 128.945  26.482  1.00  0.00    -0.005 A 
HETATM   34  C19 UNL     1     185.492 128.980  27.078  1.00  0.00     0.017 A 
HETATM   35  C27 UNL     1     186.641 128.231  25.144  1.00  0.00     0.049 C 
HETATM   36  C21 UNL     1     184.528 128.285  26.109  1.00  0.00     0.057 C 
HETATM   37  C22 UNL     1     184.062 129.255  25.099  1.00  0.00     0.036 C 
HETATM   38  N3  UNL     1     183.556 127.524  26.795  1.00  0.00    -0.408 N 
HETATM   39  C26 UNL     1     185.468 127.311  25.430  1.00  0.00     0.041 C 
HETATM   40  C23 UNL     1     182.620 129.615  25.115  1.00  0.00     0.004 C 
HETATM   41  C24 UNL     1     181.767 128.447  25.542  1.00  0.00     0.019 C 
HETATM   42  C25 UNL     1     182.262 128.086  26.951  1.00  0.00     0.115 C 
ATOM     43  H3  UNL     1     183.776 126.600  27.167  1.00  0.00     0.154 HD
HETATM   44  O4  UNL     1     184.409 129.864  29.268  1.00  0.00    -0.344 OA
ENDBRANCH  27  28
ENDBRANCH  26  27
ENDBRANCH  23  26
ENDBRANCH   1  23
TORSDOF 17
ENDMDL
MODEL 3
REMARK VINA RESULT: -8.123044147      1.375      1.545
REMARK  17 active torsions:
REMARK  status: ('A' for Active; 'I' for Inactive)
REMARK    1  A    between atoms: O1_1  and  C1_3 
REMARK    2  A    between atoms: C1_3  and  C2_4 
REMARK    3  A    between atoms: N1_6  and  C4_7 
REMARK    4  A    between atoms: C4_7  and  O2_8 
REMARK    5  A    between atoms: C4_7  and  C5_10 
REMARK    6  A    between atoms: C4_7  and  C6_13 
REMARK    7  A    between atoms: C5_10  and  O3_11 
REMARK    8  A    between atoms: C6_13  and  C7_14 
REMARK    9  A    between atoms: C7_14  and  C8_15 
REMARK   10  A    between atoms: C8_15  and  C9_16 
REMARK   11  A    between atoms: C9_16  and  C10_17 
REMARK   12  A    between atoms: C10_17  and  C11_18 
REMARK   13  A    between atoms: C11_18  and  C12_19 
REMARK   14  A    between atoms: C12_19  and  N2_20 
REMARK   15  A    between atoms: N2_20  and  C13_23 
REMARK   16  A    between atoms: C13_23  and  C14_24 
REMARK   17  A    between atoms: C14_24  and  C15_25 
ROOT
HETATM    1  C12 UNL     1     184.368 124.720  32.446  1.00  0.00     0.232 C 
ENDROOT
BRANCH   1   2
HETATM    2  C11 UNL     1     184.303 123.524  33.343  1.00  0.00     0.027 C 
BRANCH   2   3
HETATM    3  C10 UNL     1     183.562 122.393  32.616  1.00  0.00     0.002 C 
BRANCH   3   4
HETATM    4  C9  UNL     1     184.423 121.878  31.529  1.00  0.00     0.000 C 
BRANCH   4   5
HETATM    5  C8  UNL     1     185.348 120.774  32.069  1.00  0.00     0.000 C 
BRANCH   5   6
HETATM    6  C7  UNL     1     186.748 121.161  31.869  1.00  0.00     0.005 C 
BRANCH   6   7
HETATM    7  C6  UNL     1     187.603 121.316  33.063  1.00  0.00     0.064 C 
BRANCH   7   8
HETATM    8  C4  UNL     1     188.681 122.315  33.048  1.00  0.00     0.159 C 
BRANCH   8   9
HETATM    9  N1  UNL     1     189.843 122.095  32.258  1.00  0.00    -0.317 N 
HETATM   10  C3  UNL     1     190.561 123.077  31.647  1.00  0.00     0.122 A 
HETATM   11  C2  UNL     1     191.566 122.493  30.948  1.00  0.00     0.049 A 
HETATM   12  N4  UNL     1     191.458 121.167  31.135  1.00  0.00    -0.353 N 
HETATM   13  C28 UNL     1     190.414 120.919  31.930  1.00  0.00     0.185 A 
ATOM     14  H4  UNL     1     192.076 120.461  30.734  1.00  0.00     0.166 HD
BRANCH  11  15
HETATM   15  C1  UNL     1     192.582 123.205  30.135  1.00  0.00     0.222 C 
BRANCH  15  16
HETATM   16  O1  UNL     1     192.592 122.775  28.823  1.00  0.00    -0.395 OA
ATOM     17  H1  UNL     1     192.189 121.921  28.723  1.00  0.00     0.209 HD
ENDBRANCH  15  16
ENDBRANCH  11  15
ENDBRANCH   8   9
BRANCH   8  18
HETATM   18  O2  UNL     1     189.060 122.498  34.425  1.00  0.00    -0.368 OA
ATOM     19  H2  UNL     1     188.281 122.596  34.960  1.00  0.00     0.212 HD
ENDBRANCH   8  18
BRANCH   8  20
HETATM   20  C5  UNL     1     188.020 123.659  32.631  1.00  0.00     0.225 C 
BRANCH  20  21
HETATM   21  O3  UNL     1     187.801 124.460  33.739  1.00  0.00    -0.396 OA
ATOM     22  H3  UNL     1     186.872 124.613  33.864  1.00  0.00     0.209 HD
ENDBRANCH  20  21
ENDBRANCH   8  20
ENDBRANCH   7   8
ENDBRANCH   6   7
ENDBRANCH   5   6
ENDBRANCH   4   5
ENDBRANCH   3   4
ENDBRANCH   2   3
ENDBRANCH   1   2
BRANCH   1  23
HETATM   23  N2  UNL     1     185.215 125.752  32.944  1.00  0.00    -0.075 N 
ATOM     24  H22 UNL     1     185.257 125.726  33.962  1.00  0.00     0.277 HD
ATOM     25  H21 UNL     1     186.192 125.552  32.729  1.00  0.00     0.277 HD
BRANCH  23  26
HETATM   26  C13 UNL     1     184.855 127.049  32.489  1.00  0.00     0.235 C 
BRANCH  26  27
HETATM   27  C14 UNL     1     183.897 127.093  31.335  1.00  0.00     0.060 C 
BRANCH  27  28
HETATM   28  C15 UNL     1     183.554 128.492  30.970  1.00  0.00     0.135 C 
HETATM   29  C16 UNL     1     184.634 129.450  31.305  1.00  0.00     0.081 C 
HETATM   30  C17 UNL     1     185.389 129.480  29.983  1.00  0.00     0.019 A 
HETATM   31  S1  UNL     1     186.850 129.868  29.199  1.00  0.00    -0.096 SA
HETATM   32  C20 UNL     1     184.614 129.005  28.974  1.00  0.00     0.092 A 
HETATM   33  C18 UNL     1     186.447 129.417  27.604  1.00  0.00    -0.005 A 
HETATM   34  C19 UNL     1     185.163 128.970  27.721  1.00  0.00     0.017 A 
HETATM   35  C27 UNL     1     186.919 129.308  26.164  1.00  0.00     0.049 C 
HETATM   36  C21 UNL     1     184.726 128.557  26.311  1.00  0.00     0.057 C 
HETATM   37  C22 UNL     1     184.242 129.745  25.579  1.00  0.00     0.036 C 
HETATM   38  N3  UNL     1     183.899 127.412  26.334  1.00  0.00    -0.408 N 
HETATM   39  C26 UNL     1     186.055 128.144  25.714  1.00  0.00     0.041 C 
HETATM   40  C23 UNL     1     182.800 129.783  25.219  1.00  0.00     0.004 C 
HETATM   41  C24 UNL     1     182.273 128.401  24.920  1.00  0.00     0.019 C 
HETATM   42  C25 UNL     1     182.498 127.602  26.212  1.00  0.00     0.115 C 
ATOM     43  H3  UNL     1     184.297 126.478  26.434  1.00  0.00     0.154 HD
HETATM   44  O4  UNL     1     183.364 128.661  29.570  1.00  0.00    -0.344 OA
ENDBRANCH  27  28
ENDBRANCH  26  27
ENDBRANCH  23  26
ENDBRANCH   1  23
TORSDOF 17
ENDMDL
MODEL 4
REMARK VINA RESULT: -8.064998682      1.737      2.216
REMARK  17 active torsions:
REMARK  status: ('A' for Active; 'I' for Inactive)
REMARK    1  A    between atoms: O1_1  and  C1_3 
REMARK    2  A    between atoms: C1_3  and  C2_4 
REMARK    3  A    between atoms: N1_6  and  C4_7 
REMARK    4  A    between atoms: C4_7  and  O2_8 
REMARK    5  A    between atoms: C4_7  and  C5_10 
REMARK    6  A    between atoms: C4_7  and  C6_13 
REMARK    7  A    between atoms: C5_10  and  O3_11 
REMARK    8  A    between atoms: C6_13  and  C7_14 
REMARK    9  A    between atoms: C7_14  and  C8_15 
REMARK   10  A    between atoms: C8_15  and  C9_16 
REMARK   11  A    between atoms: C9_16  and  C10_17 
REMARK   12  A    between atoms: C10_17  and  C11_18 
REMARK   13  A    between atoms: C11_18  and  C12_19 
REMARK   14  A    between atoms: C12_19  and  N2_20 
REMARK   15  A    between atoms: N2_20  and  C13_23 
REMARK   16  A    between atoms: C13_23  and  C14_24 
REMARK   17  A    between atoms: C14_24  and  C15_25 
ROOT
HETATM    1  C12 UNL     1     183.285 122.338  29.126  1.00  0.00     0.232 C 
ENDROOT
BRANCH   1   2
HETATM    2  C11 UNL     1     183.486 120.927  29.584  1.00  0.00     0.027 C 
BRANCH   2   3
HETATM    3  C10 UNL     1     182.628 120.679  30.832  1.00  0.00     0.002 C 
BRANCH   3   4
HETATM    4  C9  UNL     1     183.440 120.960  32.036  1.00  0.00     0.000 C 
BRANCH   4   5
HETATM    5  C8  UNL     1     184.884 120.472  31.821  1.00  0.00     0.000 C 
BRANCH   5   6
HETATM    6  C7  UNL     1     185.824 121.448  32.380  1.00  0.00     0.005 C 
BRANCH   6   7
HETATM    7  C6  UNL     1     187.096 120.948  32.936  1.00  0.00     0.064 C 
BRANCH   7   8
HETATM    8  C4  UNL     1     188.257 121.848  32.996  1.00  0.00     0.159 C 
BRANCH   8   9
HETATM    9  N1  UNL     1     189.269 121.769  32.001  1.00  0.00    -0.317 N 
HETATM   10  C3  UNL     1     190.594 121.987  32.225  1.00  0.00     0.122 A 
HETATM   11  C2  UNL     1     191.248 121.874  31.042  1.00  0.00     0.049 A 
HETATM   12  N4  UNL     1     190.325 121.588  30.108  1.00  0.00    -0.353 N 
HETATM   13  C28 UNL     1     189.122 121.523  30.684  1.00  0.00     0.185 A 
ATOM     14  H4  UNL     1     190.514 121.443  29.116  1.00  0.00     0.166 HD
BRANCH  11  15
HETATM   15  C1  UNL     1     192.707 122.038  30.841  1.00  0.00     0.222 C 
BRANCH  15  16
HETATM   16  O1  UNL     1     193.267 122.895  31.767  1.00  0.00    -0.395 OA
ATOM     17  H1  UNL     1     193.479 123.741  31.390  1.00  0.00     0.209 HD
ENDBRANCH  15  16
ENDBRANCH  11  15
ENDBRANCH   8   9
BRANCH   8  18
HETATM   18  O2  UNL     1     188.840 121.642  34.297  1.00  0.00    -0.368 OA
ATOM     19  H2  UNL     1     188.740 122.429  34.819  1.00  0.00     0.212 HD
ENDBRANCH   8  18
BRANCH   8  20
HETATM   20  C5  UNL     1     187.682 123.292  33.036  1.00  0.00     0.225 C 
BRANCH  20  21
HETATM   21  O3  UNL     1     188.340 124.053  33.988  1.00  0.00    -0.396 OA
ATOM     22  H3  UNL     1     187.720 124.443  34.592  1.00  0.00     0.209 HD
ENDBRANCH  20  21
ENDBRANCH   8  20
ENDBRANCH   7   8
ENDBRANCH   6   7
ENDBRANCH   5   6
ENDBRANCH   4   5
ENDBRANCH   3   4
ENDBRANCH   2   3
ENDBRANCH   1   2
BRANCH   1  23
HETATM   23  N2  UNL     1     184.359 123.204  29.482  1.00  0.00    -0.075 N 
ATOM     24  H22 UNL     1     184.760 122.932  30.379  1.00  0.00     0.277 HD
ATOM     25  H21 UNL     1     185.166 123.045  28.879  1.00  0.00     0.277 HD
BRANCH  23  26
HETATM   26  C13 UNL     1     183.999 124.579  29.489  1.00  0.00     0.235 C 
BRANCH  26  27
HETATM   27  C14 UNL     1     184.624 125.411  30.569  1.00  0.00     0.060 C 
BRANCH  27  28
HETATM   28  C15 UNL     1     183.979 126.746  30.663  1.00  0.00     0.135 C 
HETATM   29  C16 UNL     1     184.819 127.737  31.376  1.00  0.00     0.081 C 
HETATM   30  C17 UNL     1     185.548 128.372  30.199  1.00  0.00     0.019 A 
HETATM   31  S1  UNL     1     186.886 129.299  29.700  1.00  0.00    -0.096 SA
HETATM   32  C20 UNL     1     184.898 128.117  29.035  1.00  0.00     0.092 A 
HETATM   33  C18 UNL     1     186.592 129.342  28.020  1.00  0.00    -0.005 A 
HETATM   34  C19 UNL     1     185.440 128.624  27.885  1.00  0.00     0.017 A 
HETATM   35  C27 UNL     1     187.076 129.830  26.665  1.00  0.00     0.049 C 
HETATM   36  C21 UNL     1     185.104 128.633  26.390  1.00  0.00     0.057 C 
HETATM   37  C22 UNL     1     184.368 129.869  26.059  1.00  0.00     0.036 C 
HETATM   38  N3  UNL     1     184.552 127.402  25.970  1.00  0.00    -0.408 N 
HETATM   39  C26 UNL     1     186.491 128.735  25.791  1.00  0.00     0.041 C 
HETATM   40  C23 UNL     1     182.954 129.725  25.625  1.00  0.00     0.004 C 
HETATM   41  C24 UNL     1     182.746 128.449  24.847  1.00  0.00     0.019 C 
HETATM   42  C25 UNL     1     183.144 127.324  25.814  1.00  0.00     0.115 C 
ATOM     43  H3  UNL     1     185.148 126.595  25.785  1.00  0.00     0.154 HD
HETATM   44  O4  UNL     1     183.755 127.337  29.387  1.00  0.00    -0.344 OA
ENDBRANCH  27  28
ENDBRANCH  26  27
ENDBRANCH  23  26
ENDBRANCH   1  23
TORSDOF 17
ENDMDL
MODEL 5
REMARK VINA RESULT: -8.060991543      2.860      4.538
REMARK  17 active torsions:
REMARK  status: ('A' for Active; 'I' for Inactive)
REMARK    1  A    between atoms: O1_1  and  C1_3 
REMARK    2  A    between atoms: C1_3  and  C2_4 
REMARK    3  A    between atoms: N1_6  and  C4_7 
REMARK    4  A    between atoms: C4_7  and  O2_8 
REMARK    5  A    between atoms: C4_7  and  C5_10 
REMARK    6  A    between atoms: C4_7  and  C6_13 
REMARK    7  A    between atoms: C5_10  and  O3_11 
REMARK    8  A    between atoms: C6_13  and  C7_14 
REMARK    9  A    between atoms: C7_14  and  C8_15 
REMARK   10  A    between atoms: C8_15  and  C9_16 
REMARK   11  A    between atoms: C9_16  and  C10_17 
REMARK   12  A    between atoms: C10_17  and  C11_18 
REMARK   13  A    between atoms: C11_18  and  C12_19 
REMARK   14  A    between atoms: C12_19  and  N2_20 
REMARK   15  A    between atoms: N2_20  and  C13_23 
REMARK   16  A    between atoms: C13_23  and  C14_24 
REMARK   17  A    between atoms: C14_24  and  C15_25 
ROOT
HETATM    1  C12 UNL     1     186.767 125.700  32.185  1.00  0.00     0.232 C 
ENDROOT
BRANCH   1   2
HETATM    2  C11 UNL     1     187.694 124.821  32.966  1.00  0.00     0.027 C 
BRANCH   2   3
HETATM    3  C10 UNL     1     186.950 123.539  33.365  1.00  0.00     0.002 C 
BRANCH   3   4
HETATM    4  C9  UNL     1     187.942 122.503  33.726  1.00  0.00     0.000 C 
BRANCH   4   5
HETATM    5  C8  UNL     1     187.507 121.139  33.160  1.00  0.00     0.000 C 
BRANCH   5   6
HETATM    6  C7  UNL     1     186.609 121.341  32.019  1.00  0.00     0.005 C 
BRANCH   6   7
HETATM    7  C6  UNL     1     185.372 120.538  31.958  1.00  0.00     0.064 C 
BRANCH   7   8
HETATM    8  C4  UNL     1     184.095 121.206  31.673  1.00  0.00     0.159 C 
BRANCH   8   9
HETATM    9  N1  UNL     1     183.949 121.986  30.493  1.00  0.00    -0.317 N 
HETATM   10  C3  UNL     1     184.207 123.319  30.409  1.00  0.00     0.122 A 
HETATM   11  C2  UNL     1     183.911 123.730  29.150  1.00  0.00     0.049 A 
HETATM   12  N4  UNL     1     183.478 122.651  28.476  1.00  0.00    -0.353 N 
HETATM   13  C28 UNL     1     183.499 121.589  29.286  1.00  0.00     0.185 A 
ATOM     14  H4  UNL     1     183.181 122.644  27.500  1.00  0.00     0.166 HD
BRANCH  11  15
HETATM   15  C1  UNL     1     184.048 125.114  28.637  1.00  0.00     0.222 C 
BRANCH  15  16
HETATM   16  O1  UNL     1     185.362 125.442  28.370  1.00  0.00    -0.395 OA
ATOM     17  H1  UNL     1     185.970 124.815  28.744  1.00  0.00     0.209 HD
ENDBRANCH  15  16
ENDBRANCH  11  15
ENDBRANCH   8   9
BRANCH   8  18
HETATM   18  O2  UNL     1     183.816 122.021  32.828  1.00  0.00    -0.368 OA
ATOM     19  H2  UNL     1     183.363 122.811  32.559  1.00  0.00     0.212 HD
ENDBRANCH   8  18
BRANCH   8  20
HETATM   20  C5  UNL     1     183.010 120.093  31.694  1.00  0.00     0.225 C 
BRANCH  20  21
HETATM   21  O3  UNL     1     182.044 120.371  32.648  1.00  0.00    -0.396 OA
ATOM     22  H3  UNL     1     182.315 120.054  33.501  1.00  0.00     0.209 HD
ENDBRANCH  20  21
ENDBRANCH   8  20
ENDBRANCH   7   8
ENDBRANCH   6   7
ENDBRANCH   5   6
ENDBRANCH   4   5
ENDBRANCH   3   4
ENDBRANCH   2   3
ENDBRANCH   1   2
BRANCH   1  23
HETATM   23  N2  UNL     1     185.474 125.818  32.772  1.00  0.00    -0.075 N 
ATOM     24  H22 UNL     1     184.866 125.060  32.462  1.00  0.00     0.277 HD
ATOM     25  H21 UNL     1     185.510 125.609  33.770  1.00  0.00     0.277 HD
BRANCH  23  26
HETATM   26  C13 UNL     1     184.862 127.080  32.544  1.00  0.00     0.235 C 
BRANCH  26  27
HETATM   27  C14 UNL     1     183.933 127.151  31.368  1.00  0.00     0.060 C 
BRANCH  27  28
HETATM   28  C15 UNL     1     183.640 128.559  30.996  1.00  0.00     0.135 C 
HETATM   29  C16 UNL     1     184.762 129.476  31.303  1.00  0.00     0.081 C 
HETATM   30  C17 UNL     1     185.494 129.465  29.968  1.00  0.00     0.019 A 
HETATM   31  S1  UNL     1     186.956 129.788  29.156  1.00  0.00    -0.096 SA
HETATM   32  C20 UNL     1     184.684 129.012  28.977  1.00  0.00     0.092 A 
HETATM   33  C18 UNL     1     186.507 129.339  27.572  1.00  0.00    -0.005 A 
HETATM   34  C19 UNL     1     185.209 128.944  27.715  1.00  0.00     0.017 A 
HETATM   35  C27 UNL     1     186.950 129.199  26.125  1.00  0.00     0.049 C 
HETATM   36  C21 UNL     1     184.731 128.537  26.317  1.00  0.00     0.057 C 
HETATM   37  C22 UNL     1     184.282 129.736  25.582  1.00  0.00     0.036 C 
HETATM   38  N3  UNL     1     183.860 127.426  26.365  1.00  0.00    -0.408 N 
HETATM   39  C26 UNL     1     186.032 128.066  25.701  1.00  0.00     0.041 C 
HETATM   40  C23 UNL     1     182.837 129.828  25.247  1.00  0.00     0.004 C 
HETATM   41  C24 UNL     1     182.250 128.466  24.970  1.00  0.00     0.019 C 
HETATM   42  C25 UNL     1     182.466 127.670  26.265  1.00  0.00     0.115 C 
ATOM     43  H3  UNL     1     184.223 126.477  26.467  1.00  0.00     0.154 HD
HETATM   44  O4  UNL     1     183.432 128.723  29.597  1.00  0.00    -0.344 OA
ENDBRANCH  27  28
ENDBRANCH  26  27
ENDBRANCH  23  26
ENDBRANCH   1  23
TORSDOF 17
ENDMDL
