MODEL 1
REMARK VINA RESULT: -7.686626145      0.000      0.000
REMARK  18 active torsions:
REMARK  status: ('A' for Active; 'I' for Inactive)
REMARK    1  A    between atoms: C8_8  and  O1_9 
REMARK    2  A    between atoms: C9_11  and  N1_12 
REMARK    3  A    between atoms: N1_12  and  C10_13 
REMARK    4  A    between atoms: C10_13  and  C11_14 
REMARK    5  A    between atoms: C11_14  and  C12_15 
REMARK    6  A    between atoms: C12_15  and  N2_16 
REMARK    7  A    between atoms: N2_16  and  C13_18 
REMARK    8  A    between atoms: C13_18  and  C14_19 
REMARK    9  A    between atoms: C14_19  and  N3_20 
REMARK   10  A    between atoms: N3_20  and  C15_22 
REMARK   11  A    between atoms: C15_22  and  C16_23 
REMARK   12  A    between atoms: C16_23  and  C17_24 
REMARK   13  A    between atoms: C17_24  and  N4_25 
REMARK   14  A    between atoms: N4_25  and  C18_27 
REMARK   15  A    between atoms: C18_27  and  C19_28 
REMARK   16  A    between atoms: C19_28  and  C20_29 
REMARK   17  A    between atoms: C23_32  and  O2_33 
REMARK   18  A    between atoms: C29_41  and  O4_42 
ROOT
HETATM    1  C13 UNL     1     187.943 122.462  33.356  1.00  0.00     0.133 C 
ENDROOT
BRANCH   1   2
HETATM    2  N2  UNL     1     188.330 122.145  31.985  1.00  0.00    -0.419 N 
ATOM      3  H2  UNL     1     188.609 122.862  31.315  1.00  0.00     0.153 HD
BRANCH   2   4
HETATM    4  C12 UNL     1     188.289 120.758  31.652  1.00  0.00     0.120 C 
BRANCH   4   5
HETATM    5  C11 UNL     1     189.509 120.363  30.799  1.00  0.00     0.078 C 
BRANCH   5   6
HETATM    6  C10 UNL     1     190.714 121.028  31.405  1.00  0.00     0.157 C 
BRANCH   6   7
HETATM    7  N1  UNL     1     191.314 121.959  31.052  1.00  0.00    -0.416 NA
BRANCH   7   8
HETATM    8  C9  UNL     1     192.079 122.970  30.650  1.00  0.00     0.172 A 
HETATM    9  C8  UNL     1     191.265 124.218  30.318  1.00  0.00     0.112 A 
HETATM   10  C7  UNL     1     192.013 125.222  29.855  1.00  0.00     0.077 A 
HETATM   11  C6  UNL     1     193.337 125.289  29.646  1.00  0.00     0.082 A 
HETATM   12  C5  UNL     1     194.117 124.121  29.957  1.00  0.00     0.015 A 
HETATM   13  O5  UNL     1     194.213 126.234  29.179  1.00  0.00    -0.340 OA
HETATM   14  C4  UNL     1     195.509 124.416  29.658  1.00  0.00     0.082 C 
HETATM   15  C29 UNL     1     193.389 123.078  30.431  1.00  0.00     0.118 A 
HETATM   16  C2  UNL     1     195.499 125.955  29.688  1.00  0.00     0.065 C 
HETATM   17  C1  UNL     1     196.593 126.550  28.870  1.00  0.00     0.046 C 
HETATM   18  C3  UNL     1     195.546 126.424  31.144  1.00  0.00     0.046 C 
BRANCH   9  19
HETATM   19  O1  UNL     1     189.954 124.087  30.561  1.00  0.00    -0.357 OA
ATOM     20  H1  UNL     1     189.443 124.028  31.360  1.00  0.00     0.217 HD
ENDBRANCH   9  19
BRANCH  15  21
HETATM   21  O4  UNL     1     194.190 121.903  30.756  1.00  0.00    -0.357 OA
ATOM     22  H4  UNL     1     193.814 121.086  30.449  1.00  0.00     0.218 HD
ENDBRANCH  15  21
ENDBRANCH   7   8
ENDBRANCH   6   7
ENDBRANCH   5   6
ENDBRANCH   4   5
ENDBRANCH   2   4
ENDBRANCH   1   2
BRANCH   1  23
HETATM   23  C14 UNL     1     189.246 122.770  34.139  1.00  0.00     0.138 C 
BRANCH  23  24
HETATM   24  N3  UNL     1     189.785 123.983  33.823  1.00  0.00    -0.400 N 
ATOM     25  H3  UNL     1     190.785 123.957  33.623  1.00  0.00     0.158 HD
BRANCH  24  26
HETATM   26  C15 UNL     1     189.224 125.228  33.726  1.00  0.00     0.060 C 
BRANCH  26  27
HETATM   27  C16 UNL     1     189.932 126.369  34.385  1.00  0.00     0.088 C 
BRANCH  27  28
HETATM   28  C17 UNL     1     189.570 127.696  33.807  1.00  0.00     0.060 C 
BRANCH  28  29
HETATM   29  N4  UNL     1     188.231 128.019  34.102  1.00  0.00    -0.402 N 
ATOM     30  H4  UNL     1     187.902 128.033  35.067  1.00  0.00     0.158 HD
BRANCH  29  31
HETATM   31  C18 UNL     1     187.352 128.323  33.040  1.00  0.00     0.119 C 
BRANCH  31  32
HETATM   32  C19 UNL     1     185.944 127.749  33.358  1.00  0.00     0.025 C 
BRANCH  32  33
HETATM   33  C20 UNL     1     185.850 126.413  32.721  1.00  0.00    -0.004 C 
HETATM   34  C21 UNL     1     186.583 126.360  31.346  1.00  0.00     0.015 C 
HETATM   35  C22 UNL     1     186.291 124.867  31.090  1.00  0.00     0.048 C 
HETATM   36  C23 UNL     1     186.448 124.437  29.735  1.00  0.00     0.261 C 
HETATM   37  C25 UNL     1     184.772 124.830  31.294  1.00  0.00     0.026 C 
HETATM   38  O3  UNL     1     185.294 124.600  29.016  1.00  0.00    -0.361 OA
HETATM   39  C24 UNL     1     184.239 124.903  29.909  1.00  0.00     0.176 C 
HETATM   40  C26 UNL     1     184.479 126.030  32.178  1.00  0.00    -0.038 C 
HETATM   41  C27 UNL     1     183.560 125.537  33.284  1.00  0.00     0.015 C 
HETATM   42  C28 UNL     1     183.770 127.140  31.457  1.00  0.00     0.015 C 
BRANCH  36  43
HETATM   43  O2  UNL     1     187.581 123.940  29.276  1.00  0.00    -0.371 OA
ATOM     44  H2  UNL     1     188.260 124.484  28.894  1.00  0.00     0.212 HD
ENDBRANCH  36  43
ENDBRANCH  32  33
ENDBRANCH  31  32
ENDBRANCH  29  31
ENDBRANCH  28  29
ENDBRANCH  27  28
ENDBRANCH  26  27
ENDBRANCH  24  26
ENDBRANCH  23  24
ENDBRANCH   1  23
TORSDOF 18
ENDMDL
MODEL 2
REMARK VINA RESULT: -7.536380796      3.602      5.080
REMARK  18 active torsions:
REMARK  status: ('A' for Active; 'I' for Inactive)
REMARK    1  A    between atoms: C8_8  and  O1_9 
REMARK    2  A    between atoms: C9_11  and  N1_12 
REMARK    3  A    between atoms: N1_12  and  C10_13 
REMARK    4  A    between atoms: C10_13  and  C11_14 
REMARK    5  A    between atoms: C11_14  and  C12_15 
REMARK    6  A    between atoms: C12_15  and  N2_16 
REMARK    7  A    between atoms: N2_16  and  C13_18 
REMARK    8  A    between atoms: C13_18  and  C14_19 
REMARK    9  A    between atoms: C14_19  and  N3_20 
REMARK   10  A    between atoms: N3_20  and  C15_22 
REMARK   11  A    between atoms: C15_22  and  C16_23 
REMARK   12  A    between atoms: C16_23  and  C17_24 
REMARK   13  A    between atoms: C17_24  and  N4_25 
REMARK   14  A    between atoms: N4_25  and  C18_27 
REMARK   15  A    between atoms: C18_27  and  C19_28 
REMARK   16  A    between atoms: C19_28  and  C20_29 
REMARK   17  A    between atoms: C23_32  and  O2_33 
REMARK   18  A    between atoms: C29_41  and  O4_42 
ROOT
HETATM    1  C13 UNL     1     184.138 122.348  30.191  1.00  0.00     0.133 C 
ENDROOT
BRANCH   1   2
HETATM    2  N2  UNL     1     185.234 121.888  31.039  1.00  0.00    -0.419 N 
ATOM      3  H2  UNL     1     186.115 122.396  31.119  1.00  0.00     0.153 HD
BRANCH   2   4
HETATM    4  C12 UNL     1     184.979 120.675  31.747  1.00  0.00     0.120 C 
BRANCH   4   5
HETATM    5  C11 UNL     1     186.198 120.273  32.599  1.00  0.00     0.078 C 
BRANCH   5   6
HETATM    6  C10 UNL     1     187.383 120.192  31.677  1.00  0.00     0.157 C 
BRANCH   6   7
HETATM    7  N1  UNL     1     188.298 120.902  31.568  1.00  0.00    -0.416 NA
BRANCH   7   8
HETATM    8  C9  UNL     1     189.351 121.685  31.352  1.00  0.00     0.172 A 
HETATM    9  C8  UNL     1     188.954 123.141  31.117  1.00  0.00     0.112 A 
HETATM   10  C7  UNL     1     189.995 123.928  30.838  1.00  0.00     0.077 A 
HETATM   11  C6  UNL     1     191.301 123.632  30.738  1.00  0.00     0.082 A 
HETATM   12  C5  UNL     1     191.690 122.265  30.959  1.00  0.00     0.015 A 
HETATM   13  O5  UNL     1     192.448 124.327  30.457  1.00  0.00    -0.340 OA
HETATM   14  C4  UNL     1     193.132 122.175  30.803  1.00  0.00     0.082 C 
HETATM   15  C29 UNL     1     190.656 121.433  31.246  1.00  0.00     0.118 A 
HETATM   16  C2  UNL     1     193.545 123.642  31.022  1.00  0.00     0.065 C 
HETATM   17  C1  UNL     1     194.842 123.975  30.367  1.00  0.00     0.046 C 
HETATM   18  C3  UNL     1     193.565 123.934  32.524  1.00  0.00     0.046 C 
BRANCH   9  19
HETATM   19  O1  UNL     1     187.640 123.367  31.244  1.00  0.00    -0.357 OA
ATOM     20  H1  UNL     1     187.058 123.420  31.994  1.00  0.00     0.217 HD
ENDBRANCH   9  19
BRANCH  15  21
HETATM   21  O4  UNL     1     191.061 120.052  31.482  1.00  0.00    -0.357 OA
ATOM     22  H4  UNL     1     190.446 119.559  32.014  1.00  0.00     0.218 HD
ENDBRANCH  15  21
ENDBRANCH   7   8
ENDBRANCH   6   7
ENDBRANCH   5   6
ENDBRANCH   4   5
ENDBRANCH   2   4
ENDBRANCH   1   2
BRANCH   1  23
HETATM   23  C14 UNL     1     184.285 123.885  30.050  1.00  0.00     0.138 C 
BRANCH  23  24
HETATM   24  N3  UNL     1     184.705 124.490  31.199  1.00  0.00    -0.400 N 
ATOM     25  H3  UNL     1     185.467 124.006  31.673  1.00  0.00     0.158 HD
BRANCH  24  26
HETATM   26  C15 UNL     1     184.286 125.632  31.829  1.00  0.00     0.060 C 
BRANCH  26  27
HETATM   27  C16 UNL     1     183.988 126.830  30.986  1.00  0.00     0.088 C 
BRANCH  27  28
HETATM   28  C17 UNL     1     185.022 127.898  31.097  1.00  0.00     0.060 C 
BRANCH  28  29
HETATM   29  N4  UNL     1     186.277 127.422  30.667  1.00  0.00    -0.402 N 
ATOM     30  H4  UNL     1     186.736 126.655  31.157  1.00  0.00     0.158 HD
BRANCH  29  31
HETATM   31  C18 UNL     1     186.889 128.025  29.546  1.00  0.00     0.119 C 
BRANCH  31  32
HETATM   32  C19 UNL     1     186.452 127.277  28.258  1.00  0.00     0.025 C 
BRANCH  32  33
HETATM   33  C20 UNL     1     185.646 128.220  27.444  1.00  0.00    -0.004 C 
HETATM   34  C21 UNL     1     184.163 127.760  27.301  1.00  0.00     0.015 C 
HETATM   35  C22 UNL     1     183.717 128.987  26.478  1.00  0.00     0.048 C 
HETATM   36  C23 UNL     1     182.483 128.831  25.770  1.00  0.00     0.261 C 
HETATM   37  C25 UNL     1     184.764 128.982  25.359  1.00  0.00     0.026 C 
HETATM   38  O3  UNL     1     182.679 128.294  24.526  1.00  0.00    -0.361 OA
HETATM   39  C24 UNL     1     184.065 128.303  24.238  1.00  0.00     0.176 C 
HETATM   40  C26 UNL     1     185.946 128.234  25.950  1.00  0.00    -0.038 C 
HETATM   41  C27 UNL     1     187.181 129.063  25.638  1.00  0.00     0.015 C 
HETATM   42  C28 UNL     1     186.148 126.872  25.349  1.00  0.00     0.015 C 
BRANCH  36  43
HETATM   43  O2  UNL     1     181.320 129.185  26.286  1.00  0.00    -0.371 OA
ATOM     44  H2  UNL     1     180.725 129.778  25.843  1.00  0.00     0.212 HD
ENDBRANCH  36  43
ENDBRANCH  32  33
ENDBRANCH  31  32
ENDBRANCH  29  31
ENDBRANCH  28  29
ENDBRANCH  27  28
ENDBRANCH  26  27
ENDBRANCH  24  26
ENDBRANCH  23  24
ENDBRANCH   1  23
TORSDOF 18
ENDMDL
MODEL 3
REMARK VINA RESULT: -7.436117457      3.971      7.776
REMARK  18 active torsions:
REMARK  status: ('A' for Active; 'I' for Inactive)
REMARK    1  A    between atoms: C8_8  and  O1_9 
REMARK    2  A    between atoms: C9_11  and  N1_12 
REMARK    3  A    between atoms: N1_12  and  C10_13 
REMARK    4  A    between atoms: C10_13  and  C11_14 
REMARK    5  A    between atoms: C11_14  and  C12_15 
REMARK    6  A    between atoms: C12_15  and  N2_16 
REMARK    7  A    between atoms: N2_16  and  C13_18 
REMARK    8  A    between atoms: C13_18  and  C14_19 
REMARK    9  A    between atoms: C14_19  and  N3_20 
REMARK   10  A    between atoms: N3_20  and  C15_22 
REMARK   11  A    between atoms: C15_22  and  C16_23 
REMARK   12  A    between atoms: C16_23  and  C17_24 
REMARK   13  A    between atoms: C17_24  and  N4_25 
REMARK   14  A    between atoms: N4_25  and  C18_27 
REMARK   15  A    between atoms: C18_27  and  C19_28 
REMARK   16  A    between atoms: C19_28  and  C20_29 
REMARK   17  A    between atoms: C23_32  and  O2_33 
REMARK   18  A    between atoms: C29_41  and  O4_42 
ROOT
HETATM    1  C13 UNL     1     189.845 125.605  34.056  1.00  0.00     0.133 C 
ENDROOT
BRANCH   1   2
HETATM    2  N2  UNL     1     189.089 124.470  33.535  1.00  0.00    -0.419 N 
ATOM      3  H2  UNL     1     188.499 124.539  32.705  1.00  0.00     0.153 HD
BRANCH   2   4
HETATM    4  C12 UNL     1     189.238 123.257  34.272  1.00  0.00     0.120 C 
BRANCH   4   5
HETATM    5  C11 UNL     1     189.456 122.063  33.324  1.00  0.00     0.078 C 
BRANCH   5   6
HETATM    6  C10 UNL     1     190.931 121.980  33.039  1.00  0.00     0.157 C 
BRANCH   6   7
HETATM    7  N1  UNL     1     191.588 122.598  32.305  1.00  0.00    -0.416 NA
BRANCH   7   8
HETATM    8  C9  UNL     1     192.411 123.238  31.479  1.00  0.00     0.172 A 
HETATM    9  C8  UNL     1     192.085 122.967  30.012  1.00  0.00     0.112 A 
HETATM   10  C7  UNL     1     192.939 123.555  29.170  1.00  0.00     0.077 A 
HETATM   11  C6  UNL     1     194.008 124.325  29.422  1.00  0.00     0.082 A 
HETATM   12  C5  UNL     1     194.326 124.591  30.799  1.00  0.00     0.015 A 
HETATM   13  O5  UNL     1     194.954 124.972  28.669  1.00  0.00    -0.340 OA
HETATM   14  C4  UNL     1     195.508 125.436  30.835  1.00  0.00     0.082 C 
HETATM   15  C29 UNL     1     193.478 124.009  31.686  1.00  0.00     0.118 A 
HETATM   16  C2  UNL     1     195.481 126.043  29.421  1.00  0.00     0.065 C 
HETATM   17  C1  UNL     1     196.830 126.475  28.958  1.00  0.00     0.046 C 
HETATM   18  C3  UNL     1     194.466 127.188  29.390  1.00  0.00     0.046 C 
BRANCH   9  19
HETATM   19  O1  UNL     1     191.000 122.203  29.833  1.00  0.00    -0.357 OA
ATOM     20  H1  UNL     1     190.336 122.164  29.155  1.00  0.00     0.217 HD
ENDBRANCH   9  19
BRANCH  15  21
HETATM   21  O4  UNL     1     193.798 124.295  33.080  1.00  0.00    -0.357 OA
ATOM     22  H4  UNL     1     194.069 125.193  33.233  1.00  0.00     0.218 HD
ENDBRANCH  15  21
ENDBRANCH   7   8
ENDBRANCH   6   7
ENDBRANCH   5   6
ENDBRANCH   4   5
ENDBRANCH   2   4
ENDBRANCH   1   2
BRANCH   1  23
HETATM   23  C14 UNL     1     190.867 125.041  35.077  1.00  0.00     0.138 C 
BRANCH  23  24
HETATM   24  N3  UNL     1     191.278 125.969  35.991  1.00  0.00    -0.400 N 
ATOM     25  H3  UNL     1     191.758 125.576  36.800  1.00  0.00     0.158 HD
BRANCH  24  26
HETATM   26  C15 UNL     1     191.160 127.333  36.015  1.00  0.00     0.060 C 
BRANCH  26  27
HETATM   27  C16 UNL     1     192.415 128.145  36.042  1.00  0.00     0.088 C 
BRANCH  27  28
HETATM   28  C17 UNL     1     192.769 128.633  37.406  1.00  0.00     0.060 C 
BRANCH  28  29
HETATM   29  N4  UNL     1     194.080 128.249  37.748  1.00  0.00    -0.402 N 
ATOM     30  H4  UNL     1     194.464 128.479  38.665  1.00  0.00     0.158 HD
BRANCH  29  31
HETATM   31  C18 UNL     1     194.854 127.541  36.803  1.00  0.00     0.119 C 
BRANCH  31  32
HETATM   32  C19 UNL     1     196.355 127.652  37.181  1.00  0.00     0.025 C 
BRANCH  32  33
HETATM   33  C20 UNL     1     197.070 126.539  36.508  1.00  0.00    -0.004 C 
HETATM   34  C21 UNL     1     196.105 125.614  35.707  1.00  0.00     0.015 C 
HETATM   35  C22 UNL     1     197.215 124.691  35.164  1.00  0.00     0.048 C 
HETATM   36  C23 UNL     1     196.769 123.427  34.664  1.00  0.00     0.261 C 
HETATM   37  C25 UNL     1     197.940 124.316  36.462  1.00  0.00     0.026 C 
HETATM   38  O3  UNL     1     196.717 122.482  35.652  1.00  0.00    -0.361 OA
HETATM   39  C24 UNL     1     197.366 122.989  36.803  1.00  0.00     0.176 C 
HETATM   40  C26 UNL     1     197.608 125.446  37.421  1.00  0.00    -0.038 C 
HETATM   41  C27 UNL     1     198.919 125.858  38.072  1.00  0.00     0.015 C 
HETATM   42  C28 UNL     1     196.664 125.037  38.516  1.00  0.00     0.015 C 
BRANCH  36  43
HETATM   43  O2  UNL     1     196.465 123.236  33.393  1.00  0.00    -0.371 OA
ATOM     44  H2  UNL     1     196.504 123.933  32.749  1.00  0.00     0.212 HD
ENDBRANCH  36  43
ENDBRANCH  32  33
ENDBRANCH  31  32
ENDBRANCH  29  31
ENDBRANCH  28  29
ENDBRANCH  27  28
ENDBRANCH  26  27
ENDBRANCH  24  26
ENDBRANCH  23  24
ENDBRANCH   1  23
TORSDOF 18
ENDMDL
MODEL 4
REMARK VINA RESULT: -7.402542349      3.769      7.129
REMARK  18 active torsions:
REMARK  status: ('A' for Active; 'I' for Inactive)
REMARK    1  A    between atoms: C8_8  and  O1_9 
REMARK    2  A    between atoms: C9_11  and  N1_12 
REMARK    3  A    between atoms: N1_12  and  C10_13 
REMARK    4  A    between atoms: C10_13  and  C11_14 
REMARK    5  A    between atoms: C11_14  and  C12_15 
REMARK    6  A    between atoms: C12_15  and  N2_16 
REMARK    7  A    between atoms: N2_16  and  C13_18 
REMARK    8  A    between atoms: C13_18  and  C14_19 
REMARK    9  A    between atoms: C14_19  and  N3_20 
REMARK   10  A    between atoms: N3_20  and  C15_22 
REMARK   11  A    between atoms: C15_22  and  C16_23 
REMARK   12  A    between atoms: C16_23  and  C17_24 
REMARK   13  A    between atoms: C17_24  and  N4_25 
REMARK   14  A    between atoms: N4_25  and  C18_27 
REMARK   15  A    between atoms: C18_27  and  C19_28 
REMARK   16  A    between atoms: C19_28  and  C20_29 
REMARK   17  A    between atoms: C23_32  and  O2_33 
REMARK   18  A    between atoms: C29_41  and  O4_42 
ROOT
HETATM    1  C13 UNL     1     189.326 124.506  30.743  1.00  0.00     0.133 C 
ENDROOT
BRANCH   1   2
HETATM    2  N2  UNL     1     189.899 124.582  32.084  1.00  0.00    -0.419 N 
ATOM      3  H2  UNL     1     189.516 125.188  32.810  1.00  0.00     0.153 HD
BRANCH   2   4
HETATM    4  C12 UNL     1     191.034 123.744  32.303  1.00  0.00     0.120 C 
BRANCH   4   5
HETATM    5  C11 UNL     1     190.914 123.001  33.646  1.00  0.00     0.078 C 
BRANCH   5   6
HETATM    6  C10 UNL     1     189.997 121.828  33.431  1.00  0.00     0.157 C 
BRANCH   6   7
HETATM    7  N1  UNL     1     188.891 121.798  33.075  1.00  0.00    -0.416 NA
BRANCH   7   8
HETATM    8  C9  UNL     1     187.600 121.806  32.752  1.00  0.00     0.172 A 
HETATM    9  C8  UNL     1     186.880 123.050  33.267  1.00  0.00     0.112 A 
HETATM   10  C7  UNL     1     185.572 123.044  33.003  1.00  0.00     0.077 A 
HETATM   11  C6  UNL     1     184.823 122.129  32.369  1.00  0.00     0.082 A 
HETATM   12  C5  UNL     1     185.488 120.953  31.875  1.00  0.00     0.015 A 
HETATM   13  O5  UNL     1     183.498 121.997  32.043  1.00  0.00    -0.340 OA
HETATM   14  C4  UNL     1     184.494 120.110  31.230  1.00  0.00     0.082 C 
HETATM   15  C29 UNL     1     186.822 120.923  32.126  1.00  0.00     0.118 A 
HETATM   16  C2  UNL     1     183.385 121.134  30.932  1.00  0.00     0.065 C 
HETATM   17  C1  UNL     1     182.040 120.504  30.815  1.00  0.00     0.046 C 
HETATM   18  C3  UNL     1     183.763 121.925  29.677  1.00  0.00     0.046 C 
BRANCH   9  19
HETATM   19  O1  UNL     1     187.689 123.925  33.878  1.00  0.00    -0.357 OA
ATOM     20  H1  UNL     1     188.491 123.831  34.380  1.00  0.00     0.217 HD
ENDBRANCH   9  19
BRANCH  15  21
HETATM   21  O4  UNL     1     187.491 119.734  31.610  1.00  0.00    -0.357 OA
ATOM     22  H4  UNL     1     188.272 119.494  32.095  1.00  0.00     0.218 HD
ENDBRANCH  15  21
ENDBRANCH   7   8
ENDBRANCH   6   7
ENDBRANCH   5   6
ENDBRANCH   4   5
ENDBRANCH   2   4
ENDBRANCH   1   2
BRANCH   1  23
HETATM   23  C14 UNL     1     188.300 125.662  30.619  1.00  0.00     0.138 C 
BRANCH  23  24
HETATM   24  N3  UNL     1     187.761 126.029  31.818  1.00  0.00    -0.400 N 
ATOM     25  H3  UNL     1     187.671 125.266  32.489  1.00  0.00     0.158 HD
BRANCH  24  26
HETATM   26  C15 UNL     1     187.320 127.240  32.282  1.00  0.00     0.060 C 
BRANCH  26  27
HETATM   27  C16 UNL     1     185.853 127.408  32.519  1.00  0.00     0.088 C 
BRANCH  27  28
HETATM   28  C17 UNL     1     185.022 126.411  31.786  1.00  0.00     0.060 C 
BRANCH  28  29
HETATM   29  N4  UNL     1     184.207 127.049  30.830  1.00  0.00    -0.402 N 
ATOM     30  H4  UNL     1     183.215 127.195  31.010  1.00  0.00     0.158 HD
BRANCH  29  31
HETATM   31  C18 UNL     1     184.787 127.481  29.617  1.00  0.00     0.119 C 
BRANCH  31  32
HETATM   32  C19 UNL     1     183.713 128.207  28.763  1.00  0.00     0.025 C 
BRANCH  32  33
HETATM   33  C20 UNL     1     183.670 127.542  27.438  1.00  0.00    -0.004 C 
HETATM   34  C21 UNL     1     185.094 127.267  26.867  1.00  0.00     0.015 C 
HETATM   35  C22 UNL     1     184.597 126.563  25.587  1.00  0.00     0.048 C 
HETATM   36  C23 UNL     1     185.560 126.458  24.534  1.00  0.00     0.261 C 
HETATM   37  C25 UNL     1     183.607 127.604  25.051  1.00  0.00     0.026 C 
HETATM   38  O3  UNL     1     185.541 127.558  23.720  1.00  0.00    -0.361 OA
HETATM   39  C24 UNL     1     184.398 128.334  24.028  1.00  0.00     0.176 C 
HETATM   40  C26 UNL     1     183.204 128.409  26.274  1.00  0.00    -0.038 C 
HETATM   41  C27 UNL     1     181.689 128.522  26.236  1.00  0.00     0.015 C 
HETATM   42  C28 UNL     1     183.766 129.802  26.279  1.00  0.00     0.015 C 
BRANCH  36  43
HETATM   43  O2  UNL     1     186.345 125.406  24.395  1.00  0.00    -0.371 OA
ATOM     44  H2  UNL     1     186.668 124.908  25.137  1.00  0.00     0.212 HD
ENDBRANCH  36  43
ENDBRANCH  32  33
ENDBRANCH  31  32
ENDBRANCH  29  31
ENDBRANCH  28  29
ENDBRANCH  27  28
ENDBRANCH  26  27
ENDBRANCH  24  26
ENDBRANCH  23  24
ENDBRANCH   1  23
TORSDOF 18
ENDMDL
MODEL 5
REMARK VINA RESULT: -7.368927697      3.870      7.313
REMARK  18 active torsions:
REMARK  status: ('A' for Active; 'I' for Inactive)
REMARK    1  A    between atoms: C8_8  and  O1_9 
REMARK    2  A    between atoms: C9_11  and  N1_12 
REMARK    3  A    between atoms: N1_12  and  C10_13 
REMARK    4  A    between atoms: C10_13  and  C11_14 
REMARK    5  A    between atoms: C11_14  and  C12_15 
REMARK    6  A    between atoms: C12_15  and  N2_16 
REMARK    7  A    between atoms: N2_16  and  C13_18 
REMARK    8  A    between atoms: C13_18  and  C14_19 
REMARK    9  A    between atoms: C14_19  and  N3_20 
REMARK   10  A    between atoms: N3_20  and  C15_22 
REMARK   11  A    between atoms: C15_22  and  C16_23 
REMARK   12  A    between atoms: C16_23  and  C17_24 
REMARK   13  A    between atoms: C17_24  and  N4_25 
REMARK   14  A    between atoms: N4_25  and  C18_27 
REMARK   15  A    between atoms: C18_27  and  C19_28 
REMARK   16  A    between atoms: C19_28  and  C20_29 
REMARK   17  A    between atoms: C23_32  and  O2_33 
REMARK   18  A    between atoms: C29_41  and  O4_42 
ROOT
HETATM    1  C13 UNL     1     189.990 124.652  30.880  1.00  0.00     0.133 C 
ENDROOT
BRANCH   1   2
HETATM    2  N2  UNL     1     190.317 124.654  32.304  1.00  0.00    -0.419 N 
ATOM      3  H2  UNL     1     189.848 125.265  32.973  1.00  0.00     0.153 HD
BRANCH   2   4
HETATM    4  C12 UNL     1     191.341 123.737  32.688  1.00  0.00     0.120 C 
BRANCH   4   5
HETATM    5  C11 UNL     1     190.916 122.929  33.928  1.00  0.00     0.078 C 
BRANCH   5   6
HETATM    6  C10 UNL     1     189.993 121.838  33.458  1.00  0.00     0.157 C 
BRANCH   6   7
HETATM    7  N1  UNL     1     188.887 121.893  33.103  1.00  0.00    -0.416 NA
BRANCH   7   8
HETATM    8  C9  UNL     1     187.599 121.898  32.772  1.00  0.00     0.172 A 
HETATM    9  C8  UNL     1     186.891 123.175  33.221  1.00  0.00     0.112 A 
HETATM   10  C7  UNL     1     185.584 123.170  32.950  1.00  0.00     0.077 A 
HETATM   11  C6  UNL     1     184.827 122.233  32.358  1.00  0.00     0.082 A 
HETATM   12  C5  UNL     1     185.481 121.026  31.928  1.00  0.00     0.015 A 
HETATM   13  O5  UNL     1     183.503 122.099  32.032  1.00  0.00    -0.340 OA
HETATM   14  C4  UNL     1     184.482 120.163  31.321  1.00  0.00     0.082 C 
HETATM   15  C29 UNL     1     186.814 120.994  32.188  1.00  0.00     0.118 A 
HETATM   16  C2  UNL     1     183.386 121.183  30.965  1.00  0.00     0.065 C 
HETATM   17  C1  UNL     1     182.034 120.562  30.872  1.00  0.00     0.046 C 
HETATM   18  C3  UNL     1     183.779 121.905  29.674  1.00  0.00     0.046 C 
BRANCH   9  19
HETATM   19  O1  UNL     1     187.706 124.071  33.791  1.00  0.00    -0.357 OA
ATOM     20  H1  UNL     1     188.597 124.025  34.120  1.00  0.00     0.217 HD
ENDBRANCH   9  19
BRANCH  15  21
HETATM   21  O4  UNL     1     187.472 119.774  31.736  1.00  0.00    -0.357 OA
ATOM     22  H4  UNL     1     187.891 119.857  30.887  1.00  0.00     0.218 HD
ENDBRANCH  15  21
ENDBRANCH   7   8
ENDBRANCH   6   7
ENDBRANCH   5   6
ENDBRANCH   4   5
ENDBRANCH   2   4
ENDBRANCH   1   2
BRANCH   1  23
HETATM   23  C14 UNL     1     188.728 125.536  30.701  1.00  0.00     0.138 C 
BRANCH  23  24
HETATM   24  N3  UNL     1     188.383 126.211  31.835  1.00  0.00    -0.400 N 
ATOM     25  H3  UNL     1     188.793 125.834  32.689  1.00  0.00     0.158 HD
BRANCH  24  26
HETATM   26  C15 UNL     1     187.584 127.306  32.032  1.00  0.00     0.060 C 
BRANCH  26  27
HETATM   27  C16 UNL     1     186.268 127.101  32.712  1.00  0.00     0.088 C 
BRANCH  27  28
HETATM   28  C17 UNL     1     185.161 126.784  31.764  1.00  0.00     0.060 C 
BRANCH  28  29
HETATM   29  N4  UNL     1     185.429 127.319  30.488  1.00  0.00    -0.402 N 
ATOM     30  H4  UNL     1     185.688 128.299  30.382  1.00  0.00     0.158 HD
BRANCH  29  31
HETATM   31  C18 UNL     1     185.333 126.475  29.360  1.00  0.00     0.119 C 
BRANCH  31  32
HETATM   32  C19 UNL     1     186.266 127.008  28.239  1.00  0.00     0.025 C 
BRANCH  32  33
HETATM   33  C20 UNL     1     185.500 128.008  27.456  1.00  0.00    -0.004 C 
HETATM   34  C21 UNL     1     184.013 127.588  27.251  1.00  0.00     0.015 C 
HETATM   35  C22 UNL     1     183.612 128.864  26.484  1.00  0.00     0.048 C 
HETATM   36  C23 UNL     1     182.395 128.772  25.737  1.00  0.00     0.261 C 
HETATM   37  C25 UNL     1     184.689 128.897  25.393  1.00  0.00     0.026 C 
HETATM   38  O3  UNL     1     182.613 128.297  24.472  1.00  0.00    -0.361 OA
HETATM   39  C24 UNL     1     184.006 128.293  24.220  1.00  0.00     0.176 C 
HETATM   40  C26 UNL     1     185.840 128.095  25.974  1.00  0.00    -0.038 C 
HETATM   41  C27 UNL     1     187.099 128.914  25.738  1.00  0.00     0.015 C 
HETATM   42  C28 UNL     1     186.032 126.763  25.306  1.00  0.00     0.015 C 
BRANCH  36  43
HETATM   43  O2  UNL     1     181.226 129.121  26.241  1.00  0.00    -0.371 OA
ATOM     44  H2  UNL     1     181.127 129.426  27.136  1.00  0.00     0.212 HD
ENDBRANCH  36  43
ENDBRANCH  32  33
ENDBRANCH  31  32
ENDBRANCH  29  31
ENDBRANCH  28  29
ENDBRANCH  27  28
ENDBRANCH  26  27
ENDBRANCH  24  26
ENDBRANCH  23  24
ENDBRANCH   1  23
TORSDOF 18
ENDMDL
