MODEL 1
REMARK VINA RESULT: -8.697481980      0.000      0.000
REMARK  15 active torsions:
REMARK  status: ('A' for Active; 'I' for Inactive)
REMARK    1  A    between atoms: C2_2  and  C3_3 
REMARK    2  A    between atoms: C3_3  and  C4_4 
REMARK    3  A    between atoms: C4_4  and  C5_5 
REMARK    4  A    between atoms: C5_5  and  C6_6 
REMARK    5  A    between atoms: C7_9  and  C8_10 
REMARK       I    between atoms: C8_10  and  N2_12 
REMARK    6  A    between atoms: N2_12  and  C9_14 
REMARK    7  A    between atoms: C9_14  and  C10_15 
REMARK    8  A    between atoms: C9_14  and  C13_19 
REMARK    9  A    between atoms: C10_15  and  C11_16 
REMARK   10  A    between atoms: C16_22  and  S1_23 
REMARK   11  A    between atoms: S1_23  and  C17_24 
REMARK   12  A    between atoms: C19_28  and  N4_29 
REMARK   13  A    between atoms: N7_38  and  C21_39 
REMARK   14  A    between atoms: C21_39  and  C22_40 
REMARK   15  A    between atoms: C22_40  and  C23_41 
ROOT
HETATM    1  C6  UNL     1     185.683 128.575  32.214  1.00  0.00     0.125 A 
HETATM    2  N1  UNL     1     184.683 128.567  31.310  1.00  0.00    -0.333 N 
ATOM      3  H1  UNL     1     183.782 129.038  31.386  1.00  0.00     0.168 HD
HETATM    4  C7  UNL     1     185.121 127.810  30.288  1.00  0.00     0.144 A 
HETATM    5  C16 UNL     1     186.384 127.359  30.565  1.00  0.00     0.154 A 
HETATM    6  O3  UNL     1     186.685 127.845  31.740  1.00  0.00    -0.288 OA
ENDROOT
BRANCH   5   7
HETATM    7  S1  UNL     1     187.361 126.325  29.488  1.00  0.00    -0.026 SA
BRANCH   7   8
HETATM    8  C17 UNL     1     187.563 124.682  30.131  1.00  0.00     0.153 A 
HETATM    9  N3  UNL     1     188.653 123.889  30.117  1.00  0.00    -0.330 N 
HETATM   10  C18 UNL     1     188.356 122.732  30.743  1.00  0.00     0.124 A 
ATOM     11  H3  UNL     1     189.554 124.124  29.701  1.00  0.00     0.168 HD
HETATM   12  C19 UNL     1     189.036 121.576  31.041  1.00  0.00     0.145 A 
HETATM   13  C25 UNL     1     187.036 122.813  31.159  1.00  0.00     0.156 A 
HETATM   14  N5  UNL     1     188.423 120.582  31.707  1.00  0.00    -0.175 N 
HETATM   15  C20 UNL     1     187.117 120.681  32.108  1.00  0.00     0.681 A 
ATOM     16  H5  UNL     1     188.944 119.731  31.918  1.00  0.00     0.186 HD
HETATM   17  N6  UNL     1     186.549 119.717  32.737  1.00  0.00    -0.234 N 
HETATM   18  N7  UNL     1     186.434 121.787  31.835  1.00  0.00    -0.166 N 
ATOM     19  H62 UNL     1     187.074 118.868  32.946  1.00  0.00     0.174 HD
ATOM     20  H61 UNL     1     185.577 119.791  33.036  1.00  0.00     0.174 HD
HETATM   21  N8  UNL     1     186.598 124.012  30.765  1.00  0.00    -0.320 N 
ATOM     22  H8  UNL     1     185.655 124.367  30.927  1.00  0.00     0.169 HD
BRANCH  12  23
HETATM   23  N4  UNL     1     190.260 121.468  30.671  1.00  0.00    -0.383 N 
ATOM     24  H42 UNL     1     190.557 120.714  30.053  1.00  0.00     0.157 HD
ATOM     25  H41 UNL     1     190.936 122.154  31.008  1.00  0.00     0.157 HD
ENDBRANCH  12  23
BRANCH  18  26
HETATM   26  C21 UNL     1     185.046 121.959  32.224  1.00  0.00     0.149 C 
BRANCH  26  27
HETATM   27  C22 UNL     1     184.205 121.711  30.972  1.00  0.00     0.020 C 
BRANCH  27  28
HETATM   28  C23 UNL     1     183.509 120.396  31.003  1.00  0.00    -0.003 C 
HETATM   29  C24 UNL     1     182.531 120.365  32.156  1.00  0.00     0.005 C 
ENDBRANCH  27  28
ENDBRANCH  26  27
ENDBRANCH  18  26
ENDBRANCH   7   8
ENDBRANCH   5   7
BRANCH   4  30
HETATM   30  C8  UNL     1     184.325 127.494  29.051  1.00  0.00     0.275 C 
HETATM   31  O1  UNL     1     183.452 126.611  29.208  1.00  0.00    -0.266 OA
HETATM   32  N2  UNL     1     184.560 128.143  27.857  1.00  0.00    -0.328 N 
ATOM     33  H2  UNL     1     185.343 128.790  27.944  1.00  0.00     0.168 HD
BRANCH  32  34
HETATM   34  C9  UNL     1     184.033 128.172  26.555  1.00  0.00     0.000 C 
BRANCH  34  35
HETATM   35  C10 UNL     1     184.149 126.850  25.820  1.00  0.00     0.130 C 
BRANCH  35  36
HETATM   36  C11 UNL     1     185.547 126.597  25.361  1.00  0.00     0.128 C 
HETATM   37  C12 UNL     1     186.007 127.047  24.005  1.00  0.00     0.091 C 
HETATM   38  O2  UNL     1     186.342 126.021  26.066  1.00  0.00    -0.298 OA
ENDBRANCH  35  36
ENDBRANCH  34  35
BRANCH  34  39
HETATM   39  C13 UNL     1     182.791 128.911  26.206  1.00  0.00     0.023 C 
HETATM   40  C14 UNL     1     182.927 130.212  25.477  1.00  0.00     0.016 C 
HETATM   41  C15 UNL     1     181.797 128.051  25.442  1.00  0.00     0.016 C 
ENDBRANCH  34  39
ENDBRANCH  32  34
ENDBRANCH   4  30
BRANCH   1  42
HETATM   42  C5  UNL     1     185.751 129.251  33.549  1.00  0.00     0.084 C 
BRANCH  42  43
HETATM   43  C4  UNL     1     185.733 130.761  33.353  1.00  0.00     0.008 C 
BRANCH  43  44
HETATM   44  C3  UNL     1     186.854 131.392  34.116  1.00  0.00     0.000 C 
BRANCH  44  45
HETATM   45  C2  UNL     1     186.566 131.626  35.560  1.00  0.00    -0.005 C 
HETATM   46  C1  UNL     1     185.205 132.209  35.803  1.00  0.00     0.005 C 
ENDBRANCH  44  45
ENDBRANCH  43  44
ENDBRANCH  42  43
ENDBRANCH   1  42
TORSDOF 15
ENDMDL
MODEL 2
REMARK VINA RESULT: -8.611847681      1.191      2.199
REMARK  15 active torsions:
REMARK  status: ('A' for Active; 'I' for Inactive)
REMARK    1  A    between atoms: C2_2  and  C3_3 
REMARK    2  A    between atoms: C3_3  and  C4_4 
REMARK    3  A    between atoms: C4_4  and  C5_5 
REMARK    4  A    between atoms: C5_5  and  C6_6 
REMARK    5  A    between atoms: C7_9  and  C8_10 
REMARK       I    between atoms: C8_10  and  N2_12 
REMARK    6  A    between atoms: N2_12  and  C9_14 
REMARK    7  A    between atoms: C9_14  and  C10_15 
REMARK    8  A    between atoms: C9_14  and  C13_19 
REMARK    9  A    between atoms: C10_15  and  C11_16 
REMARK   10  A    between atoms: C16_22  and  S1_23 
REMARK   11  A    between atoms: S1_23  and  C17_24 
REMARK   12  A    between atoms: C19_28  and  N4_29 
REMARK   13  A    between atoms: N7_38  and  C21_39 
REMARK   14  A    between atoms: C21_39  and  C22_40 
REMARK   15  A    between atoms: C22_40  and  C23_41 
ROOT
HETATM    1  C6  UNL     1     185.396 128.531  31.478  1.00  0.00     0.125 A 
HETATM    2  N1  UNL     1     184.442 128.260  30.566  1.00  0.00    -0.333 N 
ATOM      3  H1  UNL     1     183.488 128.620  30.547  1.00  0.00     0.168 HD
HETATM    4  C7  UNL     1     185.009 127.416  29.685  1.00  0.00     0.144 A 
HETATM    5  C16 UNL     1     186.304 127.175  30.056  1.00  0.00     0.154 A 
HETATM    6  O3  UNL     1     186.496 127.868  31.146  1.00  0.00    -0.288 OA
ENDROOT
BRANCH   5   7
HETATM    7  S1  UNL     1     187.441 126.118  29.176  1.00  0.00    -0.026 SA
BRANCH   7   8
HETATM    8  C17 UNL     1     187.616 124.527  29.945  1.00  0.00     0.153 A 
HETATM    9  N3  UNL     1     188.685 123.705  29.971  1.00  0.00    -0.330 N 
HETATM   10  C18 UNL     1     188.373 122.610  30.694  1.00  0.00     0.124 A 
ATOM     11  H3  UNL     1     189.581 123.882  29.518  1.00  0.00     0.168 HD
HETATM   12  C19 UNL     1     189.029 121.464  31.069  1.00  0.00     0.145 A 
HETATM   13  C25 UNL     1     187.066 122.761  31.131  1.00  0.00     0.156 A 
HETATM   14  N5  UNL     1     188.407 120.543  31.826  1.00  0.00    -0.175 N 
HETATM   15  C20 UNL     1     187.114 120.711  32.246  1.00  0.00     0.681 A 
ATOM     16  H5  UNL     1     188.911 119.698  32.094  1.00  0.00     0.186 HD
HETATM   17  N6  UNL     1     186.537 119.816  32.963  1.00  0.00    -0.234 N 
HETATM   18  N7  UNL     1     186.454 121.810  31.900  1.00  0.00    -0.166 N 
ATOM     19  H62 UNL     1     187.044 118.972  33.228  1.00  0.00     0.174 HD
ATOM     20  H61 UNL     1     185.574 119.940  33.276  1.00  0.00     0.174 HD
HETATM   21  N8  UNL     1     186.649 123.937  30.652  1.00  0.00    -0.320 N 
ATOM     22  H8  UNL     1     185.720 124.330  30.805  1.00  0.00     0.169 HD
BRANCH  12  23
HETATM   23  N4  UNL     1     190.241 121.293  30.682  1.00  0.00    -0.383 N 
ATOM     24  H42 UNL     1     190.922 122.051  30.736  1.00  0.00     0.157 HD
ATOM     25  H41 UNL     1     190.515 120.380  30.318  1.00  0.00     0.157 HD
ENDBRANCH  12  23
BRANCH  18  26
HETATM   26  C21 UNL     1     185.080 122.050  32.304  1.00  0.00     0.149 C 
BRANCH  26  27
HETATM   27  C22 UNL     1     184.191 121.351  31.277  1.00  0.00     0.020 C 
BRANCH  27  28
HETATM   28  C23 UNL     1     183.128 120.524  31.909  1.00  0.00    -0.003 C 
HETATM   29  C24 UNL     1     182.020 120.271  30.912  1.00  0.00     0.005 C 
ENDBRANCH  27  28
ENDBRANCH  26  27
ENDBRANCH  18  26
ENDBRANCH   7   8
ENDBRANCH   5   7
BRANCH   4  30
HETATM   30  C8  UNL     1     184.308 126.817  28.496  1.00  0.00     0.275 C 
HETATM   31  O1  UNL     1     183.463 125.939  28.780  1.00  0.00    -0.266 OA
HETATM   32  N2  UNL     1     184.592 127.226  27.209  1.00  0.00    -0.328 N 
ATOM     33  H2  UNL     1     185.340 127.918  27.207  1.00  0.00     0.168 HD
BRANCH  32  34
HETATM   34  C9  UNL     1     184.148 126.967  25.902  1.00  0.00     0.000 C 
BRANCH  34  35
HETATM   35  C10 UNL     1     182.707 127.372  25.655  1.00  0.00     0.130 C 
BRANCH  35  36
HETATM   36  C11 UNL     1     182.412 128.725  26.213  1.00  0.00     0.128 C 
HETATM   37  C12 UNL     1     182.751 129.968  25.443  1.00  0.00     0.091 C 
HETATM   38  O2  UNL     1     181.895 128.855  27.298  1.00  0.00    -0.298 OA
ENDBRANCH  35  36
ENDBRANCH  34  35
BRANCH  34  39
HETATM   39  C13 UNL     1     185.009 127.163  24.705  1.00  0.00     0.023 C 
HETATM   40  C14 UNL     1     186.028 128.258  24.744  1.00  0.00     0.016 C 
HETATM   41  C15 UNL     1     185.713 125.885  24.280  1.00  0.00     0.016 C 
ENDBRANCH  34  39
ENDBRANCH  32  34
ENDBRANCH   4  30
BRANCH   1  42
HETATM   42  C5  UNL     1     185.328 129.407  32.692  1.00  0.00     0.084 C 
BRANCH  42  43
HETATM   43  C4  UNL     1     186.083 128.745  33.836  1.00  0.00     0.008 C 
BRANCH  43  44
HETATM   44  C3  UNL     1     187.112 129.683  34.384  1.00  0.00     0.000 C 
BRANCH  44  45
HETATM   45  C2  UNL     1     188.496 129.129  34.424  1.00  0.00    -0.005 C 
HETATM   46  C1  UNL     1     188.573 127.701  33.970  1.00  0.00     0.005 C 
ENDBRANCH  44  45
ENDBRANCH  43  44
ENDBRANCH  42  43
ENDBRANCH   1  42
TORSDOF 15
ENDMDL
MODEL 3
REMARK VINA RESULT: -8.583142753      5.011      8.622
REMARK  15 active torsions:
REMARK  status: ('A' for Active; 'I' for Inactive)
REMARK    1  A    between atoms: C2_2  and  C3_3 
REMARK    2  A    between atoms: C3_3  and  C4_4 
REMARK    3  A    between atoms: C4_4  and  C5_5 
REMARK    4  A    between atoms: C5_5  and  C6_6 
REMARK    5  A    between atoms: C7_9  and  C8_10 
REMARK       I    between atoms: C8_10  and  N2_12 
REMARK    6  A    between atoms: N2_12  and  C9_14 
REMARK    7  A    between atoms: C9_14  and  C10_15 
REMARK    8  A    between atoms: C9_14  and  C13_19 
REMARK    9  A    between atoms: C10_15  and  C11_16 
REMARK   10  A    between atoms: C16_22  and  S1_23 
REMARK   11  A    between atoms: S1_23  and  C17_24 
REMARK   12  A    between atoms: C19_28  and  N4_29 
REMARK   13  A    between atoms: N7_38  and  C21_39 
REMARK   14  A    between atoms: C21_39  and  C22_40 
REMARK   15  A    between atoms: C22_40  and  C23_41 
ROOT
HETATM    1  C6  UNL     1     186.820 121.425  31.788  1.00  0.00     0.125 A 
HETATM    2  N1  UNL     1     187.933 121.454  31.029  1.00  0.00    -0.333 N 
ATOM      3  H1  UNL     1     187.989 121.371  30.015  1.00  0.00     0.168 HD
HETATM    4  C7  UNL     1     188.956 121.616  31.889  1.00  0.00     0.144 A 
HETATM    5  C16 UNL     1     188.469 121.687  33.166  1.00  0.00     0.154 A 
HETATM    6  O3  UNL     1     187.172 121.566  33.059  1.00  0.00    -0.288 OA
ENDROOT
BRANCH   5   7
HETATM    7  S1  UNL     1     189.464 121.908  34.630  1.00  0.00    -0.026 SA
BRANCH   7   8
HETATM    8  C17 UNL     1     190.218 123.515  34.698  1.00  0.00     0.153 A 
HETATM    9  N3  UNL     1     191.332 123.908  35.348  1.00  0.00    -0.330 N 
HETATM   10  C18 UNL     1     191.542 125.216  35.096  1.00  0.00     0.124 A 
ATOM     11  H3  UNL     1     191.919 123.314  35.934  1.00  0.00     0.168 HD
HETATM   12  C19 UNL     1     192.487 126.145  35.460  1.00  0.00     0.145 A 
HETATM   13  C25 UNL     1     190.522 125.646  34.261  1.00  0.00     0.156 A 
HETATM   14  N5  UNL     1     192.402 127.409  35.012  1.00  0.00    -0.175 N 
HETATM   15  C20 UNL     1     191.385 127.815  34.188  1.00  0.00     0.681 A 
ATOM     16  H5  UNL     1     193.113 128.085  35.293  1.00  0.00     0.186 HD
HETATM   17  N6  UNL     1     191.319 129.029  33.777  1.00  0.00    -0.234 N 
HETATM   18  N7  UNL     1     190.457 126.939  33.819  1.00  0.00    -0.166 N 
ATOM     19  H62 UNL     1     192.032 129.701  34.061  1.00  0.00     0.174 HD
ATOM     20  H61 UNL     1     190.562 129.331  33.164  1.00  0.00     0.174 HD
HETATM   21  N8  UNL     1     189.745 124.581  34.048  1.00  0.00    -0.320 N 
ATOM     22  H8  UNL     1     188.906 124.582  33.468  1.00  0.00     0.169 HD
BRANCH  12  23
HETATM   23  N4  UNL     1     193.445 125.779  36.232  1.00  0.00    -0.383 N 
ATOM     24  H42 UNL     1     194.197 125.182  35.888  1.00  0.00     0.157 HD
ATOM     25  H41 UNL     1     193.442 126.098  37.201  1.00  0.00     0.157 HD
ENDBRANCH  12  23
BRANCH  18  26
HETATM   26  C21 UNL     1     189.349 127.301  32.953  1.00  0.00     0.149 C 
BRANCH  26  27
HETATM   27  C22 UNL     1     188.169 127.633  33.866  1.00  0.00     0.020 C 
BRANCH  27  28
HETATM   28  C23 UNL     1     186.859 127.265  33.264  1.00  0.00    -0.003 C 
HETATM   29  C24 UNL     1     187.071 126.233  32.178  1.00  0.00     0.005 C 
ENDBRANCH  27  28
ENDBRANCH  26  27
ENDBRANCH  18  26
ENDBRANCH   7   8
ENDBRANCH   5   7
BRANCH   4  30
HETATM   30  C8  UNL     1     190.407 121.680  31.495  1.00  0.00     0.275 C 
HETATM   31  O1  UNL     1     190.999 120.577  31.519  1.00  0.00    -0.266 OA
HETATM   32  N2  UNL     1     191.006 122.870  31.138  1.00  0.00    -0.328 N 
ATOM     33  H2  UNL     1     190.352 123.646  31.231  1.00  0.00     0.168 HD
BRANCH  32  34
HETATM   34  C9  UNL     1     192.256 123.322  30.684  1.00  0.00     0.000 C 
BRANCH  34  35
HETATM   35  C10 UNL     1     193.109 123.951  31.769  1.00  0.00     0.130 C 
BRANCH  35  36
HETATM   36  C11 UNL     1     193.131 125.440  31.659  1.00  0.00     0.128 C 
HETATM   37  C12 UNL     1     192.241 126.155  30.685  1.00  0.00     0.091 C 
HETATM   38  O2  UNL     1     193.866 126.107  32.349  1.00  0.00    -0.298 OA
ENDBRANCH  35  36
ENDBRANCH  34  35
BRANCH  34  39
HETATM   39  C13 UNL     1     193.065 122.580  29.681  1.00  0.00     0.023 C 
HETATM   40  C14 UNL     1     193.532 123.321  28.467  1.00  0.00     0.016 C 
HETATM   41  C15 UNL     1     194.271 121.893  30.300  1.00  0.00     0.016 C 
ENDBRANCH  34  39
ENDBRANCH  32  34
ENDBRANCH   4  30
BRANCH   1  42
HETATM   42  C5  UNL     1     185.390 121.260  31.370  1.00  0.00     0.084 C 
BRANCH  42  43
HETATM   43  C4  UNL     1     184.482 121.881  32.422  1.00  0.00     0.008 C 
BRANCH  43  44
HETATM   44  C3  UNL     1     184.423 123.365  32.239  1.00  0.00     0.000 C 
BRANCH  44  45
HETATM   45  C2  UNL     1     184.192 124.135  33.494  1.00  0.00    -0.005 C 
HETATM   46  C1  UNL     1     183.570 125.480  33.256  1.00  0.00     0.005 C 
ENDBRANCH  44  45
ENDBRANCH  43  44
ENDBRANCH  42  43
ENDBRANCH   1  42
TORSDOF 15
ENDMDL
MODEL 4
REMARK VINA RESULT: -8.520340306      2.557      8.020
REMARK  15 active torsions:
REMARK  status: ('A' for Active; 'I' for Inactive)
REMARK    1  A    between atoms: C2_2  and  C3_3 
REMARK    2  A    between atoms: C3_3  and  C4_4 
REMARK    3  A    between atoms: C4_4  and  C5_5 
REMARK    4  A    between atoms: C5_5  and  C6_6 
REMARK    5  A    between atoms: C7_9  and  C8_10 
REMARK       I    between atoms: C8_10  and  N2_12 
REMARK    6  A    between atoms: N2_12  and  C9_14 
REMARK    7  A    between atoms: C9_14  and  C10_15 
REMARK    8  A    between atoms: C9_14  and  C13_19 
REMARK    9  A    between atoms: C10_15  and  C11_16 
REMARK   10  A    between atoms: C16_22  and  S1_23 
REMARK   11  A    between atoms: S1_23  and  C17_24 
REMARK   12  A    between atoms: C19_28  and  N4_29 
REMARK   13  A    between atoms: N7_38  and  C21_39 
REMARK   14  A    between atoms: C21_39  and  C22_40 
REMARK   15  A    between atoms: C22_40  and  C23_41 
ROOT
HETATM    1  C6  UNL     1     185.375 126.854  32.735  1.00  0.00     0.125 A 
HETATM    2  N1  UNL     1     185.225 125.633  33.284  1.00  0.00    -0.333 N 
ATOM      3  H1  UNL     1     185.396 125.370  34.255  1.00  0.00     0.168 HD
HETATM    4  C7  UNL     1     184.802 124.834  32.288  1.00  0.00     0.144 A 
HETATM    5  C16 UNL     1     184.693 125.564  31.135  1.00  0.00     0.154 A 
HETATM    6  O3  UNL     1     185.049 126.781  31.450  1.00  0.00    -0.288 OA
ENDROOT
BRANCH   5   7
HETATM    7  S1  UNL     1     184.159 124.917  29.561  1.00  0.00    -0.026 SA
BRANCH   7   8
HETATM    8  C17 UNL     1     183.969 126.190  28.337  1.00  0.00     0.153 A 
HETATM    9  N3  UNL     1     182.861 126.871  27.979  1.00  0.00    -0.330 N 
HETATM   10  C18 UNL     1     183.190 127.764  27.023  1.00  0.00     0.124 A 
ATOM     11  H3  UNL     1     181.928 126.733  28.366  1.00  0.00     0.168 HD
HETATM   12  C19 UNL     1     182.516 128.712  26.294  1.00  0.00     0.145 A 
HETATM   13  C25 UNL     1     184.549 127.630  26.782  1.00  0.00     0.156 A 
HETATM   14  N5  UNL     1     183.170 129.465  25.392  1.00  0.00    -0.175 N 
HETATM   15  C20 UNL     1     184.513 129.317  25.168  1.00  0.00     0.681 A 
ATOM     16  H5  UNL     1     182.652 130.165  24.860  1.00  0.00     0.186 HD
HETATM   17  N6  UNL     1     185.116 130.041  24.297  1.00  0.00    -0.234 N 
HETATM   18  N7  UNL     1     185.192 128.408  25.858  1.00  0.00    -0.166 N 
ATOM     19  H62 UNL     1     184.594 130.740  23.768  1.00  0.00     0.174 HD
ATOM     20  H61 UNL     1     186.116 129.931  24.130  1.00  0.00     0.174 HD
HETATM   21  N8  UNL     1     184.977 126.665  27.601  1.00  0.00    -0.320 N 
ATOM     22  H8  UNL     1     185.941 126.337  27.657  1.00  0.00     0.169 HD
BRANCH  12  23
HETATM   23  N4  UNL     1     181.257 128.862  26.493  1.00  0.00    -0.383 N 
ATOM     24  H42 UNL     1     180.911 129.443  27.257  1.00  0.00     0.157 HD
ATOM     25  H41 UNL     1     180.603 128.388  25.870  1.00  0.00     0.157 HD
ENDBRANCH  12  23
BRANCH  18  26
HETATM   26  C21 UNL     1     186.615 128.192  25.669  1.00  0.00     0.149 C 
BRANCH  26  27
HETATM   27  C22 UNL     1     187.297 128.585  26.979  1.00  0.00     0.020 C 
BRANCH  27  28
HETATM   28  C23 UNL     1     187.977 129.906  26.897  1.00  0.00    -0.003 C 
HETATM   29  C24 UNL     1     188.521 130.111  25.500  1.00  0.00     0.005 C 
ENDBRANCH  27  28
ENDBRANCH  26  27
ENDBRANCH  18  26
ENDBRANCH   7   8
ENDBRANCH   5   7
BRANCH   4  30
HETATM   30  C8  UNL     1     184.524 123.362  32.427  1.00  0.00     0.275 C 
HETATM   31  O1  UNL     1     183.716 123.071  33.339  1.00  0.00    -0.266 OA
HETATM   32  N2  UNL     1     185.121 122.433  31.601  1.00  0.00    -0.328 N 
ATOM     33  H2  UNL     1     185.774 122.885  30.961  1.00  0.00     0.168 HD
BRANCH  32  34
HETATM   34  C9  UNL     1     185.091 121.045  31.385  1.00  0.00     0.000 C 
BRANCH  34  35
HETATM   35  C10 UNL     1     185.945 120.257  32.360  1.00  0.00     0.130 C 
BRANCH  35  36
HETATM   36  C11 UNL     1     187.310 120.846  32.496  1.00  0.00     0.128 C 
HETATM   37  C12 UNL     1     188.366 120.597  31.459  1.00  0.00     0.091 C 
HETATM   38  O2  UNL     1     187.602 121.537  33.445  1.00  0.00    -0.298 OA
ENDBRANCH  35  36
ENDBRANCH  34  35
BRANCH  34  39
HETATM   39  C13 UNL     1     183.854 120.318  30.993  1.00  0.00     0.023 C 
HETATM   40  C14 UNL     1     182.846 120.021  32.059  1.00  0.00     0.016 C 
HETATM   41  C15 UNL     1     183.128 120.985  29.837  1.00  0.00     0.016 C 
ENDBRANCH  34  39
ENDBRANCH  32  34
ENDBRANCH   4  30
BRANCH   1  42
HETATM   42  C5  UNL     1     185.828 128.133  33.371  1.00  0.00     0.084 C 
BRANCH  42  43
HETATM   43  C4  UNL     1     185.837 129.241  32.326  1.00  0.00     0.008 C 
BRANCH  43  44
HETATM   44  C3  UNL     1     185.696 130.575  32.990  1.00  0.00     0.000 C 
BRANCH  44  45
HETATM   45  C2  UNL     1     186.045 130.585  34.439  1.00  0.00    -0.005 C 
HETATM   46  C1  UNL     1     185.442 131.740  35.184  1.00  0.00     0.005 C 
ENDBRANCH  44  45
ENDBRANCH  43  44
ENDBRANCH  42  43
ENDBRANCH   1  42
TORSDOF 15
ENDMDL
MODEL 5
REMARK VINA RESULT: -8.507722594      3.760      8.958
REMARK  15 active torsions:
REMARK  status: ('A' for Active; 'I' for Inactive)
REMARK    1  A    between atoms: C2_2  and  C3_3 
REMARK    2  A    between atoms: C3_3  and  C4_4 
REMARK    3  A    between atoms: C4_4  and  C5_5 
REMARK    4  A    between atoms: C5_5  and  C6_6 
REMARK    5  A    between atoms: C7_9  and  C8_10 
REMARK       I    between atoms: C8_10  and  N2_12 
REMARK    6  A    between atoms: N2_12  and  C9_14 
REMARK    7  A    between atoms: C9_14  and  C10_15 
REMARK    8  A    between atoms: C9_14  and  C13_19 
REMARK    9  A    between atoms: C10_15  and  C11_16 
REMARK   10  A    between atoms: C16_22  and  S1_23 
REMARK   11  A    between atoms: S1_23  and  C17_24 
REMARK   12  A    between atoms: C19_28  and  N4_29 
REMARK   13  A    between atoms: N7_38  and  C21_39 
REMARK   14  A    between atoms: C21_39  and  C22_40 
REMARK   15  A    between atoms: C22_40  and  C23_41 
ROOT
HETATM    1  C6  UNL     1     188.150 121.725  32.917  1.00  0.00     0.125 A 
HETATM    2  N1  UNL     1     188.949 121.925  31.851  1.00  0.00    -0.333 N 
ATOM      3  H1  UNL     1     189.100 121.290  31.068  1.00  0.00     0.168 HD
HETATM    4  C7  UNL     1     189.507 123.135  32.035  1.00  0.00     0.144 A 
HETATM    5  C16 UNL     1     189.048 123.674  33.207  1.00  0.00     0.154 A 
HETATM    6  O3  UNL     1     188.230 122.787  33.709  1.00  0.00    -0.288 OA
ENDROOT
BRANCH   5   7
HETATM    7  S1  UNL     1     189.514 125.271  33.852  1.00  0.00    -0.026 SA
BRANCH   7   8
HETATM    8  C17 UNL     1     188.338 126.535  33.436  1.00  0.00     0.153 A 
HETATM    9  N3  UNL     1     188.347 127.846  33.751  1.00  0.00    -0.330 N 
HETATM   10  C18 UNL     1     187.264 128.432  33.201  1.00  0.00     0.124 A 
ATOM     11  H3  UNL     1     189.056 128.317  34.312  1.00  0.00     0.168 HD
HETATM   12  C19 UNL     1     186.750 129.705  33.168  1.00  0.00     0.145 A 
HETATM   13  C25 UNL     1     186.560 127.449  32.523  1.00  0.00     0.156 A 
HETATM   14  N5  UNL     1     185.611 129.959  32.499  1.00  0.00    -0.175 N 
HETATM   15  C20 UNL     1     184.930 128.973  31.836  1.00  0.00     0.681 A 
ATOM     16  H5  UNL     1     185.245 130.911  32.486  1.00  0.00     0.186 HD
HETATM   17  N6  UNL     1     183.841 129.236  31.210  1.00  0.00    -0.234 N 
HETATM   18  N7  UNL     1     185.403 127.732  31.850  1.00  0.00    -0.166 N 
ATOM     19  H62 UNL     1     183.478 130.189  31.200  1.00  0.00     0.174 HD
ATOM     20  H61 UNL     1     183.333 128.502  30.716  1.00  0.00     0.174 HD
HETATM   21  N8  UNL     1     187.249 126.317  32.694  1.00  0.00    -0.320 N 
ATOM     22  H8  UNL     1     186.980 125.411  32.310  1.00  0.00     0.169 HD
BRANCH  12  23
HETATM   23  N4  UNL     1     187.377 130.640  33.785  1.00  0.00    -0.383 N 
ATOM     24  H42 UNL     1     187.428 130.654  34.803  1.00  0.00     0.157 HD
ATOM     25  H41 UNL     1     187.826 131.373  33.236  1.00  0.00     0.157 HD
ENDBRANCH  12  23
BRANCH  18  26
HETATM   26  C21 UNL     1     184.731 126.637  31.175  1.00  0.00     0.149 C 
BRANCH  26  27
HETATM   27  C22 UNL     1     183.798 125.994  32.201  1.00  0.00     0.020 C 
BRANCH  27  28
HETATM   28  C23 UNL     1     184.141 124.572  32.473  1.00  0.00    -0.003 C 
HETATM   29  C24 UNL     1     183.787 124.228  33.903  1.00  0.00     0.005 C 
ENDBRANCH  27  28
ENDBRANCH  26  27
ENDBRANCH  18  26
ENDBRANCH   7   8
ENDBRANCH   5   7
BRANCH   4  30
HETATM   30  C8  UNL     1     190.501 123.774  31.103  1.00  0.00     0.275 C 
HETATM   31  O1  UNL     1     189.987 124.421  30.162  1.00  0.00    -0.266 OA
HETATM   32  N2  UNL     1     191.860 123.644  31.297  1.00  0.00    -0.328 N 
ATOM     33  H2  UNL     1     192.055 123.041  32.096  1.00  0.00     0.168 HD
BRANCH  32  34
HETATM   34  C9  UNL     1     193.053 124.101  30.714  1.00  0.00     0.000 C 
BRANCH  34  35
HETATM   35  C10 UNL     1     193.850 125.034  31.606  1.00  0.00     0.130 C 
BRANCH  35  36
HETATM   36  C11 UNL     1     194.366 124.331  32.818  1.00  0.00     0.128 C 
HETATM   37  C12 UNL     1     195.839 124.242  33.089  1.00  0.00     0.091 C 
HETATM   38  O2  UNL     1     193.612 123.815  33.610  1.00  0.00    -0.298 OA
ENDBRANCH  35  36
ENDBRANCH  34  35
BRANCH  34  39
HETATM   39  C13 UNL     1     193.923 123.235  29.875  1.00  0.00     0.023 C 
HETATM   40  C14 UNL     1     194.051 121.791  30.250  1.00  0.00     0.016 C 
HETATM   41  C15 UNL     1     193.561 123.303  28.400  1.00  0.00     0.016 C 
ENDBRANCH  34  39
ENDBRANCH  32  34
ENDBRANCH   4  30
BRANCH   1  42
HETATM   42  C5  UNL     1     187.285 120.547  33.249  1.00  0.00     0.084 C 
BRANCH  42  43
HETATM   43  C4  UNL     1     186.386 120.230  32.062  1.00  0.00     0.008 C 
BRANCH  43  44
HETATM   44  C3  UNL     1     185.191 121.130  32.066  1.00  0.00     0.000 C 
BRANCH  44  45
HETATM   45  C2  UNL     1     184.054 120.654  31.228  1.00  0.00    -0.005 C 
HETATM   46  C1  UNL     1     182.791 120.446  32.011  1.00  0.00     0.005 C 
ENDBRANCH  44  45
ENDBRANCH  43  44
ENDBRANCH  42  43
ENDBRANCH   1  42
TORSDOF 15
ENDMDL
