MODEL 1
REMARK VINA RESULT: -6.203790964      0.000      0.000
REMARK  8 active torsions:
REMARK  status: ('A' for Active; 'I' for Inactive)
REMARK    1  A    between atoms: C2_2  and  C3_3 
REMARK    2  A    between atoms: C5_7  and  N2_8 
REMARK       I    between atoms: N2_8  and  C6_10 
REMARK       I    between atoms: C6_10  and  N3_12 
REMARK    3  A    between atoms: C8_15  and  N4_16 
REMARK    4  A    between atoms: N4_16  and  C9_18 
REMARK    5  A    between atoms: C9_18  and  C10_19 
REMARK    6  A    between atoms: C9_18  and  N5_24 
REMARK    7  A    between atoms: C10_19  and  C11_20 
REMARK    8  A    between atoms: N5_24  and  C15_26 
ROOT
HETATM    1  C3  UNL     1      44.037  -2.712  27.204  1.00  0.00     0.026 A 
HETATM    2  C4  UNL     1      43.346  -3.846  26.838  1.00  0.00     0.114 A 
HETATM    3  N1  UNL     1      42.718  -4.571  27.800  1.00  0.00    -0.347 N 
ATOM      4  H1  UNL     1      42.202  -5.412  27.544  1.00  0.00     0.167 HD
HETATM    5  C5  UNL     1      42.770  -4.191  29.075  1.00  0.00     0.153 A 
HETATM    6  C8  UNL     1      43.467  -3.042  29.470  1.00  0.00     0.148 A 
HETATM    7  N6  UNL     1      44.074  -2.350  28.504  1.00  0.00    -0.342 N 
ATOM      8  H6  UNL     1      44.589  -1.508  28.759  1.00  0.00     0.167 HD
ENDROOT
BRANCH   6   9
HETATM    9  N4  UNL     1      43.461  -2.764  30.695  1.00  0.00    -0.352 N 
ATOM     10  H4  UNL     1      43.911  -3.461  31.290  1.00  0.00     0.163 HD
BRANCH   9  11
HETATM   11  C9  UNL     1      42.933  -1.645  31.392  1.00  0.00     0.179 C 
BRANCH  11  12
HETATM   12  C10 UNL     1      41.828  -0.929  30.657  1.00  0.00     0.054 C 
BRANCH  12  13
HETATM   13  C11 UNL     1      40.455  -1.226  31.152  1.00  0.00    -0.048 C 
HETATM   14  C12 UNL     1      39.594   0.032  31.258  1.00  0.00     0.014 C 
HETATM   15  C13 UNL     1      39.779  -2.030  30.023  1.00  0.00     0.014 C 
HETATM   16  C14 UNL     1      40.385  -2.078  32.373  1.00  0.00     0.014 C 
ENDBRANCH  12  13
ENDBRANCH  11  12
BRANCH  11  17
HETATM   17  N5  UNL     1      44.022  -0.785  31.746  1.00  0.00    -0.398 N 
ATOM     18  H5  UNL     1      44.832  -0.666  31.138  1.00  0.00     0.155 HD
BRANCH  17  19
HETATM   19  C15 UNL     1      43.913  -0.109  32.981  1.00  0.00     0.070 C 
HETATM   20  C16 UNL     1      43.438  -0.991  34.087  1.00  0.00     0.031 C 
HETATM   21  C17 UNL     1      45.326   0.370  33.357  1.00  0.00     0.031 C 
ENDBRANCH  17  19
ENDBRANCH  11  17
ENDBRANCH   9  11
ENDBRANCH   6   9
BRANCH   5  22
HETATM   22  N2  UNL     1      42.163  -4.903  29.958  1.00  0.00    -0.292 N 
HETATM   23  C6  UNL     1      42.340  -6.298  30.010  1.00  0.00     0.321 C 
HETATM   24  O1  UNL     1      41.409  -7.026  29.585  1.00  0.00    -0.247 OA
HETATM   25  N3  UNL     1      43.503  -6.929  30.512  1.00  0.00    -0.347 N 
HETATM   26  C7  UNL     1      43.641  -8.367  30.545  1.00  0.00     0.151 C 
ATOM     27  H3  UNL     1      44.268  -6.351  30.862  1.00  0.00     0.163 HD
ATOM     28  H2  UNL     1      41.544  -4.450  30.630  1.00  0.00     0.172 HD
ENDBRANCH   5  22
BRANCH   1  29
HETATM   29  C2  UNL     1      44.733  -1.902  26.168  1.00  0.00     0.054 C 
HETATM   30  C1  UNL     1      44.408  -2.350  24.772  1.00  0.00     0.011 C 
ENDBRANCH   1  29
TORSDOF 8
ENDMDL
MODEL 2
REMARK VINA RESULT: -5.987633185      2.187      4.946
REMARK  8 active torsions:
REMARK  status: ('A' for Active; 'I' for Inactive)
REMARK    1  A    between atoms: C2_2  and  C3_3 
REMARK    2  A    between atoms: C5_7  and  N2_8 
REMARK       I    between atoms: N2_8  and  C6_10 
REMARK       I    between atoms: C6_10  and  N3_12 
REMARK    3  A    between atoms: C8_15  and  N4_16 
REMARK    4  A    between atoms: N4_16  and  C9_18 
REMARK    5  A    between atoms: C9_18  and  C10_19 
REMARK    6  A    between atoms: C9_18  and  N5_24 
REMARK    7  A    between atoms: C10_19  and  C11_20 
REMARK    8  A    between atoms: N5_24  and  C15_26 
ROOT
HETATM    1  C3  UNL     1      44.154  -2.261  26.748  1.00  0.00     0.026 A 
HETATM    2  C4  UNL     1      44.153  -1.042  27.390  1.00  0.00     0.114 A 
HETATM    3  N1  UNL     1      43.975  -1.009  28.736  1.00  0.00    -0.347 N 
ATOM      4  H1  UNL     1      43.974  -0.113  29.225  1.00  0.00     0.167 HD
HETATM    5  C5  UNL     1      43.804  -2.136  29.423  1.00  0.00     0.153 A 
HETATM    6  C8  UNL     1      43.800  -3.387  28.791  1.00  0.00     0.148 A 
HETATM    7  N6  UNL     1      43.978  -3.387  27.469  1.00  0.00    -0.342 N 
ATOM      8  H6  UNL     1      43.981  -4.282  26.980  1.00  0.00     0.167 HD
ENDROOT
BRANCH   6   9
HETATM    9  N4  UNL     1      43.631  -4.394  29.522  1.00  0.00    -0.352 N 
ATOM     10  H4  UNL     1      44.396  -4.579  30.172  1.00  0.00     0.163 HD
BRANCH   9  11
HETATM   11  C9  UNL     1      42.556  -5.320  29.597  1.00  0.00     0.179 C 
BRANCH  11  12
HETATM   12  C10 UNL     1      41.604  -5.063  30.737  1.00  0.00     0.054 C 
BRANCH  12  13
HETATM   13  C11 UNL     1      40.178  -4.908  30.335  1.00  0.00    -0.048 C 
HETATM   14  C12 UNL     1      39.560  -6.228  29.876  1.00  0.00     0.014 C 
HETATM   15  C13 UNL     1      39.418  -4.590  31.640  1.00  0.00     0.014 C 
HETATM   16  C14 UNL     1      39.895  -3.782  29.400  1.00  0.00     0.014 C 
ENDBRANCH  12  13
ENDBRANCH  11  12
BRANCH  11  17
HETATM   17  N5  UNL     1      43.105  -6.642  29.610  1.00  0.00    -0.398 N 
ATOM     18  H5  UNL     1      43.425  -7.099  28.756  1.00  0.00     0.155 HD
BRANCH  17  19
HETATM   19  C15 UNL     1      43.179  -7.280  30.868  1.00  0.00     0.070 C 
HETATM   20  C16 UNL     1      42.641  -8.672  30.847  1.00  0.00     0.031 C 
HETATM   21  C17 UNL     1      44.669  -7.374  31.237  1.00  0.00     0.031 C 
ENDBRANCH  17  19
ENDBRANCH  11  17
ENDBRANCH   9  11
ENDBRANCH   6   9
BRANCH   5  22
HETATM   22  N2  UNL     1      43.638  -2.066  30.697  1.00  0.00    -0.292 N 
HETATM   23  C6  UNL     1      42.705  -1.174  31.257  1.00  0.00     0.321 C 
HETATM   24  O1  UNL     1      43.143  -0.135  31.813  1.00  0.00    -0.247 OA
HETATM   25  N3  UNL     1      41.305  -1.376  31.232  1.00  0.00    -0.347 N 
HETATM   26  C7  UNL     1      40.384  -0.431  31.821  1.00  0.00     0.151 C 
ATOM     27  H3  UNL     1      40.934  -2.215  30.786  1.00  0.00     0.163 HD
ATOM     28  H2  UNL     1      44.191  -2.665  31.310  1.00  0.00     0.172 HD
ENDBRANCH   5  22
BRANCH   1  29
HETATM   29  C2  UNL     1      44.347  -2.321  25.274  1.00  0.00     0.054 C 
HETATM   30  C1  UNL     1      44.080  -3.688  24.712  1.00  0.00     0.011 C 
ENDBRANCH   1  29
TORSDOF 8
ENDMDL
MODEL 3
REMARK VINA RESULT: -5.959336706      2.205      5.307
REMARK  8 active torsions:
REMARK  status: ('A' for Active; 'I' for Inactive)
REMARK    1  A    between atoms: C2_2  and  C3_3 
REMARK    2  A    between atoms: C5_7  and  N2_8 
REMARK       I    between atoms: N2_8  and  C6_10 
REMARK       I    between atoms: C6_10  and  N3_12 
REMARK    3  A    between atoms: C8_15  and  N4_16 
REMARK    4  A    between atoms: N4_16  and  C9_18 
REMARK    5  A    between atoms: C9_18  and  C10_19 
REMARK    6  A    between atoms: C9_18  and  N5_24 
REMARK    7  A    between atoms: C10_19  and  C11_20 
REMARK    8  A    between atoms: N5_24  and  C15_26 
ROOT
HETATM    1  C3  UNL     1      44.168  -2.290  26.805  1.00  0.00     0.026 A 
HETATM    2  C4  UNL     1      44.184  -1.064  27.435  1.00  0.00     0.114 A 
HETATM    3  N1  UNL     1      44.022  -1.016  28.783  1.00  0.00    -0.347 N 
ATOM      4  H1  UNL     1      44.033  -0.116  29.262  1.00  0.00     0.167 HD
HETATM    5  C5  UNL     1      43.851  -2.136  29.483  1.00  0.00     0.153 A 
HETATM    6  C8  UNL     1      43.830  -3.392  28.864  1.00  0.00     0.148 A 
HETATM    7  N6  UNL     1      43.993  -3.408  27.540  1.00  0.00    -0.342 N 
ATOM      8  H6  UNL     1      43.983  -4.308  27.060  1.00  0.00     0.167 HD
ENDROOT
BRANCH   6   9
HETATM    9  N4  UNL     1      43.662  -4.391  29.607  1.00  0.00    -0.352 N 
ATOM     10  H4  UNL     1      44.506  -4.711  30.083  1.00  0.00     0.163 HD
BRANCH   9  11
HETATM   11  C9  UNL     1      42.497  -5.149  29.897  1.00  0.00     0.179 C 
BRANCH  11  12
HETATM   12  C10 UNL     1      42.627  -6.618  29.584  1.00  0.00     0.054 C 
BRANCH  12  13
HETATM   13  C11 UNL     1      42.734  -7.503  30.778  1.00  0.00    -0.048 C 
HETATM   14  C12 UNL     1      41.533  -8.438  30.913  1.00  0.00     0.014 C 
HETATM   15  C13 UNL     1      43.903  -8.461  30.473  1.00  0.00     0.014 C 
HETATM   16  C14 UNL     1      43.076  -6.816  32.056  1.00  0.00     0.014 C 
ENDBRANCH  12  13
ENDBRANCH  11  12
BRANCH  11  17
HETATM   17  N5  UNL     1      41.386  -4.531  29.238  1.00  0.00    -0.398 N 
ATOM     18  H5  UNL     1      41.502  -3.997  28.377  1.00  0.00     0.155 HD
BRANCH  17  19
HETATM   19  C15 UNL     1      40.122  -4.700  29.844  1.00  0.00     0.070 C 
HETATM   20  C16 UNL     1      40.181  -4.662  31.335  1.00  0.00     0.031 C 
HETATM   21  C17 UNL     1      39.245  -3.519  29.394  1.00  0.00     0.031 C 
ENDBRANCH  17  19
ENDBRANCH  11  17
ENDBRANCH   9  11
ENDBRANCH   6   9
BRANCH   5  22
HETATM   22  N2  UNL     1      43.700  -2.051  30.758  1.00  0.00    -0.292 N 
HETATM   23  C6  UNL     1      42.767  -1.160  31.319  1.00  0.00     0.321 C 
HETATM   24  O1  UNL     1      43.203  -0.111  31.856  1.00  0.00    -0.247 OA
HETATM   25  N3  UNL     1      41.368  -1.375  31.315  1.00  0.00    -0.347 N 
HETATM   26  C7  UNL     1      40.446  -0.430  31.903  1.00  0.00     0.151 C 
ATOM     27  H3  UNL     1      40.999  -2.222  30.883  1.00  0.00     0.163 HD
ATOM     28  H2  UNL     1      44.266  -2.637  31.371  1.00  0.00     0.172 HD
ENDBRANCH   5  22
BRANCH   1  29
HETATM   29  C2  UNL     1      44.344  -2.366  25.330  1.00  0.00     0.054 C 
HETATM   30  C1  UNL     1      44.083  -3.742  24.788  1.00  0.00     0.011 C 
ENDBRANCH   1  29
TORSDOF 8
ENDMDL
MODEL 4
REMARK VINA RESULT: -5.831315927      2.399      4.721
REMARK  8 active torsions:
REMARK  status: ('A' for Active; 'I' for Inactive)
REMARK    1  A    between atoms: C2_2  and  C3_3 
REMARK    2  A    between atoms: C5_7  and  N2_8 
REMARK       I    between atoms: N2_8  and  C6_10 
REMARK       I    between atoms: C6_10  and  N3_12 
REMARK    3  A    between atoms: C8_15  and  N4_16 
REMARK    4  A    between atoms: N4_16  and  C9_18 
REMARK    5  A    between atoms: C9_18  and  C10_19 
REMARK    6  A    between atoms: C9_18  and  N5_24 
REMARK    7  A    between atoms: C10_19  and  C11_20 
REMARK    8  A    between atoms: N5_24  and  C15_26 
ROOT
HETATM    1  C3  UNL     1      43.619  -3.050  27.112  1.00  0.00     0.026 A 
HETATM    2  C4  UNL     1      44.151  -1.826  27.453  1.00  0.00     0.114 A 
HETATM    3  N1  UNL     1      43.563  -1.107  28.445  1.00  0.00    -0.347 N 
ATOM      4  H1  UNL     1      43.947  -0.200  28.709  1.00  0.00     0.167 HD
HETATM    5  C5  UNL     1      42.490  -1.579  29.076  1.00  0.00     0.153 A 
HETATM    6  C8  UNL     1      41.931  -2.820  28.746  1.00  0.00     0.148 A 
HETATM    7  N6  UNL     1      42.530  -3.503  27.769  1.00  0.00    -0.342 N 
ATOM      8  H6  UNL     1      42.148  -4.411  27.505  1.00  0.00     0.167 HD
ENDROOT
BRANCH   6   9
HETATM    9  N4  UNL     1      40.919  -3.181  29.396  1.00  0.00    -0.352 N 
ATOM     10  H4  UNL     1      40.159  -2.500  29.408  1.00  0.00     0.163 HD
BRANCH   9  11
HETATM   11  C9  UNL     1      40.653  -4.376  30.117  1.00  0.00     0.179 C 
BRANCH  11  12
HETATM   12  C10 UNL     1      39.290  -4.413  30.761  1.00  0.00     0.054 C 
BRANCH  12  13
HETATM   13  C11 UNL     1      38.260  -5.169  29.995  1.00  0.00    -0.048 C 
HETATM   14  C12 UNL     1      38.807  -6.476  29.423  1.00  0.00     0.014 C 
HETATM   15  C13 UNL     1      37.233  -5.638  31.046  1.00  0.00     0.014 C 
HETATM   16  C14 UNL     1      37.498  -4.373  28.990  1.00  0.00     0.014 C 
ENDBRANCH  12  13
ENDBRANCH  11  12
BRANCH  11  17
HETATM   17  N5  UNL     1      41.720  -4.582  31.049  1.00  0.00    -0.398 N 
ATOM     18  H5  UNL     1      42.076  -3.827  31.634  1.00  0.00     0.155 HD
BRANCH  17  19
HETATM   19  C15 UNL     1      42.254  -5.888  31.114  1.00  0.00     0.070 C 
HETATM   20  C16 UNL     1      42.553  -6.463  29.769  1.00  0.00     0.031 C 
HETATM   21  C17 UNL     1      43.587  -5.792  31.874  1.00  0.00     0.031 C 
ENDBRANCH  17  19
ENDBRANCH  11  17
ENDBRANCH   9  11
ENDBRANCH   6   9
BRANCH   5  22
HETATM   22  N2  UNL     1      41.960  -0.870  30.010  1.00  0.00    -0.292 N 
HETATM   23  C6  UNL     1      42.359  -1.024  31.351  1.00  0.00     0.321 C 
HETATM   24  O1  UNL     1      41.582  -1.631  32.130  1.00  0.00    -0.247 OA
HETATM   25  N3  UNL     1      43.580  -0.536  31.873  1.00  0.00    -0.347 N 
HETATM   26  C7  UNL     1      43.948  -0.719  33.258  1.00  0.00     0.151 C 
ATOM     27  H3  UNL     1      44.221  -0.040  31.252  1.00  0.00     0.163 HD
ATOM     28  H2  UNL     1      41.241  -0.186  29.775  1.00  0.00     0.172 HD
ENDBRANCH   5  22
BRANCH   1  29
HETATM   29  C2  UNL     1      44.246  -3.854  26.029  1.00  0.00     0.054 C 
HETATM   30  C1  UNL     1      44.186  -3.170  24.694  1.00  0.00     0.011 C 
ENDBRANCH   1  29
TORSDOF 8
ENDMDL
MODEL 5
REMARK VINA RESULT: -5.805484185      1.804      3.298
REMARK  8 active torsions:
REMARK  status: ('A' for Active; 'I' for Inactive)
REMARK    1  A    between atoms: C2_2  and  C3_3 
REMARK    2  A    between atoms: C5_7  and  N2_8 
REMARK       I    between atoms: N2_8  and  C6_10 
REMARK       I    between atoms: C6_10  and  N3_12 
REMARK    3  A    between atoms: C8_15  and  N4_16 
REMARK    4  A    between atoms: N4_16  and  C9_18 
REMARK    5  A    between atoms: C9_18  and  C10_19 
REMARK    6  A    between atoms: C9_18  and  N5_24 
REMARK    7  A    between atoms: C10_19  and  C11_20 
REMARK    8  A    between atoms: N5_24  and  C15_26 
ROOT
HETATM    1  C3  UNL     1      43.432  -2.092  27.964  1.00  0.00     0.026 A 
HETATM    2  C4  UNL     1      43.283  -3.400  27.559  1.00  0.00     0.114 A 
HETATM    3  N1  UNL     1      42.273  -4.140  28.086  1.00  0.00    -0.347 N 
ATOM      4  H1  UNL     1      42.151  -5.109  27.795  1.00  0.00     0.167 HD
HETATM    5  C5  UNL     1      41.442  -3.609  28.981  1.00  0.00     0.153 A 
HETATM    6  C8  UNL     1      41.576  -2.281  29.408  1.00  0.00     0.148 A 
HETATM    7  N6  UNL     1      42.576  -1.579  28.872  1.00  0.00    -0.342 N 
ATOM      8  H6  UNL     1      42.699  -0.610  29.162  1.00  0.00     0.167 HD
ENDROOT
BRANCH   6   9
HETATM    9  N4  UNL     1      40.745  -1.869  30.255  1.00  0.00    -0.352 N 
ATOM     10  H4  UNL     1      39.848  -2.355  30.239  1.00  0.00     0.163 HD
BRANCH   9  11
HETATM   11  C9  UNL     1      40.843  -0.841  31.231  1.00  0.00     0.179 C 
BRANCH  11  12
HETATM   12  C10 UNL     1      41.010  -1.348  32.641  1.00  0.00     0.054 C 
BRANCH  12  13
HETATM   13  C11 UNL     1      42.402  -1.742  33.000  1.00  0.00    -0.048 C 
HETATM   14  C12 UNL     1      43.445  -0.827  32.360  1.00  0.00     0.014 C 
HETATM   15  C13 UNL     1      42.535  -1.440  34.507  1.00  0.00     0.014 C 
HETATM   16  C14 UNL     1      42.721  -3.188  32.832  1.00  0.00     0.014 C 
ENDBRANCH  12  13
ENDBRANCH  11  12
BRANCH  11  17
HETATM   17  N5  UNL     1      39.717   0.030  31.077  1.00  0.00    -0.398 N 
ATOM     18  H5  UNL     1      39.656   0.699  30.309  1.00  0.00     0.155 HD
BRANCH  17  19
HETATM   19  C15 UNL     1      38.695  -0.087  32.044  1.00  0.00     0.070 C 
HETATM   20  C16 UNL     1      38.264   1.231  32.598  1.00  0.00     0.031 C 
HETATM   21  C17 UNL     1      37.476  -0.704  31.339  1.00  0.00     0.031 C 
ENDBRANCH  17  19
ENDBRANCH  11  17
ENDBRANCH   9  11
ENDBRANCH   6   9
BRANCH   5  22
HETATM   22  N2  UNL     1      40.498  -4.341  29.459  1.00  0.00    -0.292 N 
HETATM   23  C6  UNL     1      40.745  -5.663  29.869  1.00  0.00     0.321 C 
HETATM   24  O1  UNL     1      40.341  -6.595  29.128  1.00  0.00    -0.247 OA
HETATM   25  N3  UNL     1      41.419  -6.008  31.064  1.00  0.00    -0.347 N 
HETATM   26  C7  UNL     1      41.650  -7.383  31.445  1.00  0.00     0.151 C 
ATOM     27  H3  UNL     1      41.752  -5.263  31.677  1.00  0.00     0.163 HD
ATOM     28  H2  UNL     1      39.557  -3.956  29.541  1.00  0.00     0.172 HD
ENDBRANCH   5  22
BRANCH   1  29
HETATM   29  C2  UNL     1      44.531  -1.262  27.399  1.00  0.00     0.054 C 
HETATM   30  C1  UNL     1      44.934  -1.700  26.020  1.00  0.00     0.011 C 
ENDBRANCH   1  29
TORSDOF 8
ENDMDL
