MODEL 1
REMARK VINA RESULT: -5.995059834      0.000      0.000
REMARK  5 active torsions:
REMARK  status: ('A' for Active; 'I' for Inactive)
REMARK    1  A    between atoms: C2_2  and  C3_3 
REMARK    2  A    between atoms: C4_4  and  C5_5 
REMARK    3  A    between atoms: C10_14  and  C11_15 
REMARK    4  A    between atoms: C11_15  and  C12_16 
REMARK    5  A    between atoms: C15_25  and  C16_26 
ROOT
HETATM    1  C3  UNL     1      43.217  -2.889  31.195  1.00  0.00     0.001 A 
HETATM    2  C4  UNL     1      43.295  -1.550  31.452  1.00  0.00     0.021 A 
HETATM    3  N1  UNL     1      43.502  -0.904  30.264  1.00  0.00    -0.344 N 
ATOM      4  H1  UNL     1      43.601   0.104  30.144  1.00  0.00     0.167 HD
HETATM    5  C7  UNL     1      43.552  -1.811  29.294  1.00  0.00     0.118 A 
HETATM    6  N2  UNL     1      43.712  -1.921  27.970  1.00  0.00    -0.342 N 
ATOM      7  H2  UNL     1      43.860  -1.150  27.319  1.00  0.00     0.167 HD
HETATM    8  C8  UNL     1      43.643  -3.253  27.638  1.00  0.00     0.035 A 
HETATM    9  C9  UNL     1      43.753  -3.687  26.401  1.00  0.00     0.044 C 
HETATM   10  C10 UNL     1      43.435  -3.986  28.780  1.00  0.00     0.007 A 
HETATM   11  C18 UNL     1      43.379  -3.051  29.825  1.00  0.00     0.033 A 
ENDROOT
BRANCH  10  12
HETATM   12  C11 UNL     1      43.332  -5.269  28.973  1.00  0.00     0.045 C 
BRANCH  12  13
HETATM   13  C12 UNL     1      42.228  -6.050  29.498  1.00  0.00     0.046 A 
HETATM   14  N3  UNL     1      40.959  -5.678  29.274  1.00  0.00    -0.332 N 
HETATM   15  C13 UNL     1      39.904  -6.401  29.702  1.00  0.00     0.179 A 
ATOM     16  H3  UNL     1      40.784  -4.813  28.760  1.00  0.00     0.168 HD
HETATM   17  S1  UNL     1      38.355  -5.966  29.435  1.00  0.00    -0.040 SA
HETATM   18  N4  UNL     1      40.165  -7.542  30.380  1.00  0.00    -0.300 N 
HETATM   19  C14 UNL     1      41.396  -7.988  30.648  1.00  0.00     0.256 A 
ATOM     20  H4  UNL     1      39.374  -8.095  30.707  1.00  0.00     0.171 HD
HETATM   21  O1  UNL     1      41.605  -9.053  31.282  1.00  0.00    -0.267 OA
HETATM   22  C15 UNL     1      42.471  -7.206  30.185  1.00  0.00     0.036 A 
BRANCH  22  23
HETATM   23  C16 UNL     1      43.818  -7.719  30.459  1.00  0.00     0.042 C 
HETATM   24  C17 UNL     1      44.497  -7.230  31.681  1.00  0.00     0.010 C 
ENDBRANCH  22  23
ENDBRANCH  12  13
ENDBRANCH  10  12
BRANCH   1  25
HETATM   25  C2  UNL     1      43.007  -3.971  32.128  1.00  0.00     0.004 C 
HETATM   26  C1  UNL     1      41.910  -4.347  32.709  1.00  0.00     0.012 C 
ENDBRANCH   1  25
BRANCH   2  27
HETATM   27  C5  UNL     1      43.190  -0.823  32.713  1.00  0.00     0.053 C 
HETATM   28  C6  UNL     1      44.389  -0.082  33.170  1.00  0.00     0.011 C 
ENDBRANCH   2  27
TORSDOF 5
ENDMDL
MODEL 2
REMARK VINA RESULT: -5.967990966      3.724      6.621
REMARK  5 active torsions:
REMARK  status: ('A' for Active; 'I' for Inactive)
REMARK    1  A    between atoms: C2_2  and  C3_3 
REMARK    2  A    between atoms: C4_4  and  C5_5 
REMARK    3  A    between atoms: C10_14  and  C11_15 
REMARK    4  A    between atoms: C11_15  and  C12_16 
REMARK    5  A    between atoms: C15_25  and  C16_26 
ROOT
HETATM    1  C3  UNL     1      43.162  -2.661  27.851  1.00  0.00     0.001 A 
HETATM    2  C4  UNL     1      43.512  -3.734  27.082  1.00  0.00     0.021 A 
HETATM    3  N1  UNL     1      42.779  -4.810  27.500  1.00  0.00    -0.344 N 
ATOM      4  H1  UNL     1      42.826  -5.752  27.110  1.00  0.00     0.167 HD
HETATM    5  C7  UNL     1      41.994  -4.423  28.500  1.00  0.00     0.118 A 
HETATM    6  N2  UNL     1      41.068  -4.889  29.347  1.00  0.00    -0.342 N 
ATOM      7  H2  UNL     1      40.721  -5.847  29.385  1.00  0.00     0.167 HD
HETATM    8  C8  UNL     1      40.666  -3.854  30.157  1.00  0.00     0.035 A 
HETATM    9  C9  UNL     1      39.751  -3.993  31.091  1.00  0.00     0.044 C 
HETATM   10  C10 UNL     1      41.357  -2.721  29.806  1.00  0.00     0.007 A 
HETATM   11  C18 UNL     1      42.198  -3.101  28.749  1.00  0.00     0.033 A 
ENDROOT
BRANCH  10  12
HETATM   12  C11 UNL     1      41.342  -1.515  30.298  1.00  0.00     0.045 C 
BRANCH  12  13
HETATM   13  C12 UNL     1      41.808  -1.023  31.579  1.00  0.00     0.046 A 
HETATM   14  N3  UNL     1      43.115  -0.808  31.797  1.00  0.00    -0.332 N 
HETATM   15  C13 UNL     1      43.585  -0.305  32.956  1.00  0.00     0.179 A 
ATOM     16  H3  UNL     1      43.779  -1.035  31.055  1.00  0.00     0.168 HD
HETATM   17  S1  UNL     1      45.169  -0.034  33.235  1.00  0.00    -0.040 SA
HETATM   18  N4  UNL     1      42.682  -0.014  33.920  1.00  0.00    -0.300 N 
HETATM   19  C14 UNL     1      41.365  -0.196  33.791  1.00  0.00     0.256 A 
ATOM     20  H4  UNL     1      43.029   0.367  34.800  1.00  0.00     0.171 HD
HETATM   21  O1  UNL     1      40.552   0.085  34.708  1.00  0.00    -0.267 OA
HETATM   22  C15 UNL     1      40.911  -0.722  32.567  1.00  0.00     0.036 A 
BRANCH  22  23
HETATM   23  C16 UNL     1      39.461  -0.891  32.424  1.00  0.00     0.042 C 
HETATM   24  C17 UNL     1      38.693   0.253  31.882  1.00  0.00     0.010 C 
ENDBRANCH  22  23
ENDBRANCH  12  13
ENDBRANCH  10  12
BRANCH   1  25
HETATM   25  C2  UNL     1      43.664  -1.309  27.786  1.00  0.00     0.004 C 
HETATM   26  C1  UNL     1      44.891  -0.891  27.826  1.00  0.00     0.012 C 
ENDBRANCH   1  25
BRANCH   2  27
HETATM   27  C5  UNL     1      44.471  -3.838  25.987  1.00  0.00     0.053 C 
HETATM   28  C6  UNL     1      44.073  -3.263  24.681  1.00  0.00     0.011 C 
ENDBRANCH   2  27
TORSDOF 5
ENDMDL
MODEL 3
REMARK VINA RESULT: -5.966786654      3.046      6.251
REMARK  5 active torsions:
REMARK  status: ('A' for Active; 'I' for Inactive)
REMARK    1  A    between atoms: C2_2  and  C3_3 
REMARK    2  A    between atoms: C4_4  and  C5_5 
REMARK    3  A    between atoms: C10_14  and  C11_15 
REMARK    4  A    between atoms: C11_15  and  C12_16 
REMARK    5  A    between atoms: C15_25  and  C16_26 
ROOT
HETATM    1  C3  UNL     1      42.727  -7.501  30.441  1.00  0.00     0.001 A 
HETATM    2  C4  UNL     1      41.852  -8.516  30.706  1.00  0.00     0.021 A 
HETATM    3  N1  UNL     1      40.583  -8.024  30.578  1.00  0.00    -0.344 N 
ATOM      4  H1  UNL     1      39.722  -8.554  30.716  1.00  0.00     0.167 HD
HETATM    5  C7  UNL     1      40.660  -6.740  30.244  1.00  0.00     0.118 A 
HETATM    6  N2  UNL     1      39.890  -5.681  29.968  1.00  0.00    -0.342 N 
ATOM      7  H2  UNL     1      38.870  -5.667  29.965  1.00  0.00     0.167 HD
HETATM    8  C8  UNL     1      40.710  -4.614  29.688  1.00  0.00     0.035 A 
HETATM    9  C9  UNL     1      40.250  -3.425  29.366  1.00  0.00     0.044 C 
HETATM   10  C10 UNL     1      42.018  -5.019  29.794  1.00  0.00     0.007 A 
HETATM   11  C18 UNL     1      41.967  -6.376  30.148  1.00  0.00     0.033 A 
ENDROOT
BRANCH  10  12
HETATM   12  C11 UNL     1      43.136  -4.367  29.653  1.00  0.00     0.045 C 
BRANCH  12  13
HETATM   13  C12 UNL     1      43.587  -3.506  28.577  1.00  0.00     0.046 A 
HETATM   14  N3  UNL     1      43.646  -3.960  27.316  1.00  0.00    -0.332 N 
HETATM   15  C13 UNL     1      44.013  -3.179  26.280  1.00  0.00     0.179 A 
ATOM     16  H3  UNL     1      43.405  -4.934  27.134  1.00  0.00     0.168 HD
HETATM   17  S1  UNL     1      44.087  -3.712  24.740  1.00  0.00    -0.040 SA
HETATM   18  N4  UNL     1      44.328  -1.892  26.551  1.00  0.00    -0.300 N 
HETATM   19  C14 UNL     1      44.296  -1.356  27.775  1.00  0.00     0.256 A 
ATOM     20  H4  UNL     1      44.606  -1.293  25.773  1.00  0.00     0.171 HD
HETATM   21  O1  UNL     1      44.596  -0.155  27.993  1.00  0.00    -0.267 OA
HETATM   22  C15 UNL     1      43.909  -2.202  28.831  1.00  0.00     0.036 A 
BRANCH  22  23
HETATM   23  C16 UNL     1      43.850  -1.597  30.166  1.00  0.00     0.042 C 
HETATM   24  C17 UNL     1      42.566  -0.986  30.580  1.00  0.00     0.010 C 
ENDBRANCH  22  23
ENDBRANCH  12  13
ENDBRANCH  10  12
BRANCH   1  25
HETATM   25  C2  UNL     1      44.170  -7.535  30.450  1.00  0.00     0.004 C 
HETATM   26  C1  UNL     1      44.989  -7.188  31.395  1.00  0.00     0.012 C 
ENDBRANCH   1  25
BRANCH   2  27
HETATM   27  C5  UNL     1      42.103  -9.909  31.064  1.00  0.00     0.053 C 
HETATM   28  C6  UNL     1      42.524 -10.184  32.458  1.00  0.00     0.011 C 
ENDBRANCH   2  27
TORSDOF 5
ENDMDL
MODEL 4
REMARK VINA RESULT: -5.869940382      2.745      5.471
REMARK  5 active torsions:
REMARK  status: ('A' for Active; 'I' for Inactive)
REMARK    1  A    between atoms: C2_2  and  C3_3 
REMARK    2  A    between atoms: C4_4  and  C5_5 
REMARK    3  A    between atoms: C10_14  and  C11_15 
REMARK    4  A    between atoms: C11_15  and  C12_16 
REMARK    5  A    between atoms: C15_25  and  C16_26 
ROOT
HETATM    1  C3  UNL     1      43.072  -4.650  30.514  1.00  0.00     0.001 A 
HETATM    2  C4  UNL     1      42.927  -5.779  29.758  1.00  0.00     0.021 A 
HETATM    3  N1  UNL     1      43.148  -5.443  28.451  1.00  0.00    -0.344 N 
ATOM      4  H1  UNL     1      43.109  -6.082  27.657  1.00  0.00     0.167 HD
HETATM    5  C7  UNL     1      43.422  -4.144  28.391  1.00  0.00     0.118 A 
HETATM    6  N2  UNL     1      43.723  -3.176  27.516  1.00  0.00    -0.342 N 
ATOM      7  H2  UNL     1      43.816  -3.289  26.507  1.00  0.00     0.167 HD
HETATM    8  C8  UNL     1      43.885  -2.002  28.213  1.00  0.00     0.035 A 
HETATM    9  C9  UNL     1      44.198  -0.865  27.631  1.00  0.00     0.044 C 
HETATM   10  C10 UNL     1      43.680  -2.246  29.548  1.00  0.00     0.007 A 
HETATM   11  C18 UNL     1      43.386  -3.615  29.643  1.00  0.00     0.033 A 
ENDROOT
BRANCH  10  12
HETATM   12  C11 UNL     1      43.694  -1.453  30.581  1.00  0.00     0.045 C 
BRANCH  12  13
HETATM   13  C12 UNL     1      42.613  -1.030  31.449  1.00  0.00     0.046 A 
HETATM   14  N3  UNL     1      41.352  -0.970  30.995  1.00  0.00    -0.332 N 
HETATM   15  C13 UNL     1      40.312  -0.630  31.782  1.00  0.00     0.179 A 
ATOM     16  H3  UNL     1      41.173  -1.191  30.015  1.00  0.00     0.168 HD
HETATM   17  S1  UNL     1      38.772  -0.556  31.248  1.00  0.00    -0.040 SA
HETATM   18  N4  UNL     1      40.578  -0.342  33.077  1.00  0.00    -0.300 N 
HETATM   19  C14 UNL     1      41.802  -0.376  33.614  1.00  0.00     0.256 A 
ATOM     20  H4  UNL     1      39.798  -0.084  33.680  1.00  0.00     0.171 HD
HETATM   21  O1  UNL     1      42.016  -0.102  34.822  1.00  0.00    -0.267 OA
HETATM   22  C15 UNL     1      42.862  -0.736  32.761  1.00  0.00     0.036 A 
BRANCH  22  23
HETATM   23  C16 UNL     1      44.197  -0.798  33.367  1.00  0.00     0.042 C 
HETATM   24  C17 UNL     1      45.010   0.440  33.350  1.00  0.00     0.010 C 
ENDBRANCH  22  23
ENDBRANCH  12  13
ENDBRANCH  10  12
BRANCH   1  25
HETATM   25  C2  UNL     1      42.935  -4.504  31.944  1.00  0.00     0.004 C 
HETATM   26  C1  UNL     1      41.855  -4.394  32.654  1.00  0.00     0.012 C 
ENDBRANCH   1  25
BRANCH   2  27
HETATM   27  C5  UNL     1      42.604  -7.145  30.155  1.00  0.00     0.053 C 
HETATM   28  C6  UNL     1      43.736  -8.032  30.514  1.00  0.00     0.011 C 
ENDBRANCH   2  27
TORSDOF 5
ENDMDL
MODEL 5
REMARK VINA RESULT: -5.861745686      2.980      5.789
REMARK  5 active torsions:
REMARK  status: ('A' for Active; 'I' for Inactive)
REMARK    1  A    between atoms: C2_2  and  C3_3 
REMARK    2  A    between atoms: C4_4  and  C5_5 
REMARK    3  A    between atoms: C10_14  and  C11_15 
REMARK    4  A    between atoms: C11_15  and  C12_16 
REMARK    5  A    between atoms: C15_25  and  C16_26 
ROOT
HETATM    1  C3  UNL     1      43.666  -2.785  28.040  1.00  0.00     0.001 A 
HETATM    2  C4  UNL     1      43.797  -3.331  26.795  1.00  0.00     0.021 A 
HETATM    3  N1  UNL     1      43.149  -4.535  26.791  1.00  0.00    -0.344 N 
ATOM      4  H1  UNL     1      43.077  -5.171  25.996  1.00  0.00     0.167 HD
HETATM    5  C7  UNL     1      42.628  -4.737  27.997  1.00  0.00     0.118 A 
HETATM    6  N2  UNL     1      41.909  -5.627  28.692  1.00  0.00    -0.342 N 
ATOM      7  H2  UNL     1      41.552  -6.514  28.339  1.00  0.00     0.167 HD
HETATM    8  C8  UNL     1      41.736  -5.139  29.965  1.00  0.00     0.035 A 
HETATM    9  C9  UNL     1      41.058  -5.782  30.890  1.00  0.00     0.044 C 
HETATM   10  C10 UNL     1      42.360  -3.920  30.063  1.00  0.00     0.007 A 
HETATM   11  C18 UNL     1      42.923  -3.680  28.800  1.00  0.00     0.033 A 
ENDROOT
BRANCH  10  12
HETATM   12  C11 UNL     1      42.495  -3.099  31.064  1.00  0.00     0.045 C 
BRANCH  12  13
HETATM   13  C12 UNL     1      41.552  -2.157  31.634  1.00  0.00     0.046 A 
HETATM   14  N3  UNL     1      40.300  -2.070  31.160  1.00  0.00    -0.332 N 
HETATM   15  C13 UNL     1      39.378  -1.243  31.693  1.00  0.00     0.179 A 
ATOM     16  H3  UNL     1      40.034  -2.653  30.366  1.00  0.00     0.168 HD
HETATM   17  S1  UNL     1      37.850  -1.128  31.134  1.00  0.00    -0.040 SA
HETATM   18  N4  UNL     1      39.757  -0.482  32.745  1.00  0.00    -0.300 N 
HETATM   19  C14 UNL     1      40.982  -0.503  33.280  1.00  0.00     0.256 A 
ATOM     20  H4  UNL     1      39.067   0.147  33.155  1.00  0.00     0.171 HD
HETATM   21  O1  UNL     1      41.303   0.217  34.259  1.00  0.00    -0.267 OA
HETATM   22  C15 UNL     1      41.916  -1.379  32.698  1.00  0.00     0.036 A 
BRANCH  22  23
HETATM   23  C16 UNL     1      43.249  -1.416  33.311  1.00  0.00     0.042 C 
HETATM   24  C17 UNL     1      44.248  -0.435  32.828  1.00  0.00     0.010 C 
ENDBRANCH  22  23
ENDBRANCH  12  13
ENDBRANCH  10  12
BRANCH   1  25
HETATM   25  C2  UNL     1      44.179  -1.527  28.527  1.00  0.00     0.004 C 
HETATM   26  C1  UNL     1      44.599  -0.501  27.853  1.00  0.00     0.012 C 
ENDBRANCH   1  25
BRANCH   2  27
HETATM   27  C5  UNL     1      44.474  -2.820  25.607  1.00  0.00     0.053 C 
HETATM   28  C6  UNL     1      44.114  -3.433  24.306  1.00  0.00     0.011 C 
ENDBRANCH   2  27
TORSDOF 5
ENDMDL
