MODEL 1
REMARK VINA RESULT: -7.118964474      0.000      0.000
REMARK  7 active torsions:
REMARK  status: ('A' for Active; 'I' for Inactive)
REMARK    1  A    between atoms: C2_2  and  C3_3 
REMARK    2  A    between atoms: C3_3  and  C4_4 
REMARK    3  A    between atoms: C5_5  and  N1_6 
REMARK       I    between atoms: N1_6  and  C6_7 
REMARK       I    between atoms: C6_7  and  N2_9 
REMARK    4  A    between atoms: N2_9  and  C7_11 
REMARK    5  A    between atoms: C13_19  and  N4_20 
REMARK    6  A    between atoms: N4_20  and  C14_22 
REMARK    7  A    between atoms: C14_22  and  C15_23 
ROOT
HETATM    1  C4  UNL     1      41.543  -1.489  31.397  1.00  0.00     0.033 A 
HETATM    2  C5  UNL     1      42.806  -1.062  31.745  1.00  0.00     0.193 A 
HETATM    3  N3  UNL     1      43.853  -1.535  30.957  1.00  0.00    -0.340 N 
ATOM      4  H3  UNL     1      44.802  -1.238  31.184  1.00  0.00     0.167 HD
HETATM    5  C11 UNL     1      43.676  -2.353  29.925  1.00  0.00     0.108 A 
HETATM    6  C12 UNL     1      42.437  -2.789  29.565  1.00  0.00     0.053 A 
HETATM    7  C13 UNL     1      41.985  -3.623  28.561  1.00  0.00     0.130 A 
HETATM    8  N5  UNL     1      40.650  -3.666  28.724  1.00  0.00    -0.284 N 
ATOM      9  H5  UNL     1      40.011  -4.201  28.136  1.00  0.00     0.188 HD
HETATM   10  N6  UNL     1      40.279  -2.915  29.757  1.00  0.00    -0.298 N 
ATOM     11  H6  UNL     1      39.320  -2.787  30.080  1.00  0.00     0.187 HD
HETATM   12  C18 UNL     1      41.373  -2.348  30.312  1.00  0.00     0.074 A 
ENDROOT
BRANCH   2  13
HETATM   13  N1  UNL     1      43.107  -0.356  32.682  1.00  0.00    -0.333 NA
HETATM   14  C6  UNL     1      43.838   0.308  33.551  1.00  0.00     0.396 C 
HETATM   15  O1  UNL     1      44.613   1.262  33.176  1.00  0.00    -0.230 OA
HETATM   16  N2  UNL     1      43.878   0.084  34.966  1.00  0.00    -0.323 N 
ATOM     17  H2  UNL     1      43.290  -0.663  35.337  1.00  0.00     0.166 HD
BRANCH  16  18
HETATM   18  C7  UNL     1      44.672   0.818  35.901  1.00  0.00     0.024 C 
HETATM   19  C8  UNL     1      44.551   2.316  35.803  1.00  0.00     0.037 C 
HETATM   20  C9  UNL     1      46.120   0.410  35.770  1.00  0.00     0.037 C 
HETATM   21  C10 UNL     1      44.253   0.432  37.331  1.00  0.00     0.037 C 
ENDBRANCH  16  18
ENDBRANCH   2  13
BRANCH   1  22
HETATM   22  C3  UNL     1      40.310  -1.049  32.083  1.00  0.00     0.072 C 
BRANCH  22  23
HETATM   23  C2  UNL     1      39.629   0.074  31.403  1.00  0.00    -0.032 C 
HETATM   24  C1  UNL     1      38.687   0.750  32.015  1.00  0.00     0.007 C 
ENDBRANCH  22  23
ENDBRANCH   1  22
BRANCH   7  25
HETATM   25  N4  UNL     1      42.717  -4.216  27.672  1.00  0.00    -0.374 N 
ATOM     26  H4  UNL     1      42.390  -5.069  27.218  1.00  0.00     0.161 HD
BRANCH  25  27
HETATM   27  C14 UNL     1      43.998  -3.654  27.333  1.00  0.00     0.125 C 
BRANCH  27  28
HETATM   28  C15 UNL     1      43.909  -2.695  26.163  1.00  0.00    -0.005 C 
HETATM   29  C16 UNL     1      44.915  -1.588  26.326  1.00  0.00     0.011 C 
HETATM   30  C17 UNL     1      44.138  -3.494  24.903  1.00  0.00     0.011 C 
ENDBRANCH  27  28
ENDBRANCH  25  27
ENDBRANCH   7  25
TORSDOF 7
ENDMDL
MODEL 2
REMARK VINA RESULT: -6.934152615      0.338      1.149
REMARK  7 active torsions:
REMARK  status: ('A' for Active; 'I' for Inactive)
REMARK    1  A    between atoms: C2_2  and  C3_3 
REMARK    2  A    between atoms: C3_3  and  C4_4 
REMARK    3  A    between atoms: C5_5  and  N1_6 
REMARK       I    between atoms: N1_6  and  C6_7 
REMARK       I    between atoms: C6_7  and  N2_9 
REMARK    4  A    between atoms: N2_9  and  C7_11 
REMARK    5  A    between atoms: C13_19  and  N4_20 
REMARK    6  A    between atoms: N4_20  and  C14_22 
REMARK    7  A    between atoms: C14_22  and  C15_23 
ROOT
HETATM    1  C4  UNL     1      41.698  -1.307  31.381  1.00  0.00     0.033 A 
HETATM    2  C5  UNL     1      42.971  -0.859  31.658  1.00  0.00     0.193 A 
HETATM    3  N3  UNL     1      43.970  -1.268  30.778  1.00  0.00    -0.340 N 
ATOM      4  H3  UNL     1      44.926  -0.954  30.950  1.00  0.00     0.167 HD
HETATM    5  C11 UNL     1      43.742  -2.047  29.726  1.00  0.00     0.108 A 
HETATM    6  C12 UNL     1      42.492  -2.503  29.435  1.00  0.00     0.053 A 
HETATM    7  C13 UNL     1      41.990  -3.307  28.430  1.00  0.00     0.130 A 
HETATM    8  N5  UNL     1      40.672  -3.395  28.684  1.00  0.00    -0.284 N 
ATOM      9  H5  UNL     1      40.007  -3.924  28.120  1.00  0.00     0.188 HD
HETATM   10  N6  UNL     1      40.357  -2.700  29.773  1.00  0.00    -0.298 N 
ATOM     11  H6  UNL     1      39.420  -2.613  30.168  1.00  0.00     0.187 HD
HETATM   12  C18 UNL     1      41.472  -2.125  30.274  1.00  0.00     0.074 A 
ENDROOT
BRANCH   2  13
HETATM   13  N1  UNL     1      43.320  -0.185  32.601  1.00  0.00    -0.333 NA
HETATM   14  C6  UNL     1      44.083   0.348  33.531  1.00  0.00     0.396 C 
HETATM   15  O1  UNL     1      45.093   1.080  33.222  1.00  0.00    -0.230 OA
HETATM   16  N2  UNL     1      43.912   0.205  34.946  1.00  0.00    -0.323 N 
ATOM     17  H2  UNL     1      43.130  -0.367  35.267  1.00  0.00     0.166 HD
BRANCH  16  18
HETATM   18  C7  UNL     1      44.744   0.797  35.947  1.00  0.00     0.024 C 
HETATM   19  C8  UNL     1      46.210   0.472  35.832  1.00  0.00     0.037 C 
HETATM   20  C9  UNL     1      44.240   0.416  37.318  1.00  0.00     0.037 C 
HETATM   21  C10 UNL     1      44.621   2.330  35.864  1.00  0.00     0.037 C 
ENDBRANCH  16  18
ENDBRANCH   2  13
BRANCH   1  22
HETATM   22  C3  UNL     1      40.506  -0.933  32.171  1.00  0.00     0.072 C 
BRANCH  22  23
HETATM   23  C2  UNL     1      39.659   0.082  31.508  1.00  0.00    -0.032 C 
HETATM   24  C1  UNL     1      38.706   0.691  32.172  1.00  0.00     0.007 C 
ENDBRANCH  22  23
ENDBRANCH   1  22
BRANCH   7  25
HETATM   25  N4  UNL     1      42.672  -3.841  27.466  1.00  0.00    -0.374 N 
ATOM     26  H4  UNL     1      42.203  -4.377  26.736  1.00  0.00     0.161 HD
BRANCH  25  27
HETATM   27  C14 UNL     1      44.100  -3.666  27.440  1.00  0.00     0.125 C 
BRANCH  27  28
HETATM   28  C15 UNL     1      44.586  -3.134  26.107  1.00  0.00    -0.005 C 
HETATM   29  C16 UNL     1      43.905  -3.865  24.981  1.00  0.00     0.011 C 
HETATM   30  C17 UNL     1      44.304  -1.651  26.079  1.00  0.00     0.011 C 
ENDBRANCH  27  28
ENDBRANCH  25  27
ENDBRANCH   7  25
TORSDOF 7
ENDMDL
MODEL 3
REMARK VINA RESULT: -6.832126331      1.018      1.283
REMARK  7 active torsions:
REMARK  status: ('A' for Active; 'I' for Inactive)
REMARK    1  A    between atoms: C2_2  and  C3_3 
REMARK    2  A    between atoms: C3_3  and  C4_4 
REMARK    3  A    between atoms: C5_5  and  N1_6 
REMARK       I    between atoms: N1_6  and  C6_7 
REMARK       I    between atoms: C6_7  and  N2_9 
REMARK    4  A    between atoms: N2_9  and  C7_11 
REMARK    5  A    between atoms: C13_19  and  N4_20 
REMARK    6  A    between atoms: N4_20  and  C14_22 
REMARK    7  A    between atoms: C14_22  and  C15_23 
ROOT
HETATM    1  C4  UNL     1      42.399  -2.111  31.567  1.00  0.00     0.033 A 
HETATM    2  C5  UNL     1      43.442  -1.211  31.546  1.00  0.00     0.193 A 
HETATM    3  N3  UNL     1      44.151  -1.122  30.350  1.00  0.00    -0.340 N 
ATOM      4  H3  UNL     1      44.929  -0.464  30.296  1.00  0.00     0.167 HD
HETATM    5  C11 UNL     1      43.865  -1.850  29.277  1.00  0.00     0.108 A 
HETATM    6  C12 UNL     1      42.840  -2.747  29.276  1.00  0.00     0.053 A 
HETATM    7  C13 UNL     1      42.341  -3.610  28.320  1.00  0.00     0.130 A 
HETATM    8  N5  UNL     1      41.316  -4.238  28.924  1.00  0.00    -0.284 N 
ATOM      9  H5  UNL     1      40.730  -4.947  28.484  1.00  0.00     0.188 HD
HETATM   10  N6  UNL     1      41.172  -3.806  30.174  1.00  0.00    -0.298 N 
ATOM     11  H6  UNL     1      40.464  -4.131  30.833  1.00  0.00     0.187 HD
HETATM   12  C18 UNL     1      42.110  -2.870  30.434  1.00  0.00     0.074 A 
ENDROOT
BRANCH   2  13
HETATM   13  N1  UNL     1      43.833  -0.522  32.462  1.00  0.00    -0.333 NA
HETATM   14  C6  UNL     1      44.626  -0.003  33.375  1.00  0.00     0.396 C 
HETATM   15  O1  UNL     1      45.686   0.641  33.043  1.00  0.00    -0.230 OA
HETATM   16  N2  UNL     1      44.437  -0.071  34.793  1.00  0.00    -0.323 N 
ATOM     17  H2  UNL     1      43.615  -0.573  35.131  1.00  0.00     0.166 HD
BRANCH  16  18
HETATM   18  C7  UNL     1      45.303   0.504  35.774  1.00  0.00     0.024 C 
HETATM   19  C8  UNL     1      45.393   2.007  35.744  1.00  0.00     0.037 C 
HETATM   20  C9  UNL     1      46.683  -0.096  35.649  1.00  0.00     0.037 C 
HETATM   21  C10 UNL     1      44.801   0.118  37.178  1.00  0.00     0.037 C 
ENDBRANCH  16  18
ENDBRANCH   2  13
BRANCH   1  22
HETATM   22  C3  UNL     1      41.504  -2.303  32.728  1.00  0.00     0.072 C 
BRANCH  22  23
HETATM   23  C2  UNL     1      40.333  -1.400  32.721  1.00  0.00    -0.032 C 
HETATM   24  C1  UNL     1      40.335  -0.300  33.433  1.00  0.00     0.007 C 
ENDBRANCH  22  23
ENDBRANCH   1  22
BRANCH   7  25
HETATM   25  N4  UNL     1      42.789  -3.756  27.114  1.00  0.00    -0.374 N 
ATOM     26  H4  UNL     1      42.143  -3.837  26.328  1.00  0.00     0.161 HD
BRANCH  25  27
HETATM   27  C14 UNL     1      44.211  -3.803  26.897  1.00  0.00     0.125 C 
BRANCH  27  28
HETATM   28  C15 UNL     1      44.617  -3.103  25.616  1.00  0.00    -0.005 C 
HETATM   29  C16 UNL     1      43.892  -3.710  24.445  1.00  0.00     0.011 C 
HETATM   30  C17 UNL     1      44.306  -1.635  25.782  1.00  0.00     0.011 C 
ENDBRANCH  27  28
ENDBRANCH  25  27
ENDBRANCH   7  25
TORSDOF 7
ENDMDL
MODEL 4
REMARK VINA RESULT: -6.816926075      3.128      3.905
REMARK  7 active torsions:
REMARK  status: ('A' for Active; 'I' for Inactive)
REMARK    1  A    between atoms: C2_2  and  C3_3 
REMARK    2  A    between atoms: C3_3  and  C4_4 
REMARK    3  A    between atoms: C5_5  and  N1_6 
REMARK       I    between atoms: N1_6  and  C6_7 
REMARK       I    between atoms: C6_7  and  N2_9 
REMARK    4  A    between atoms: N2_9  and  C7_11 
REMARK    5  A    between atoms: C13_19  and  N4_20 
REMARK    6  A    between atoms: N4_20  and  C14_22 
REMARK    7  A    between atoms: C14_22  and  C15_23 
ROOT
HETATM    1  C4  UNL     1      40.399  -2.216  30.488  1.00  0.00     0.033 A 
HETATM    2  C5  UNL     1      40.941  -1.054  30.991  1.00  0.00     0.193 A 
HETATM    3  N3  UNL     1      42.248  -0.769  30.603  1.00  0.00    -0.340 N 
ATOM      4  H3  UNL     1      42.683   0.085  30.955  1.00  0.00     0.167 HD
HETATM    5  C11 UNL     1      42.958  -1.553  29.799  1.00  0.00     0.108 A 
HETATM    6  C12 UNL     1      42.442  -2.707  29.292  1.00  0.00     0.053 A 
HETATM    7  C13 UNL     1      42.951  -3.681  28.455  1.00  0.00     0.130 A 
HETATM    8  N5  UNL     1      41.955  -4.575  28.321  1.00  0.00    -0.284 N 
ATOM      9  H5  UNL     1      42.009  -5.425  27.759  1.00  0.00     0.188 HD
HETATM   10  N6  UNL     1      40.888  -4.198  29.021  1.00  0.00    -0.298 N 
ATOM     11  H6  UNL     1      40.008  -4.710  29.078  1.00  0.00     0.187 HD
HETATM   12  C18 UNL     1      41.155  -3.030  29.646  1.00  0.00     0.074 A 
ENDROOT
BRANCH   2  13
HETATM   13  N1  UNL     1      40.422  -0.278  31.763  1.00  0.00    -0.333 NA
HETATM   14  C6  UNL     1      39.800   0.189  32.824  1.00  0.00     0.396 C 
HETATM   15  O1  UNL     1      40.318   0.086  33.995  1.00  0.00    -0.230 OA
HETATM   16  N2  UNL     1      38.527   0.845  32.834  1.00  0.00    -0.323 N 
ATOM     17  H2  UNL     1      38.053   0.959  31.938  1.00  0.00     0.166 HD
BRANCH  16  18
HETATM   18  C7  UNL     1      37.865   1.355  33.995  1.00  0.00     0.024 C 
HETATM   19  C8  UNL     1      38.719   2.211  34.893  1.00  0.00     0.037 C 
HETATM   20  C9  UNL     1      37.273   0.212  34.785  1.00  0.00     0.037 C 
HETATM   21  C10 UNL     1      36.673   2.224  33.554  1.00  0.00     0.037 C 
ENDBRANCH  16  18
ENDBRANCH   2  13
BRANCH   1  22
HETATM   22  C3  UNL     1      39.011  -2.653  30.747  1.00  0.00     0.072 C 
BRANCH  22  23
HETATM   23  C2  UNL     1      38.033  -2.102  29.784  1.00  0.00    -0.032 C 
HETATM   24  C1  UNL     1      37.400  -2.892  28.951  1.00  0.00     0.007 C 
ENDBRANCH  22  23
ENDBRANCH   1  22
BRANCH   7  25
HETATM   25  N4  UNL     1      44.136  -3.697  27.932  1.00  0.00    -0.374 N 
ATOM     26  H4  UNL     1      44.959  -3.531  28.511  1.00  0.00     0.161 HD
BRANCH  25  27
HETATM   27  C14 UNL     1      44.273  -3.952  26.522  1.00  0.00     0.125 C 
BRANCH  27  28
HETATM   28  C15 UNL     1      44.031  -2.708  25.691  1.00  0.00    -0.005 C 
HETATM   29  C16 UNL     1      44.964  -1.610  26.123  1.00  0.00     0.011 C 
HETATM   30  C17 UNL     1      44.225  -3.086  24.241  1.00  0.00     0.011 C 
ENDBRANCH  27  28
ENDBRANCH  25  27
ENDBRANCH   7  25
TORSDOF 7
ENDMDL
MODEL 5
REMARK VINA RESULT: -6.810665897      1.632      1.739
REMARK  7 active torsions:
REMARK  status: ('A' for Active; 'I' for Inactive)
REMARK    1  A    between atoms: C2_2  and  C3_3 
REMARK    2  A    between atoms: C3_3  and  C4_4 
REMARK    3  A    between atoms: C5_5  and  N1_6 
REMARK       I    between atoms: N1_6  and  C6_7 
REMARK       I    between atoms: C6_7  and  N2_9 
REMARK    4  A    between atoms: N2_9  and  C7_11 
REMARK    5  A    between atoms: C13_19  and  N4_20 
REMARK    6  A    between atoms: N4_20  and  C14_22 
REMARK    7  A    between atoms: C14_22  and  C15_23 
ROOT
HETATM    1  C4  UNL     1      42.712  -2.615  32.014  1.00  0.00     0.033 A 
HETATM    2  C5  UNL     1      42.993  -1.281  31.818  1.00  0.00     0.193 A 
HETATM    3  N3  UNL     1      43.147  -0.875  30.494  1.00  0.00    -0.340 N 
ATOM      4  H3  UNL     1      43.354   0.107  30.310  1.00  0.00     0.167 HD
HETATM    5  C11 UNL     1      43.037  -1.702  29.460  1.00  0.00     0.108 A 
HETATM    6  C12 UNL     1      42.762  -3.025  29.632  1.00  0.00     0.053 A 
HETATM    7  C13 UNL     1      42.600  -4.078  28.753  1.00  0.00     0.130 A 
HETATM    8  N5  UNL     1      42.342  -5.143  29.533  1.00  0.00    -0.284 N 
ATOM      9  H5  UNL     1      42.172  -6.087  29.187  1.00  0.00     0.188 HD
HETATM   10  N6  UNL     1      42.340  -4.794  30.816  1.00  0.00    -0.298 N 
ATOM     11  H6  UNL     1      42.169  -5.426  31.599  1.00  0.00     0.187 HD
HETATM   12  C18 UNL     1      42.600  -3.473  30.921  1.00  0.00     0.074 A 
ENDROOT
BRANCH   2  13
HETATM   13  N1  UNL     1      43.160  -0.435  32.668  1.00  0.00    -0.333 NA
HETATM   14  C6  UNL     1      43.760   0.357  33.531  1.00  0.00     0.396 C 
HETATM   15  O1  UNL     1      44.615   1.234  33.143  1.00  0.00    -0.230 OA
HETATM   16  N2  UNL     1      43.562   0.362  34.950  1.00  0.00    -0.323 N 
ATOM     17  H2  UNL     1      42.899  -0.312  35.332  1.00  0.00     0.166 HD
BRANCH  16  18
HETATM   18  C7  UNL     1      44.216   1.234  35.875  1.00  0.00     0.024 C 
HETATM   19  C8  UNL     1      43.930   2.700  35.683  1.00  0.00     0.037 C 
HETATM   20  C9  UNL     1      45.706   0.992  35.837  1.00  0.00     0.037 C 
HETATM   21  C10 UNL     1      43.769   0.878  37.306  1.00  0.00     0.037 C 
ENDBRANCH  16  18
ENDBRANCH   2  13
BRANCH   1  22
HETATM   22  C3  UNL     1      42.463  -3.214  33.343  1.00  0.00     0.072 C 
BRANCH  22  23
HETATM   23  C2  UNL     1      41.058  -3.092  33.788  1.00  0.00    -0.032 C 
HETATM   24  C1  UNL     1      40.727  -2.230  34.718  1.00  0.00     0.007 C 
ENDBRANCH  22  23
ENDBRANCH   1  22
BRANCH   7  25
HETATM   25  N4  UNL     1      42.685  -4.015  27.461  1.00  0.00    -0.374 N 
ATOM     26  H4  UNL     1      41.849  -4.101  26.883  1.00  0.00     0.161 HD
BRANCH  25  27
HETATM   27  C14 UNL     1      43.976  -3.822  26.854  1.00  0.00     0.125 C 
BRANCH  27  28
HETATM   28  C15 UNL     1      43.979  -2.665  25.876  1.00  0.00    -0.005 C 
HETATM   29  C16 UNL     1      45.034  -1.664  26.263  1.00  0.00     0.011 C 
HETATM   30  C17 UNL     1      44.211  -3.236  24.497  1.00  0.00     0.011 C 
ENDBRANCH  27  28
ENDBRANCH  25  27
ENDBRANCH   7  25
TORSDOF 7
ENDMDL
