MODEL 1
REMARK VINA RESULT: -6.892343429      0.000      0.000
REMARK  5 active torsions:
REMARK  status: ('A' for Active; 'I' for Inactive)
REMARK    1  A    between atoms: C5_10  and  C6_11 
REMARK    2  A    between atoms: C6_11  and  N3_12 
REMARK       I    between atoms: N3_12  and  C7_14 
REMARK    3  A    between atoms: C7_14  and  C8_16 
REMARK    4  A    between atoms: C8_16  and  C9_17 
REMARK    5  A    between atoms: N4_20  and  C12_21 
ROOT
HETATM    1  C6  UNL     1      42.461  -2.689  32.248  1.00  0.00     0.068 C 
ENDROOT
BRANCH   1   2
HETATM    2  C5  UNL     1      42.616  -3.116  30.847  1.00  0.00     0.024 C 
HETATM    3  C4  UNL     1      42.508  -2.119  29.762  1.00  0.00     0.014 C 
HETATM    4  C3  UNL     1      42.313  -2.933  28.452  1.00  0.00     0.054 C 
HETATM    5  C2  UNL     1      43.569  -3.710  28.240  1.00  0.00     0.108 C 
HETATM    6  N2  UNL     1      43.562  -4.349  26.940  1.00  0.00    -0.336 N 
HETATM    7  C18 UNL     1      43.899  -4.637  29.387  1.00  0.00     0.054 C 
HETATM    8  N5  UNL     1      44.666  -2.924  27.737  1.00  0.00    -0.336 N 
HETATM    9  C1  UNL     1      44.219  -3.200  26.423  1.00  0.00     0.172 C 
ATOM     10  H2  UNL     1      43.229  -5.237  26.561  1.00  0.00     0.165 HD
HETATM   11  N1  UNL     1      44.327  -2.674  25.235  1.00  0.00    -0.371 N 
ATOM     12  H12 UNL     1      44.005  -2.873  24.288  1.00  0.00     0.159 HD
ATOM     13  H11 UNL     1      44.799  -1.849  24.865  1.00  0.00     0.159 HD
HETATM   14  C17 UNL     1      43.941  -3.857  30.658  1.00  0.00     0.014 C 
ATOM     15  H5  UNL     1      45.434  -2.395  28.150  1.00  0.00     0.165 HD
ENDBRANCH   1   2
BRANCH   1  16
HETATM   16  N3  UNL     1      43.474  -1.961  32.902  1.00  0.00    -0.340 N 
HETATM   17  C7  UNL     1      43.820  -0.621  32.856  1.00  0.00     0.221 C 
HETATM   18  O1  UNL     1      43.236   0.236  32.183  1.00  0.00    -0.273 OA
ATOM     19  H3  UNL     1      44.059  -2.522  33.521  1.00  0.00     0.167 HD
BRANCH  17  20
HETATM   20  C8  UNL     1      44.988  -0.122  33.671  1.00  0.00     0.108 C 
BRANCH  20  21
HETATM   21  C9  UNL     1      44.557   0.388  35.022  1.00  0.00     0.000 C 
HETATM   22  C10 UNL     1      45.441  -0.036  36.139  1.00  0.00     0.049 C 
HETATM   23  C11 UNL     1      46.145   1.070  36.866  1.00  0.00     0.059 C 
HETATM   24  N4  UNL     1      45.419   2.252  37.097  1.00  0.00    -0.389 N 
HETATM   25  C15 UNL     1      44.282   2.510  36.283  1.00  0.00     0.122 C 
HETATM   26  C16 UNL     1      44.438   1.890  34.910  1.00  0.00     0.025 C 
BRANCH  24  27
HETATM   27  C12 UNL     1      45.318   2.751  38.419  1.00  0.00     0.083 A 
HETATM   28  C13 UNL     1      45.762   1.976  39.601  1.00  0.00     0.027 A 
HETATM   29  C14 UNL     1      44.290   2.367  39.407  1.00  0.00     0.027 A 
ENDBRANCH  24  27
ENDBRANCH  20  21
ENDBRANCH  17  20
ENDBRANCH   1  16
TORSDOF 5
ENDMDL
MODEL 2
REMARK VINA RESULT: -6.841979369      0.851      1.029
REMARK  5 active torsions:
REMARK  status: ('A' for Active; 'I' for Inactive)
REMARK    1  A    between atoms: C5_10  and  C6_11 
REMARK    2  A    between atoms: C6_11  and  N3_12 
REMARK       I    between atoms: N3_12  and  C7_14 
REMARK    3  A    between atoms: C7_14  and  C8_16 
REMARK    4  A    between atoms: C8_16  and  C9_17 
REMARK    5  A    between atoms: N4_20  and  C12_21 
ROOT
HETATM    1  C6  UNL     1      42.222  -2.799  32.164  1.00  0.00     0.068 C 
ENDROOT
BRANCH   1   2
HETATM    2  C5  UNL     1      42.489  -3.224  30.779  1.00  0.00     0.024 C 
HETATM    3  C4  UNL     1      42.284  -2.271  29.669  1.00  0.00     0.014 C 
HETATM    4  C3  UNL     1      42.256  -3.127  28.372  1.00  0.00     0.054 C 
HETATM    5  C2  UNL     1      43.616  -3.723  28.223  1.00  0.00     0.108 C 
HETATM    6  N2  UNL     1      43.748  -4.380  26.938  1.00  0.00    -0.336 N 
HETATM    7  C18 UNL     1      44.028  -4.573  29.401  1.00  0.00     0.054 C 
HETATM    8  N5  UNL     1      44.610  -2.799  27.741  1.00  0.00    -0.336 N 
HETATM    9  C1  UNL     1      44.257  -3.159  26.418  1.00  0.00     0.172 C 
ATOM     10  H2  UNL     1      43.558  -5.312  26.568  1.00  0.00     0.165 HD
HETATM   11  N1  UNL     1      44.336  -2.643  25.224  1.00  0.00    -0.371 N 
ATOM     12  H12 UNL     1      44.081  -2.902  24.270  1.00  0.00     0.159 HD
ATOM     13  H11 UNL     1      44.701  -1.766  24.852  1.00  0.00     0.159 HD
HETATM   14  C17 UNL     1      43.912  -3.774  30.654  1.00  0.00     0.014 C 
ATOM     15  H5  UNL     1      45.280  -2.160  28.169  1.00  0.00     0.165 HD
ENDBRANCH   1   2
BRANCH   1  16
HETATM   16  N3  UNL     1      43.182  -2.076  32.900  1.00  0.00    -0.340 N 
HETATM   17  C7  UNL     1      43.629  -0.770  32.795  1.00  0.00     0.221 C 
HETATM   18  O1  UNL     1      43.215   0.054  31.971  1.00  0.00    -0.273 OA
ATOM     19  H3  UNL     1      43.627  -2.611  33.645  1.00  0.00     0.167 HD
BRANCH  17  20
HETATM   20  C8  UNL     1      44.701  -0.269  33.732  1.00  0.00     0.108 C 
BRANCH  20  21
HETATM   21  C9  UNL     1      44.124   0.506  34.887  1.00  0.00     0.000 C 
HETATM   22  C10 UNL     1      44.894   0.371  36.152  1.00  0.00     0.049 C 
HETATM   23  C11 UNL     1      45.499   1.636  36.681  1.00  0.00     0.059 C 
HETATM   24  N4  UNL     1      44.733   2.810  36.573  1.00  0.00    -0.389 N 
HETATM   25  C15 UNL     1      43.683   2.838  35.616  1.00  0.00     0.122 C 
HETATM   26  C16 UNL     1      43.991   1.941  34.436  1.00  0.00     0.025 C 
BRANCH  24  27
HETATM   27  C12 UNL     1      44.487   3.580  37.736  1.00  0.00     0.083 A 
HETATM   28  C13 UNL     1      43.210   3.513  38.483  1.00  0.00     0.027 A 
HETATM   29  C14 UNL     1      43.668   4.808  37.797  1.00  0.00     0.027 A 
ENDBRANCH  24  27
ENDBRANCH  20  21
ENDBRANCH  17  20
ENDBRANCH   1  16
TORSDOF 5
ENDMDL
MODEL 3
REMARK VINA RESULT: -6.791011870      1.949      2.464
REMARK  5 active torsions:
REMARK  status: ('A' for Active; 'I' for Inactive)
REMARK    1  A    between atoms: C5_10  and  C6_11 
REMARK    2  A    between atoms: C6_11  and  N3_12 
REMARK       I    between atoms: N3_12  and  C7_14 
REMARK    3  A    between atoms: C7_14  and  C8_16 
REMARK    4  A    between atoms: C8_16  and  C9_17 
REMARK    5  A    between atoms: N4_20  and  C12_21 
ROOT
HETATM    1  C6  UNL     1      42.436  -0.662  31.974  1.00  0.00     0.068 C 
ENDROOT
BRANCH   1   2
HETATM    2  C5  UNL     1      42.528  -1.754  30.990  1.00  0.00     0.024 C 
HETATM    3  C4  UNL     1      42.327  -1.465  29.555  1.00  0.00     0.014 C 
HETATM    4  C3  UNL     1      42.087  -2.840  28.872  1.00  0.00     0.054 C 
HETATM    5  C2  UNL     1      43.354  -3.615  29.012  1.00  0.00     0.108 C 
HETATM    6  N2  UNL     1      43.296  -4.836  28.235  1.00  0.00    -0.336 N 
HETATM    7  C18 UNL     1      43.778  -3.812  30.449  1.00  0.00     0.054 C 
HETATM    8  N5  UNL     1      44.394  -3.204  28.105  1.00  0.00    -0.336 N 
HETATM    9  C1  UNL     1      43.885  -4.122  27.156  1.00  0.00     0.172 C 
ATOM     10  H2  UNL     1      42.973  -5.791  28.393  1.00  0.00     0.165 HD
HETATM   11  N1  UNL     1      43.910  -4.289  25.863  1.00  0.00    -0.371 N 
ATOM     12  H12 UNL     1      43.542  -4.950  25.179  1.00  0.00     0.159 HD
ATOM     13  H11 UNL     1      44.332  -3.776  25.090  1.00  0.00     0.159 HD
HETATM   14  C17 UNL     1      43.865  -2.486  31.127  1.00  0.00     0.014 C 
ATOM     15  H5  UNL     1      45.166  -2.538  28.134  1.00  0.00     0.165 HD
ENDBRANCH   1   2
BRANCH   1  16
HETATM   16  N3  UNL     1      43.588  -0.160  32.611  1.00  0.00    -0.340 N 
HETATM   17  C7  UNL     1      43.746   0.610  33.752  1.00  0.00     0.221 C 
HETATM   18  O1  UNL     1      42.821   1.010  34.467  1.00  0.00    -0.273 OA
ATOM     19  H3  UNL     1      44.463  -0.409  32.151  1.00  0.00     0.167 HD
BRANCH  17  20
HETATM   20  C8  UNL     1      45.131   1.017  34.193  1.00  0.00     0.108 C 
BRANCH  20  21
HETATM   21  C9  UNL     1      45.555   0.306  35.450  1.00  0.00     0.000 C 
HETATM   22  C10 UNL     1      46.754  -0.557  35.283  1.00  0.00     0.049 C 
HETATM   23  C11 UNL     1      47.955  -0.163  36.088  1.00  0.00     0.059 C 
HETATM   24  N4  UNL     1      47.729   0.294  37.399  1.00  0.00    -0.389 N 
HETATM   25  C15 UNL     1      46.431   0.772  37.727  1.00  0.00     0.122 C 
HETATM   26  C16 UNL     1      45.741   1.361  36.515  1.00  0.00     0.025 C 
BRANCH  24  27
HETATM   27  C12 UNL     1      48.413  -0.328  38.472  1.00  0.00     0.083 A 
HETATM   28  C13 UNL     1      49.790  -0.858  38.342  1.00  0.00     0.027 A 
HETATM   29  C14 UNL     1      48.602  -1.783  38.644  1.00  0.00     0.027 A 
ENDBRANCH  24  27
ENDBRANCH  20  21
ENDBRANCH  17  20
ENDBRANCH   1  16
TORSDOF 5
ENDMDL
MODEL 4
REMARK VINA RESULT: -6.738415120      2.497      3.677
REMARK  5 active torsions:
REMARK  status: ('A' for Active; 'I' for Inactive)
REMARK    1  A    between atoms: C5_10  and  C6_11 
REMARK    2  A    between atoms: C6_11  and  N3_12 
REMARK       I    between atoms: N3_12  and  C7_14 
REMARK    3  A    between atoms: C7_14  and  C8_16 
REMARK    4  A    between atoms: C8_16  and  C9_17 
REMARK    5  A    between atoms: N4_20  and  C12_21 
ROOT
HETATM    1  C6  UNL     1      42.697  -1.002  33.824  1.00  0.00     0.068 C 
ENDROOT
BRANCH   1   2
HETATM    2  C5  UNL     1      42.948  -1.428  32.437  1.00  0.00     0.024 C 
HETATM    3  C4  UNL     1      43.207  -2.853  32.144  1.00  0.00     0.014 C 
HETATM    4  C3  UNL     1      43.816  -2.892  30.715  1.00  0.00     0.054 C 
HETATM    5  C2  UNL     1      42.752  -2.417  29.783  1.00  0.00     0.108 C 
HETATM    6  N2  UNL     1      43.159  -2.604  28.405  1.00  0.00    -0.336 N 
HETATM    7  C18 UNL     1      42.256  -1.026  30.102  1.00  0.00     0.054 C 
HETATM    8  N5  UNL     1      41.733  -3.397  29.511  1.00  0.00    -0.336 N 
HETATM    9  C1  UNL     1      42.523  -3.874  28.439  1.00  0.00     0.172 C 
ATOM     10  H2  UNL     1      43.676  -2.060  27.713  1.00  0.00     0.165 HD
HETATM   11  N1  UNL     1      42.655  -4.974  27.751  1.00  0.00    -0.371 N 
ATOM     12  H12 UNL     1      43.224  -5.318  26.978  1.00  0.00     0.159 HD
ATOM     13  H11 UNL     1      42.199  -5.886  27.776  1.00  0.00     0.159 HD
HETATM   14  C17 UNL     1      41.807  -0.974  31.523  1.00  0.00     0.014 C 
ATOM     15  H5  UNL     1      40.830  -3.642  29.918  1.00  0.00     0.165 HD
ENDBRANCH   1   2
BRANCH   1  16
HETATM   16  N3  UNL     1      43.676  -0.303  34.557  1.00  0.00    -0.340 N 
HETATM   17  C7  UNL     1      44.374   0.863  34.282  1.00  0.00     0.221 C 
HETATM   18  O1  UNL     1      44.230   1.547  33.264  1.00  0.00    -0.273 OA
ATOM     19  H3  UNL     1      43.914  -0.731  35.451  1.00  0.00     0.167 HD
BRANCH  17  20
HETATM   20  C8  UNL     1      45.394   1.373  35.270  1.00  0.00     0.108 C 
BRANCH  20  21
HETATM   21  C9  UNL     1      46.101   0.250  35.983  1.00  0.00     0.000 C 
HETATM   22  C10 UNL     1      47.191  -0.379  35.192  1.00  0.00     0.049 C 
HETATM   23  C11 UNL     1      48.568  -0.253  35.768  1.00  0.00     0.059 C 
HETATM   24  N4  UNL     1      48.696  -0.379  37.163  1.00  0.00    -0.389 N 
HETATM   25  C15 UNL     1      47.539  -0.173  37.963  1.00  0.00     0.122 C 
HETATM   26  C16 UNL     1      46.583   0.799  37.305  1.00  0.00     0.025 C 
BRANCH  24  27
HETATM   27  C12 UNL     1      49.610  -1.326  37.687  1.00  0.00     0.083 A 
HETATM   28  C13 UNL     1      50.718  -1.896  36.886  1.00  0.00     0.027 A 
HETATM   29  C14 UNL     1      49.585  -2.780  37.429  1.00  0.00     0.027 A 
ENDBRANCH  24  27
ENDBRANCH  20  21
ENDBRANCH  17  20
ENDBRANCH   1  16
TORSDOF 5
ENDMDL
MODEL 5
REMARK VINA RESULT: -6.737728756      2.008      2.465
REMARK  5 active torsions:
REMARK  status: ('A' for Active; 'I' for Inactive)
REMARK    1  A    between atoms: C5_10  and  C6_11 
REMARK    2  A    between atoms: C6_11  and  N3_12 
REMARK       I    between atoms: N3_12  and  C7_14 
REMARK    3  A    between atoms: C7_14  and  C8_16 
REMARK    4  A    between atoms: C8_16  and  C9_17 
REMARK    5  A    between atoms: N4_20  and  C12_21 
ROOT
HETATM    1  C6  UNL     1      41.359  -3.188  31.769  1.00  0.00     0.068 C 
ENDROOT
BRANCH   1   2
HETATM    2  C5  UNL     1      42.060  -3.452  30.501  1.00  0.00     0.024 C 
HETATM    3  C4  UNL     1      41.683  -2.699  29.287  1.00  0.00     0.014 C 
HETATM    4  C3  UNL     1      42.299  -3.481  28.092  1.00  0.00     0.054 C 
HETATM    5  C2  UNL     1      43.781  -3.398  28.244  1.00  0.00     0.108 C 
HETATM    6  N2  UNL     1      44.446  -3.929  27.072  1.00  0.00    -0.336 N 
HETATM    7  C18 UNL     1      44.280  -3.965  29.552  1.00  0.00     0.054 C 
HETATM    8  N5  UNL     1      44.338  -2.126  27.862  1.00  0.00    -0.336 N 
HETATM    9  C1  UNL     1      44.455  -2.612  26.538  1.00  0.00     0.172 C 
ATOM     10  H2  UNL     1      44.767  -4.847  26.764  1.00  0.00     0.165 HD
HETATM   11  N1  UNL     1      44.536  -2.121  25.333  1.00  0.00    -0.371 N 
ATOM     12  H12 UNL     1      44.621  -2.471  24.378  1.00  0.00     0.159 HD
ATOM     13  H11 UNL     1      44.543  -1.176  24.950  1.00  0.00     0.159 HD
HETATM   14  C17 UNL     1      43.571  -3.299  30.684  1.00  0.00     0.014 C 
ATOM     15  H5  UNL     1      44.554  -1.252  28.340  1.00  0.00     0.165 HD
ENDBRANCH   1   2
BRANCH   1  16
HETATM   16  N3  UNL     1      41.841  -2.225  32.679  1.00  0.00    -0.340 N 
HETATM   17  C7  UNL     1      41.826  -0.841  32.645  1.00  0.00     0.221 C 
HETATM   18  O1  UNL     1      41.335  -0.162  31.738  1.00  0.00    -0.273 OA
ATOM     19  H3  UNL     1      42.278  -2.619  33.511  1.00  0.00     0.167 HD
BRANCH  17  20
HETATM   20  C8  UNL     1      42.445  -0.060  33.779  1.00  0.00     0.108 C 
BRANCH  20  21
HETATM   21  C9  UNL     1      43.721  -0.691  34.269  1.00  0.00     0.000 C 
HETATM   22  C10 UNL     1      44.895  -0.444  33.390  1.00  0.00     0.049 C 
HETATM   23  C11 UNL     1      46.016   0.336  34.009  1.00  0.00     0.059 C 
HETATM   24  N4  UNL     1      46.326   0.062  35.353  1.00  0.00    -0.389 N 
HETATM   25  C15 UNL     1      45.333  -0.566  36.154  1.00  0.00     0.122 C 
HETATM   26  C16 UNL     1      43.940  -0.206  35.683  1.00  0.00     0.025 C 
BRANCH  24  27
HETATM   27  C12 UNL     1      47.657  -0.277  35.697  1.00  0.00     0.083 A 
HETATM   28  C13 UNL     1      48.004  -1.528  36.411  1.00  0.00     0.027 A 
HETATM   29  C14 UNL     1      48.257  -0.150  37.041  1.00  0.00     0.027 A 
ENDBRANCH  24  27
ENDBRANCH  20  21
ENDBRANCH  17  20
ENDBRANCH   1  16
TORSDOF 5
ENDMDL
