MODEL 1
REMARK VINA RESULT: -7.227433596      0.000      0.000
REMARK  7 active torsions:
REMARK  status: ('A' for Active; 'I' for Inactive)
REMARK    1  A    between atoms: C2_2  and  C5_5 
REMARK    2  A    between atoms: C5_5  and  N1_6 
REMARK       I    between atoms: N1_6  and  C6_8 
REMARK       I    between atoms: C6_8  and  N2_10 
REMARK    3  A    between atoms: N2_10  and  N3_12 
REMARK       I    between atoms: N3_12  and  C7_14 
REMARK    4  A    between atoms: C7_14  and  C8_16 
REMARK    5  A    between atoms: C8_16  and  N4_17 
REMARK       I    between atoms: N4_17  and  C9_19 
REMARK    6  A    between atoms: C9_19  and  C10_21 
REMARK    7  A    between atoms: C10_21  and  C11_22 
ROOT
HETATM    1  N3  UNL     1      44.835   0.294  34.641  1.00  0.00    -0.265 N 
ATOM      2  H3  UNL     1      44.012   0.300  35.243  1.00  0.00     0.190 HD
HETATM    3  C7  UNL     1      44.725  -0.145  33.304  1.00  0.00     0.253 C 
HETATM    4  O2  UNL     1      45.786  -0.150  32.594  1.00  0.00    -0.270 OA
ENDROOT
BRANCH   3   5
HETATM    5  C8  UNL     1      43.453  -0.590  32.729  1.00  0.00     0.227 C 
BRANCH   5   6
HETATM    6  N4  UNL     1      43.611  -1.201  31.444  1.00  0.00    -0.352 N 
HETATM    7  C9  UNL     1      42.647  -1.036  30.407  1.00  0.00     0.218 C 
HETATM    8  O3  UNL     1      41.643  -0.321  30.651  1.00  0.00    -0.274 OA
ATOM      9  H4  UNL     1      44.437  -1.771  31.266  1.00  0.00     0.162 HD
BRANCH   7  10
HETATM   10  C10 UNL     1      42.906  -1.722  29.124  1.00  0.00     0.107 C 
BRANCH  10  11
HETATM   11  C11 UNL     1      44.311  -2.200  28.914  1.00  0.00    -0.006 C 
HETATM   12  C12 UNL     1      44.926  -1.454  27.745  1.00  0.00     0.005 C 
HETATM   13  C13 UNL     1      44.439  -1.896  26.414  1.00  0.00     0.000 C 
HETATM   14  C14 UNL     1      43.930  -3.278  26.284  1.00  0.00     0.000 C 
HETATM   15  C15 UNL     1      43.408  -3.946  27.496  1.00  0.00     0.000 C 
HETATM   16  C16 UNL     1      44.305  -3.682  28.650  1.00  0.00     0.005 C 
ENDBRANCH  10  11
ENDBRANCH   7  10
ENDBRANCH   5   6
ENDBRANCH   3   5
BRANCH   1  17
HETATM   17  N2  UNL     1      46.083   0.723  35.148  1.00  0.00    -0.249 N 
HETATM   18  C6  UNL     1      46.759  -0.132  36.092  1.00  0.00     0.338 C 
HETATM   19  N1  UNL     1      47.996   0.264  36.615  1.00  0.00    -0.321 N 
HETATM   20  O1  UNL     1      46.150  -1.202  36.369  1.00  0.00    -0.245 OA
ATOM     21  H1  UNL     1      48.353   1.164  36.294  1.00  0.00     0.169 HD
ATOM     22  H2  UNL     1      46.492   1.611  34.856  1.00  0.00     0.192 HD
BRANCH  19  23
HETATM   23  C5  UNL     1      48.800  -0.428  37.526  1.00  0.00     0.074 C 
BRANCH  23  24
HETATM   24  C2  UNL     1      49.840  -1.370  37.071  1.00  0.00    -0.019 C 
HETATM   25  C1  UNL     1      50.992  -1.458  38.069  1.00  0.00     0.020 C 
HETATM   26  C3  UNL     1      50.362  -1.269  35.691  1.00  0.00     0.020 C 
HETATM   27  C4  UNL     1      49.169  -2.783  37.170  1.00  0.00     0.020 C 
ENDBRANCH  23  24
ENDBRANCH  19  23
ENDBRANCH   1  17
TORSDOF 7
ENDMDL
MODEL 2
REMARK VINA RESULT: -6.858395567      1.088      1.785
REMARK  7 active torsions:
REMARK  status: ('A' for Active; 'I' for Inactive)
REMARK    1  A    between atoms: C2_2  and  C5_5 
REMARK    2  A    between atoms: C5_5  and  N1_6 
REMARK       I    between atoms: N1_6  and  C6_8 
REMARK       I    between atoms: C6_8  and  N2_10 
REMARK    3  A    between atoms: N2_10  and  N3_12 
REMARK       I    between atoms: N3_12  and  C7_14 
REMARK    4  A    between atoms: C7_14  and  C8_16 
REMARK    5  A    between atoms: C8_16  and  N4_17 
REMARK       I    between atoms: N4_17  and  C9_19 
REMARK    6  A    between atoms: C9_19  and  C10_21 
REMARK    7  A    between atoms: C10_21  and  C11_22 
ROOT
HETATM    1  N3  UNL     1      44.993   0.147  34.747  1.00  0.00    -0.265 N 
ATOM      2  H3  UNL     1      44.186   0.031  35.360  1.00  0.00     0.190 HD
HETATM    3  C7  UNL     1      44.886  -0.163  33.374  1.00  0.00     0.253 C 
HETATM    4  O2  UNL     1      45.927  -0.017  32.651  1.00  0.00    -0.270 OA
ENDROOT
BRANCH   3   5
HETATM    5  C8  UNL     1      43.637  -0.644  32.777  1.00  0.00     0.227 C 
BRANCH   5   6
HETATM    6  N4  UNL     1      43.834  -1.244  31.493  1.00  0.00    -0.352 N 
HETATM    7  C9  UNL     1      43.721  -2.651  31.292  1.00  0.00     0.218 C 
HETATM    8  O3  UNL     1      43.432  -3.362  32.287  1.00  0.00    -0.274 OA
ATOM      9  H4  UNL     1      44.060  -0.648  30.697  1.00  0.00     0.162 HD
BRANCH   7  10
HETATM   10  C10 UNL     1      43.955  -3.163  29.926  1.00  0.00     0.107 C 
BRANCH  10  11
HETATM   11  C11 UNL     1      42.920  -2.794  28.907  1.00  0.00    -0.006 C 
HETATM   12  C12 UNL     1      42.839  -3.885  27.856  1.00  0.00     0.005 C 
HETATM   13  C13 UNL     1      43.969  -3.894  26.895  1.00  0.00     0.000 C 
HETATM   14  C14 UNL     1      44.686  -2.624  26.654  1.00  0.00     0.000 C 
HETATM   15  C15 UNL     1      44.655  -1.593  27.714  1.00  0.00     0.000 C 
HETATM   16  C16 UNL     1      43.284  -1.478  28.273  1.00  0.00     0.005 C 
ENDBRANCH  10  11
ENDBRANCH   7  10
ENDBRANCH   5   6
ENDBRANCH   3   5
BRANCH   1  17
HETATM   17  N2  UNL     1      46.218   0.619  35.275  1.00  0.00    -0.249 N 
HETATM   18  C6  UNL     1      46.909  -0.217  36.227  1.00  0.00     0.338 C 
HETATM   19  N1  UNL     1      48.122   0.221  36.771  1.00  0.00    -0.321 N 
HETATM   20  O1  UNL     1      46.333  -1.308  36.490  1.00  0.00    -0.245 OA
ATOM     21  H1  UNL     1      48.452   1.134  36.459  1.00  0.00     0.169 HD
ATOM     22  H2  UNL     1      46.600   1.521  34.993  1.00  0.00     0.192 HD
BRANCH  19  23
HETATM   23  C5  UNL     1      48.936  -0.446  37.691  1.00  0.00     0.074 C 
BRANCH  23  24
HETATM   24  C2  UNL     1      49.856  -1.519  37.268  1.00  0.00    -0.019 C 
HETATM   25  C1  UNL     1      50.489  -1.211  35.913  1.00  0.00     0.020 C 
HETATM   26  C3  UNL     1      49.406  -2.927  37.317  1.00  0.00     0.020 C 
HETATM   27  C4  UNL     1      51.065  -1.423  38.260  1.00  0.00     0.020 C 
ENDBRANCH  23  24
ENDBRANCH  19  23
ENDBRANCH   1  17
TORSDOF 7
ENDMDL
MODEL 3
REMARK VINA RESULT: -6.711609511      1.135      1.344
REMARK  7 active torsions:
REMARK  status: ('A' for Active; 'I' for Inactive)
REMARK    1  A    between atoms: C2_2  and  C5_5 
REMARK    2  A    between atoms: C5_5  and  N1_6 
REMARK       I    between atoms: N1_6  and  C6_8 
REMARK       I    between atoms: C6_8  and  N2_10 
REMARK    3  A    between atoms: N2_10  and  N3_12 
REMARK       I    between atoms: N3_12  and  C7_14 
REMARK    4  A    between atoms: C7_14  and  C8_16 
REMARK    5  A    between atoms: C8_16  and  N4_17 
REMARK       I    between atoms: N4_17  and  C9_19 
REMARK    6  A    between atoms: C9_19  and  C10_21 
REMARK    7  A    between atoms: C10_21  and  C11_22 
ROOT
HETATM    1  N3  UNL     1      44.019   0.175  34.140  1.00  0.00    -0.265 N 
ATOM      2  H3  UNL     1      43.863   1.155  33.902  1.00  0.00     0.190 HD
HETATM    3  C7  UNL     1      43.326  -0.837  33.442  1.00  0.00     0.253 C 
HETATM    4  O2  UNL     1      43.542  -2.048  33.786  1.00  0.00    -0.270 OA
ENDROOT
BRANCH   3   5
HETATM    5  C8  UNL     1      42.382  -0.537  32.362  1.00  0.00     0.227 C 
BRANCH   5   6
HETATM    6  N4  UNL     1      42.885  -0.899  31.072  1.00  0.00    -0.352 N 
HETATM    7  C9  UNL     1      42.036  -1.408  30.047  1.00  0.00     0.218 C 
HETATM    8  O3  UNL     1      40.812  -1.524  30.306  1.00  0.00    -0.274 OA
ATOM      9  H4  UNL     1      43.881  -0.790  30.880  1.00  0.00     0.162 HD
BRANCH   7  10
HETATM   10  C10 UNL     1      42.664  -1.760  28.756  1.00  0.00     0.107 C 
BRANCH  10  11
HETATM   11  C11 UNL     1      44.112  -2.140  28.820  1.00  0.00    -0.006 C 
HETATM   12  C12 UNL     1      44.882  -1.363  27.769  1.00  0.00     0.005 C 
HETATM   13  C13 UNL     1      44.682  -1.848  26.381  1.00  0.00     0.000 C 
HETATM   14  C14 UNL     1      44.300  -3.264  26.188  1.00  0.00     0.000 C 
HETATM   15  C15 UNL     1      43.608  -3.957  27.297  1.00  0.00     0.000 C 
HETATM   16  C16 UNL     1      44.255  -3.621  28.590  1.00  0.00     0.005 C 
ENDBRANCH  10  11
ENDBRANCH   7  10
ENDBRANCH   5   6
ENDBRANCH   3   5
BRANCH   1  17
HETATM   17  N2  UNL     1      44.928  -0.165  35.169  1.00  0.00    -0.249 N 
HETATM   18  C6  UNL     1      46.337  -0.117  34.867  1.00  0.00     0.338 C 
HETATM   19  N1  UNL     1      47.265  -0.450  35.862  1.00  0.00    -0.321 N 
HETATM   20  O1  UNL     1      46.616   0.236  33.688  1.00  0.00    -0.245 OA
ATOM     21  H1  UNL     1      46.877  -0.722  36.765  1.00  0.00     0.169 HD
ATOM     22  H2  UNL     1      44.597  -0.436  36.094  1.00  0.00     0.192 HD
BRANCH  19  23
HETATM   23  C5  UNL     1      48.659  -0.454  35.764  1.00  0.00     0.074 C 
BRANCH  23  24
HETATM   24  C2  UNL     1      49.495  -1.198  36.726  1.00  0.00    -0.019 C 
HETATM   25  C1  UNL     1      49.411  -0.593  38.125  1.00  0.00     0.020 C 
HETATM   26  C3  UNL     1      50.900  -1.507  36.383  1.00  0.00     0.020 C 
HETATM   27  C4  UNL     1      48.780  -2.583  36.888  1.00  0.00     0.020 C 
ENDBRANCH  23  24
ENDBRANCH  19  23
ENDBRANCH   1  17
TORSDOF 7
ENDMDL
MODEL 4
REMARK VINA RESULT: -6.622353730      1.153      1.524
REMARK  7 active torsions:
REMARK  status: ('A' for Active; 'I' for Inactive)
REMARK    1  A    between atoms: C2_2  and  C5_5 
REMARK    2  A    between atoms: C5_5  and  N1_6 
REMARK       I    between atoms: N1_6  and  C6_8 
REMARK       I    between atoms: C6_8  and  N2_10 
REMARK    3  A    between atoms: N2_10  and  N3_12 
REMARK       I    between atoms: N3_12  and  C7_14 
REMARK    4  A    between atoms: C7_14  and  C8_16 
REMARK    5  A    between atoms: C8_16  and  N4_17 
REMARK       I    between atoms: N4_17  and  C9_19 
REMARK    6  A    between atoms: C9_19  and  C10_21 
REMARK    7  A    between atoms: C10_21  and  C11_22 
ROOT
HETATM    1  N3  UNL     1      44.907  -0.162  32.964  1.00  0.00    -0.265 N 
ATOM      2  H3  UNL     1      45.185  -0.875  32.290  1.00  0.00     0.190 HD
HETATM    3  C7  UNL     1      43.544   0.178  33.106  1.00  0.00     0.253 C 
HETATM    4  O2  UNL     1      43.246   1.087  33.950  1.00  0.00    -0.270 OA
ENDROOT
BRANCH   3   5
HETATM    5  C8  UNL     1      42.490  -0.469  32.319  1.00  0.00     0.227 C 
BRANCH   5   6
HETATM    6  N4  UNL     1      42.946  -0.900  31.032  1.00  0.00    -0.352 N 
HETATM    7  C9  UNL     1      42.049  -1.391  30.040  1.00  0.00     0.218 C 
HETATM    8  O3  UNL     1      40.826  -1.429  30.325  1.00  0.00    -0.274 OA
ATOM      9  H4  UNL     1      43.943  -0.853  30.819  1.00  0.00     0.162 HD
BRANCH   7  10
HETATM   10  C10 UNL     1      42.631  -1.818  28.750  1.00  0.00     0.107 C 
BRANCH  10  11
HETATM   11  C11 UNL     1      44.081  -2.197  28.784  1.00  0.00    -0.006 C 
HETATM   12  C12 UNL     1      44.816  -1.465  27.677  1.00  0.00     0.005 C 
HETATM   13  C13 UNL     1      44.572  -2.008  26.318  1.00  0.00     0.000 C 
HETATM   14  C14 UNL     1      44.184  -3.430  26.197  1.00  0.00     0.000 C 
HETATM   15  C15 UNL     1      43.528  -4.075  27.355  1.00  0.00     0.000 C 
HETATM   16  C16 UNL     1      44.216  -3.686  28.612  1.00  0.00     0.005 C 
ENDBRANCH  10  11
ENDBRANCH   7  10
ENDBRANCH   5   6
ENDBRANCH   3   5
BRANCH   1  17
HETATM   17  N2  UNL     1      45.886   0.484  33.753  1.00  0.00    -0.249 N 
HETATM   18  C6  UNL     1      46.194  -0.081  35.044  1.00  0.00     0.338 C 
HETATM   19  N1  UNL     1      47.157   0.535  35.851  1.00  0.00    -0.321 N 
HETATM   20  O1  UNL     1      45.540  -1.120  35.337  1.00  0.00    -0.245 OA
ATOM     21  H1  UNL     1      47.592   1.375  35.471  1.00  0.00     0.169 HD
ATOM     22  H2  UNL     1      46.360   1.323  33.420  1.00  0.00     0.192 HD
BRANCH  19  23
HETATM   23  C5  UNL     1      47.593   0.134  37.117  1.00  0.00     0.074 C 
BRANCH  23  24
HETATM   24  C2  UNL     1      48.739  -0.781  37.282  1.00  0.00    -0.019 C 
HETATM   25  C1  UNL     1      48.332  -2.234  37.052  1.00  0.00     0.020 C 
HETATM   26  C3  UNL     1      49.594  -0.670  38.483  1.00  0.00     0.020 C 
HETATM   27  C4  UNL     1      49.674  -0.471  36.063  1.00  0.00     0.020 C 
ENDBRANCH  23  24
ENDBRANCH  19  23
ENDBRANCH   1  17
TORSDOF 7
ENDMDL
MODEL 5
REMARK VINA RESULT: -6.480173966      1.182      1.890
REMARK  7 active torsions:
REMARK  status: ('A' for Active; 'I' for Inactive)
REMARK    1  A    between atoms: C2_2  and  C5_5 
REMARK    2  A    between atoms: C5_5  and  N1_6 
REMARK       I    between atoms: N1_6  and  C6_8 
REMARK       I    between atoms: C6_8  and  N2_10 
REMARK    3  A    between atoms: N2_10  and  N3_12 
REMARK       I    between atoms: N3_12  and  C7_14 
REMARK    4  A    between atoms: C7_14  and  C8_16 
REMARK    5  A    between atoms: C8_16  and  N4_17 
REMARK       I    between atoms: N4_17  and  C9_19 
REMARK    6  A    between atoms: C9_19  and  C10_21 
REMARK    7  A    between atoms: C10_21  and  C11_22 
ROOT
HETATM    1  N3  UNL     1      44.891   0.637  34.995  1.00  0.00    -0.265 N 
ATOM      2  H3  UNL     1      44.062   0.670  35.588  1.00  0.00     0.190 HD
HETATM    3  C7  UNL     1      44.772   0.263  33.639  1.00  0.00     0.253 C 
HETATM    4  O2  UNL     1      45.839   0.222  32.940  1.00  0.00    -0.270 OA
ENDROOT
BRANCH   3   5
HETATM    5  C8  UNL     1      43.482  -0.077  33.033  1.00  0.00     0.227 C 
BRANCH   5   6
HETATM    6  N4  UNL     1      43.622  -0.814  31.814  1.00  0.00    -0.352 N 
HETATM    7  C9  UNL     1      42.582  -0.868  30.841  1.00  0.00     0.218 C 
HETATM    8  O3  UNL     1      41.524  -0.234  31.081  1.00  0.00    -0.274 OA
ATOM      9  H4  UNL     1      44.492  -1.316  31.636  1.00  0.00     0.162 HD
BRANCH   7  10
HETATM   10  C10 UNL     1      42.830  -1.669  29.624  1.00  0.00     0.107 C 
BRANCH  10  11
HETATM   11  C11 UNL     1      41.994  -2.904  29.476  1.00  0.00    -0.006 C 
HETATM   12  C12 UNL     1      41.985  -3.663  30.790  1.00  0.00     0.005 C 
HETATM   13  C13 UNL     1      43.244  -4.393  31.083  1.00  0.00     0.000 C 
HETATM   14  C14 UNL     1      44.089  -4.806  29.942  1.00  0.00     0.000 C 
HETATM   15  C15 UNL     1      43.980  -4.042  28.680  1.00  0.00     0.000 C 
HETATM   16  C16 UNL     1      42.554  -3.763  28.374  1.00  0.00     0.005 C 
ENDBRANCH  10  11
ENDBRANCH   7  10
ENDBRANCH   5   6
ENDBRANCH   3   5
BRANCH   1  17
HETATM   17  N2  UNL     1      46.157   0.967  35.533  1.00  0.00    -0.249 N 
HETATM   18  C6  UNL     1      46.833  -0.029  36.328  1.00  0.00     0.338 C 
HETATM   19  N1  UNL     1      48.087   0.265  36.877  1.00  0.00    -0.321 N 
HETATM   20  O1  UNL     1      46.207  -1.117  36.459  1.00  0.00    -0.245 OA
ATOM     21  H1  UNL     1      48.456   1.196  36.683  1.00  0.00     0.169 HD
ATOM     22  H2  UNL     1      46.579   1.880  35.364  1.00  0.00     0.192 HD
BRANCH  19  23
HETATM   23  C5  UNL     1      48.893  -0.566  37.660  1.00  0.00     0.074 C 
BRANCH  23  24
HETATM   24  C2  UNL     1      49.743  -1.607  37.051  1.00  0.00    -0.019 C 
HETATM   25  C1  UNL     1      51.070  -1.750  37.792  1.00  0.00     0.020 C 
HETATM   26  C3  UNL     1      49.968  -1.601  35.589  1.00  0.00     0.020 C 
HETATM   27  C4  UNL     1      49.008  -2.955  37.364  1.00  0.00     0.020 C 
ENDBRANCH  23  24
ENDBRANCH  19  23
ENDBRANCH   1  17
TORSDOF 7
ENDMDL
