MODEL 1
REMARK VINA RESULT: -6.071091326      0.000      0.000
REMARK  7 active torsions:
REMARK  status: ('A' for Active; 'I' for Inactive)
REMARK    1  A    between atoms: N1_1  and  C1_5 
REMARK    2  A    between atoms: C1_5  and  C2_6 
REMARK    3  A    between atoms: C2_6  and  C3_7 
REMARK    4  A    between atoms: C3_7  and  C4_8 
REMARK    5  A    between atoms: C4_8  and  C5_9 
REMARK    6  A    between atoms: C7_13  and  C8_14 
REMARK    7  A    between atoms: C12_20  and  N4_21 
ROOT
HETATM    1  C4  UNL     1      42.882  -2.349  29.491  1.00  0.00     0.015 C 
HETATM    2  C6  UNL     1      43.649  -2.249  30.772  1.00  0.00     0.030 C 
HETATM    3  C7  UNL     1      43.300  -1.084  31.616  1.00  0.00     0.076 C 
HETATM    4  C9  UNL     1      41.830  -1.307  32.004  1.00  0.00     0.018 C 
HETATM    5  C10 UNL     1      41.087  -1.078  30.688  1.00  0.00    -0.007 C 
HETATM    6  C11 UNL     1      39.635  -0.842  30.903  1.00  0.00     0.037 C 
HETATM    7  C12 UNL     1      38.920  -1.977  31.579  1.00  0.00     0.183 C 
HETATM    8  C13 UNL     1      38.330  -2.977  30.621  1.00  0.00     0.033 C 
HETATM    9  C14 UNL     1      39.126  -3.005  29.358  1.00  0.00     0.002 C 
HETATM   10  C15 UNL     1      40.575  -3.341  29.731  1.00  0.00     0.006 C 
HETATM   11  C16 UNL     1      41.409  -2.079  29.635  1.00  0.00     0.004 C 
ENDROOT
BRANCH   1  12
HETATM   12  C3  UNL     1      43.416  -1.372  28.477  1.00  0.00     0.018 C 
BRANCH  12  13
HETATM   13  C2  UNL     1      44.803  -1.579  28.017  1.00  0.00     0.028 C 
BRANCH  13  14
HETATM   14  C1  UNL     1      44.824  -1.337  26.497  1.00  0.00     0.229 C 
BRANCH  14  15
HETATM   15  N1  UNL     1      45.009  -2.599  25.804  1.00  0.00    -0.079 N 
ATOM     16  H13 UNL     1      45.755  -3.159  26.217  1.00  0.00     0.274 HD
ATOM     17  H12 UNL     1      44.236  -3.244  25.965  1.00  0.00     0.274 HD
ATOM     18  H11 UNL     1      45.164  -2.426  24.811  1.00  0.00     0.274 HD
ENDBRANCH  14  15
ENDBRANCH  13  14
ENDBRANCH  12  13
ENDBRANCH   1  12
BRANCH   1  19
HETATM   19  C5  UNL     1      43.152  -3.719  28.985  1.00  0.00     0.099 C 
HETATM   20  N2  UNL     1      42.799  -4.096  27.636  1.00  0.00    -0.094 NA
HETATM   21  S1  UNL     1      43.881  -4.893  29.851  1.00  0.00    -0.068 SA
ENDBRANCH   1  19
BRANCH   3  22
HETATM   22  C8  UNL     1      44.173  -0.972  32.774  1.00  0.00     0.235 C 
HETATM   23  N3  UNL     1      45.401  -0.241  32.639  1.00  0.00    -0.062 NA
HETATM   24  O1  UNL     1      43.920  -1.474  33.885  1.00  0.00    -0.277 OA
ENDBRANCH   3  22
BRANCH   7  25
HETATM   25  N4  UNL     1      37.793  -1.435  32.353  1.00  0.00    -0.075 N 
ATOM     26  H43 UNL     1      38.053  -0.610  32.894  1.00  0.00     0.274 HD
ATOM     27  H42 UNL     1      37.087  -0.998  31.759  1.00  0.00     0.274 HD
ATOM     28  H41 UNL     1      37.405  -2.177  32.935  1.00  0.00     0.274 HD
ENDBRANCH   7  25
TORSDOF 7
ENDMDL
MODEL 2
REMARK VINA RESULT: -5.886672191      2.524      5.448
REMARK  7 active torsions:
REMARK  status: ('A' for Active; 'I' for Inactive)
REMARK    1  A    between atoms: N1_1  and  C1_5 
REMARK    2  A    between atoms: C1_5  and  C2_6 
REMARK    3  A    between atoms: C2_6  and  C3_7 
REMARK    4  A    between atoms: C3_7  and  C4_8 
REMARK    5  A    between atoms: C4_8  and  C5_9 
REMARK    6  A    between atoms: C7_13  and  C8_14 
REMARK    7  A    between atoms: C12_20  and  N4_21 
ROOT
HETATM    1  C4  UNL     1      42.649  -2.655  30.907  1.00  0.00     0.015 C 
HETATM    2  C6  UNL     1      43.338  -3.767  31.635  1.00  0.00     0.030 C 
HETATM    3  C7  UNL     1      43.186  -5.104  31.017  1.00  0.00     0.076 C 
HETATM    4  C9  UNL     1      43.876  -4.984  29.649  1.00  0.00     0.018 C 
HETATM    5  C10 UNL     1      42.931  -4.076  28.863  1.00  0.00    -0.007 C 
HETATM    6  C11 UNL     1      43.180  -4.147  27.400  1.00  0.00     0.037 C 
HETATM    7  C12 UNL     1      44.567  -3.740  26.990  1.00  0.00     0.183 C 
HETATM    8  C13 UNL     1      44.694  -2.277  26.656  1.00  0.00     0.033 C 
HETATM    9  C14 UNL     1      43.686  -1.489  27.425  1.00  0.00     0.002 C 
HETATM   10  C15 UNL     1      43.918  -1.769  28.915  1.00  0.00     0.006 C 
HETATM   11  C16 UNL     1      42.829  -2.697  29.413  1.00  0.00     0.004 C 
ENDROOT
BRANCH   1  12
HETATM   12  C3  UNL     1      41.169  -2.684  31.178  1.00  0.00     0.018 C 
BRANCH  12  13
HETATM   13  C2  UNL     1      40.275  -2.414  30.035  1.00  0.00     0.028 C 
BRANCH  13  14
HETATM   14  C1  UNL     1      39.333  -1.270  30.448  1.00  0.00     0.229 C 
BRANCH  14  15
HETATM   15  N1  UNL     1      39.967   0.008  30.177  1.00  0.00    -0.079 N 
ATOM     16  H13 UNL     1      39.313   0.687  29.787  1.00  0.00     0.274 HD
ATOM     17  H12 UNL     1      40.205   0.508  31.033  1.00  0.00     0.274 HD
ATOM     18  H11 UNL     1      40.779  -0.133  29.576  1.00  0.00     0.274 HD
ENDBRANCH  14  15
ENDBRANCH  13  14
ENDBRANCH  12  13
ENDBRANCH   1  12
BRANCH   1  19
HETATM   19  C5  UNL     1      43.194  -1.408  31.501  1.00  0.00     0.099 C 
HETATM   20  N2  UNL     1      42.732  -0.112  31.061  1.00  0.00    -0.094 NA
HETATM   21  S1  UNL     1      44.304  -1.366  32.695  1.00  0.00    -0.068 SA
ENDBRANCH   1  19
BRANCH   3  22
HETATM   22  C8  UNL     1      43.762  -6.152  31.844  1.00  0.00     0.235 C 
HETATM   23  N3  UNL     1      44.855  -6.918  31.315  1.00  0.00    -0.062 NA
HETATM   24  O1  UNL     1      43.365  -6.429  32.990  1.00  0.00    -0.277 OA
ENDBRANCH   3  22
BRANCH   7  25
HETATM   25  N4  UNL     1      44.935  -4.473  25.769  1.00  0.00    -0.075 N 
ATOM     26  H43 UNL     1      44.724  -5.469  25.834  1.00  0.00     0.274 HD
ATOM     27  H42 UNL     1      44.326  -4.251  24.982  1.00  0.00     0.274 HD
ATOM     28  H41 UNL     1      45.918  -4.296  25.563  1.00  0.00     0.274 HD
ENDBRANCH   7  25
TORSDOF 7
ENDMDL
MODEL 3
REMARK VINA RESULT: -5.780717885      1.220      1.254
REMARK  7 active torsions:
REMARK  status: ('A' for Active; 'I' for Inactive)
REMARK    1  A    between atoms: N1_1  and  C1_5 
REMARK    2  A    between atoms: C1_5  and  C2_6 
REMARK    3  A    between atoms: C2_6  and  C3_7 
REMARK    4  A    between atoms: C3_7  and  C4_8 
REMARK    5  A    between atoms: C4_8  and  C5_9 
REMARK    6  A    between atoms: C7_13  and  C8_14 
REMARK    7  A    between atoms: C12_20  and  N4_21 
ROOT
HETATM    1  C4  UNL     1      43.246  -3.127  30.201  1.00  0.00     0.015 C 
HETATM    2  C6  UNL     1      43.829  -2.699  31.511  1.00  0.00     0.030 C 
HETATM    3  C7  UNL     1      43.654  -1.263  31.830  1.00  0.00     0.076 C 
HETATM    4  C9  UNL     1      42.134  -1.071  31.945  1.00  0.00     0.018 C 
HETATM    5  C10 UNL     1      41.656  -1.215  30.501  1.00  0.00    -0.007 C 
HETATM    6  C11 UNL     1      40.287  -0.669  30.311  1.00  0.00     0.037 C 
HETATM    7  C12 UNL     1      39.236  -1.336  31.153  1.00  0.00     0.183 C 
HETATM    8  C13 UNL     1      38.564  -2.499  30.473  1.00  0.00     0.033 C 
HETATM    9  C14 UNL     1      39.497  -3.125  29.490  1.00  0.00     0.002 C 
HETATM   10  C15 UNL     1      40.759  -3.546  30.254  1.00  0.00     0.006 C 
HETATM   11  C16 UNL     1      41.874  -2.572  29.930  1.00  0.00     0.004 C 
ENDROOT
BRANCH   1  12
HETATM   12  C3  UNL     1      44.132  -2.698  29.062  1.00  0.00     0.018 C 
BRANCH  12  13
HETATM   13  C2  UNL     1      43.481  -2.474  27.757  1.00  0.00     0.028 C 
BRANCH  13  14
HETATM   14  C1  UNL     1      44.246  -1.342  27.049  1.00  0.00     0.229 C 
BRANCH  14  15
HETATM   15  N1  UNL     1      44.251  -0.156  27.888  1.00  0.00    -0.079 N 
ATOM     16  H13 UNL     1      44.580   0.669  27.386  1.00  0.00     0.274 HD
ATOM     17  H12 UNL     1      43.307   0.169  28.100  1.00  0.00     0.274 HD
ATOM     18  H11 UNL     1      44.794  -0.335  28.732  1.00  0.00     0.274 HD
ENDBRANCH  14  15
ENDBRANCH  13  14
ENDBRANCH  12  13
ENDBRANCH   1  12
BRANCH   1  19
HETATM   19  C5  UNL     1      43.250  -4.612  30.243  1.00  0.00     0.099 C 
HETATM   20  N2  UNL     1      43.085  -5.390  29.038  1.00  0.00    -0.094 NA
HETATM   21  S1  UNL     1      43.469  -5.493  31.598  1.00  0.00    -0.068 SA
ENDBRANCH   1  19
BRANCH   3  22
HETATM   22  C8  UNL     1      44.359  -0.888  33.046  1.00  0.00     0.235 C 
HETATM   23  N3  UNL     1      45.498  -0.021  32.937  1.00  0.00    -0.062 NA
HETATM   24  O1  UNL     1      44.034  -1.273  34.184  1.00  0.00    -0.277 OA
ENDBRANCH   3  22
BRANCH   7  25
HETATM   25  N4  UNL     1      38.174  -0.361  31.445  1.00  0.00    -0.075 N 
ATOM     26  H43 UNL     1      37.264  -0.659  31.092  1.00  0.00     0.274 HD
ATOM     27  H42 UNL     1      37.937  -0.328  32.437  1.00  0.00     0.274 HD
ATOM     28  H41 UNL     1      38.454   0.550  31.081  1.00  0.00     0.274 HD
ENDBRANCH   7  25
TORSDOF 7
ENDMDL
MODEL 4
REMARK VINA RESULT: -5.722062902      2.599      5.451
REMARK  7 active torsions:
REMARK  status: ('A' for Active; 'I' for Inactive)
REMARK    1  A    between atoms: N1_1  and  C1_5 
REMARK    2  A    between atoms: C1_5  and  C2_6 
REMARK    3  A    between atoms: C2_6  and  C3_7 
REMARK    4  A    between atoms: C3_7  and  C4_8 
REMARK    5  A    between atoms: C4_8  and  C5_9 
REMARK    6  A    between atoms: C7_13  and  C8_14 
REMARK    7  A    between atoms: C12_20  and  N4_21 
ROOT
HETATM    1  C4  UNL     1      42.530  -2.655  30.864  1.00  0.00     0.015 C 
HETATM    2  C6  UNL     1      43.231  -3.736  31.627  1.00  0.00     0.030 C 
HETATM    3  C7  UNL     1      43.122  -5.088  31.033  1.00  0.00     0.076 C 
HETATM    4  C9  UNL     1      43.834  -4.978  29.676  1.00  0.00     0.018 C 
HETATM    5  C10 UNL     1      42.884  -4.109  28.855  1.00  0.00    -0.007 C 
HETATM    6  C11 UNL     1      43.161  -4.203  27.398  1.00  0.00     0.037 C 
HETATM    7  C12 UNL     1      44.546  -3.771  27.005  1.00  0.00     0.183 C 
HETATM    8  C13 UNL     1      44.645  -2.312  26.645  1.00  0.00     0.033 C 
HETATM    9  C14 UNL     1      43.605  -1.533  27.380  1.00  0.00     0.002 C 
HETATM   10  C15 UNL     1      43.816  -1.778  28.879  1.00  0.00     0.006 C 
HETATM   11  C16 UNL     1      42.739  -2.722  29.375  1.00  0.00     0.004 C 
ENDROOT
BRANCH   1  12
HETATM   12  C3  UNL     1      41.046  -2.714  31.108  1.00  0.00     0.018 C 
BRANCH  12  13
HETATM   13  C2  UNL     1      40.169  -2.521  29.938  1.00  0.00     0.028 C 
BRANCH  13  14
HETATM   14  C1  UNL     1      39.198  -3.714  29.890  1.00  0.00     0.229 C 
BRANCH  14  15
HETATM   15  N1  UNL     1      38.418  -3.661  28.665  1.00  0.00    -0.079 N 
ATOM     16  H13 UNL     1      37.664  -2.977  28.719  1.00  0.00     0.274 HD
ATOM     17  H12 UNL     1      38.941  -3.244  27.895  1.00  0.00     0.274 HD
ATOM     18  H11 UNL     1      38.076  -4.594  28.436  1.00  0.00     0.274 HD
ENDBRANCH  14  15
ENDBRANCH  13  14
ENDBRANCH  12  13
ENDBRANCH   1  12
BRANCH   1  19
HETATM   19  C5  UNL     1      43.035  -1.384  31.444  1.00  0.00     0.099 C 
HETATM   20  N2  UNL     1      42.474  -0.114  31.048  1.00  0.00    -0.094 NA
HETATM   21  S1  UNL     1      44.208  -1.289  32.572  1.00  0.00    -0.068 SA
ENDBRANCH   1  19
BRANCH   3  22
HETATM   22  C8  UNL     1      43.707  -6.106  31.891  1.00  0.00     0.235 C 
HETATM   23  N3  UNL     1      44.799  -6.886  31.381  1.00  0.00    -0.062 NA
HETATM   24  O1  UNL     1      43.318  -6.346  33.048  1.00  0.00    -0.277 OA
ENDBRANCH   3  22
BRANCH   7  25
HETATM   25  N4  UNL     1      44.954  -4.519  25.806  1.00  0.00    -0.075 N 
ATOM     26  H43 UNL     1      45.339  -3.913  25.081  1.00  0.00     0.274 HD
ATOM     27  H42 UNL     1      45.784  -5.091  25.967  1.00  0.00     0.274 HD
ATOM     28  H41 UNL     1      44.162  -5.068  25.475  1.00  0.00     0.274 HD
ENDBRANCH   7  25
TORSDOF 7
ENDMDL
MODEL 5
REMARK VINA RESULT: -5.690225155      2.555      5.144
REMARK  7 active torsions:
REMARK  status: ('A' for Active; 'I' for Inactive)
REMARK    1  A    between atoms: N1_1  and  C1_5 
REMARK    2  A    between atoms: C1_5  and  C2_6 
REMARK    3  A    between atoms: C2_6  and  C3_7 
REMARK    4  A    between atoms: C3_7  and  C4_8 
REMARK    5  A    between atoms: C4_8  and  C5_9 
REMARK    6  A    between atoms: C7_13  and  C8_14 
REMARK    7  A    between atoms: C12_20  and  N4_21 
ROOT
HETATM    1  C4  UNL     1      42.713  -4.093  30.262  1.00  0.00     0.015 C 
HETATM    2  C6  UNL     1      41.773  -3.002  30.669  1.00  0.00     0.030 C 
HETATM    3  C7  UNL     1      42.382  -1.655  30.754  1.00  0.00     0.076 C 
HETATM    4  C9  UNL     1      42.826  -1.335  29.318  1.00  0.00     0.018 C 
HETATM    5  C10 UNL     1      44.001  -2.287  29.099  1.00  0.00    -0.007 C 
HETATM    6  C11 UNL     1      44.839  -1.879  27.941  1.00  0.00     0.037 C 
HETATM    7  C12 UNL     1      44.102  -1.837  26.632  1.00  0.00     0.183 C 
HETATM    8  C13 UNL     1      44.163  -3.129  25.862  1.00  0.00     0.033 C 
HETATM    9  C14 UNL     1      44.314  -4.278  26.803  1.00  0.00     0.002 C 
HETATM   10  C15 UNL     1      43.131  -4.236  27.778  1.00  0.00     0.006 C 
HETATM   11  C16 UNL     1      43.620  -3.725  29.118  1.00  0.00     0.004 C 
ENDROOT
BRANCH   1  12
HETATM   12  C3  UNL     1      43.593  -4.492  31.416  1.00  0.00     0.018 C 
BRANCH  12  13
HETATM   13  C2  UNL     1      42.928  -4.727  32.712  1.00  0.00     0.028 C 
BRANCH  13  14
HETATM   14  C1  UNL     1      43.217  -6.182  33.121  1.00  0.00     0.229 C 
BRANCH  14  15
HETATM   15  N1  UNL     1      44.299  -6.712  32.308  1.00  0.00    -0.079 N 
ATOM     16  H13 UNL     1      43.966  -7.072  31.414  1.00  0.00     0.274 HD
ATOM     17  H12 UNL     1      44.908  -5.975  31.951  1.00  0.00     0.274 HD
ATOM     18  H11 UNL     1      44.814  -7.414  32.838  1.00  0.00     0.274 HD
ENDBRANCH  14  15
ENDBRANCH  13  14
ENDBRANCH  12  13
ENDBRANCH   1  12
BRANCH   1  19
HETATM   19  C5  UNL     1      41.842  -5.251  29.935  1.00  0.00     0.099 C 
HETATM   20  N2  UNL     1      42.410  -6.532  29.584  1.00  0.00    -0.094 NA
HETATM   21  S1  UNL     1      40.212  -5.215  29.969  1.00  0.00    -0.068 SA
ENDBRANCH   1  19
BRANCH   3  22
HETATM   22  C8  UNL     1      41.452  -0.671  31.284  1.00  0.00     0.235 C 
HETATM   23  N3  UNL     1      40.412  -0.179  30.424  1.00  0.00    -0.062 NA
HETATM   24  O1  UNL     1      41.499  -0.226  32.445  1.00  0.00    -0.277 OA
ENDBRANCH   3  22
BRANCH   7  25
HETATM   25  N4  UNL     1      44.721  -0.816  25.772  1.00  0.00    -0.075 N 
ATOM     26  H43 UNL     1      45.021   0.006  26.297  1.00  0.00     0.274 HD
ATOM     27  H42 UNL     1      45.637  -1.103  25.424  1.00  0.00     0.274 HD
ATOM     28  H41 UNL     1      44.074  -0.584  25.019  1.00  0.00     0.274 HD
ENDBRANCH   7  25
TORSDOF 7
ENDMDL
