MODEL 1
REMARK VINA RESULT: -7.178784386      0.000      0.000
REMARK  6 active torsions:
REMARK  status: ('A' for Active; 'I' for Inactive)
REMARK    1  A    between atoms: C2_2  and  C14_28 
REMARK    2  A    between atoms: N1_3  and  N2_5 
REMARK       I    between atoms: N2_5  and  C3_7 
REMARK       I    between atoms: C3_7  and  N5_12 
REMARK    3  A    between atoms: N5_12  and  C5_14 
REMARK    4  A    between atoms: C5_14  and  C6_15 
REMARK    5  A    between atoms: C6_15  and  N6_16 
REMARK       I    between atoms: N6_16  and  C7_18 
REMARK       I    between atoms: C7_18  and  N7_20 
REMARK    6  A    between atoms: N7_20  and  C8_22 
ROOT
HETATM    1  N2  UNL     1      44.044  -1.938  30.351  1.00  0.00    -0.132 N 
ATOM      2  H2  UNL     1      44.431  -2.684  30.927  1.00  0.00     0.205 HD
HETATM    3  C3  UNL     1      42.944  -1.158  30.844  1.00  0.00     0.701 C 
HETATM    4  N3  UNL     1      41.800  -1.178  30.303  1.00  0.00    -0.125 N 
ATOM      5  H3  UNL     1      41.664  -1.774  29.487  1.00  0.00     0.197 HD
HETATM    6  C4  UNL     1      40.738  -0.444  30.754  1.00  0.00     0.196 C 
HETATM    7  N4  UNL     1      39.829   0.185  31.116  1.00  0.00    -0.171 NA
HETATM    8  N5  UNL     1      43.180  -0.344  31.975  1.00  0.00    -0.223 N 
ATOM      9  H5  UNL     1      43.688   0.535  31.885  1.00  0.00     0.177 HD
ENDROOT
BRANCH   1  10
HETATM   10  N1  UNL     1      44.580  -1.688  29.106  1.00  0.00    -0.295 N 
HETATM   11  C2  UNL     1      44.400  -2.314  28.027  1.00  0.00     0.004 C 
HETATM   12  C1  UNL     1      43.511  -3.489  27.964  1.00  0.00     0.065 C 
ATOM     13  H1  UNL     1      45.210  -0.887  29.051  1.00  0.00     0.186 HD
BRANCH  11  14
HETATM   14  C14 UNL     1      45.096  -1.879  26.795  1.00  0.00     0.032 A 
HETATM   15  C15 UNL     1      44.603  -2.370  25.440  1.00  0.00     0.011 A 
HETATM   16  C16 UNL     1      44.317  -0.973  25.835  1.00  0.00     0.011 A 
ENDBRANCH  11  14
ENDBRANCH   1  10
BRANCH   8  17
HETATM   17  C5  UNL     1      42.687  -0.781  33.264  1.00  0.00     0.158 C 
BRANCH  17  18
HETATM   18  C6  UNL     1      43.013   0.282  34.260  1.00  0.00     0.144 C 
BRANCH  18  19
HETATM   19  N6  UNL     1      44.423   0.501  34.320  1.00  0.00    -0.342 N 
HETATM   20  C7  UNL     1      45.288  -0.148  35.236  1.00  0.00     0.316 C 
HETATM   21  O1  UNL     1      44.784  -0.963  36.049  1.00  0.00    -0.247 OA
HETATM   22  N7  UNL     1      46.672   0.136  35.208  1.00  0.00    -0.339 N 
ATOM     23  H7  UNL     1      47.037   0.807  34.532  1.00  0.00     0.164 HD
ATOM     24  H6  UNL     1      44.833   1.165  33.663  1.00  0.00     0.164 HD
BRANCH  22  25
HETATM   25  C8  UNL     1      47.562  -0.506  36.117  1.00  0.00     0.086 C 
HETATM   26  C9  UNL     1      48.981  -0.624  35.607  1.00  0.00     0.025 C 
HETATM   27  C10 UNL     1      49.747  -1.502  36.569  1.00  0.00     0.002 C 
HETATM   28  C11 UNL     1      49.604  -1.059  37.980  1.00  0.00     0.000 C 
HETATM   29  C12 UNL     1      48.223  -0.723  38.428  1.00  0.00     0.002 C 
HETATM   30  C13 UNL     1      47.644   0.276  37.433  1.00  0.00     0.025 C 
ENDBRANCH  22  25
ENDBRANCH  18  19
ENDBRANCH  17  18
ENDBRANCH   8  17
TORSDOF 6
ENDMDL
MODEL 2
REMARK VINA RESULT: -7.084160731      1.323      1.609
REMARK  6 active torsions:
REMARK  status: ('A' for Active; 'I' for Inactive)
REMARK    1  A    between atoms: C2_2  and  C14_28 
REMARK    2  A    between atoms: N1_3  and  N2_5 
REMARK       I    between atoms: N2_5  and  C3_7 
REMARK       I    between atoms: C3_7  and  N5_12 
REMARK    3  A    between atoms: N5_12  and  C5_14 
REMARK    4  A    between atoms: C5_14  and  C6_15 
REMARK    5  A    between atoms: C6_15  and  N6_16 
REMARK       I    between atoms: N6_16  and  C7_18 
REMARK       I    between atoms: C7_18  and  N7_20 
REMARK    6  A    between atoms: N7_20  and  C8_22 
ROOT
HETATM    1  N2  UNL     1      44.225  -1.770  30.963  1.00  0.00    -0.132 N 
ATOM      2  H2  UNL     1      44.962  -2.370  31.334  1.00  0.00     0.205 HD
HETATM    3  C3  UNL     1      43.346  -1.084  31.868  1.00  0.00     0.701 C 
HETATM    4  N3  UNL     1      42.107  -1.334  31.930  1.00  0.00    -0.125 N 
ATOM      5  H3  UNL     1      41.728  -2.051  31.312  1.00  0.00     0.197 HD
HETATM    6  C4  UNL     1      41.249  -0.693  32.782  1.00  0.00     0.196 C 
HETATM    7  N4  UNL     1      40.505  -0.148  33.491  1.00  0.00    -0.171 NA
HETATM    8  N5  UNL     1      43.914  -0.097  32.703  1.00  0.00    -0.223 N 
ATOM      9  H5  UNL     1      44.155   0.822  32.331  1.00  0.00     0.177 HD
ENDROOT
BRANCH   1  10
HETATM   10  N1  UNL     1      44.083  -1.627  29.600  1.00  0.00    -0.295 N 
HETATM   11  C2  UNL     1      44.027  -2.520  28.712  1.00  0.00     0.004 C 
HETATM   12  C1  UNL     1      44.111  -3.951  29.060  1.00  0.00     0.065 C 
ATOM     13  H1  UNL     1      44.014  -0.666  29.264  1.00  0.00     0.186 HD
BRANCH  11  14
HETATM   14  C14 UNL     1      43.886  -2.139  27.288  1.00  0.00     0.032 A 
HETATM   15  C15 UNL     1      44.302  -0.744  26.839  1.00  0.00     0.011 A 
HETATM   16  C16 UNL     1      45.178  -1.888  26.502  1.00  0.00     0.011 A 
ENDBRANCH  11  14
ENDBRANCH   1  10
BRANCH   8  17
HETATM   17  C5  UNL     1      44.149  -0.412  34.096  1.00  0.00     0.158 C 
BRANCH  17  18
HETATM   18  C6  UNL     1      44.779   0.782  34.733  1.00  0.00     0.144 C 
BRANCH  18  19
HETATM   19  N6  UNL     1      46.201   0.657  34.742  1.00  0.00    -0.342 N 
HETATM   20  C7  UNL     1      46.925  -0.098  35.699  1.00  0.00     0.316 C 
HETATM   21  O1  UNL     1      46.277  -0.690  36.598  1.00  0.00    -0.247 OA
HETATM   22  N7  UNL     1      48.334  -0.162  35.615  1.00  0.00    -0.339 N 
ATOM     23  H7  UNL     1      48.820   0.337  34.869  1.00  0.00     0.164 HD
ATOM     24  H6  UNL     1      46.729   1.140  34.015  1.00  0.00     0.164 HD
BRANCH  22  25
HETATM   25  C8  UNL     1      49.084  -0.916  36.564  1.00  0.00     0.086 C 
HETATM   26  C9  UNL     1      50.482  -1.263  36.106  1.00  0.00     0.025 C 
HETATM   27  C10 UNL     1      51.070  -2.231  37.107  1.00  0.00     0.002 C 
HETATM   28  C11 UNL     1      50.952  -1.743  38.505  1.00  0.00     0.000 C 
HETATM   29  C12 UNL     1      49.627  -1.188  38.900  1.00  0.00     0.002 C 
HETATM   30  C13 UNL     1      49.243  -0.132  37.871  1.00  0.00     0.025 C 
ENDBRANCH  22  25
ENDBRANCH  18  19
ENDBRANCH  17  18
ENDBRANCH   8  17
TORSDOF 6
ENDMDL
MODEL 3
REMARK VINA RESULT: -6.902906221      1.743      8.964
REMARK  6 active torsions:
REMARK  status: ('A' for Active; 'I' for Inactive)
REMARK    1  A    between atoms: C2_2  and  C14_28 
REMARK    2  A    between atoms: N1_3  and  N2_5 
REMARK       I    between atoms: N2_5  and  C3_7 
REMARK       I    between atoms: C3_7  and  N5_12 
REMARK    3  A    between atoms: N5_12  and  C5_14 
REMARK    4  A    between atoms: C5_14  and  C6_15 
REMARK    5  A    between atoms: C6_15  and  N6_16 
REMARK       I    between atoms: N6_16  and  C7_18 
REMARK       I    between atoms: C7_18  and  N7_20 
REMARK    6  A    between atoms: N7_20  and  C8_22 
ROOT
HETATM    1  N2  UNL     1      47.086   0.279  35.509  1.00  0.00    -0.132 N 
ATOM      2  H2  UNL     1      47.532   0.094  34.610  1.00  0.00     0.205 HD
HETATM    3  C3  UNL     1      45.799   0.913  35.545  1.00  0.00     0.701 C 
HETATM    4  N3  UNL     1      45.622   2.062  36.044  1.00  0.00    -0.125 N 
ATOM      5  H3  UNL     1      46.430   2.549  36.433  1.00  0.00     0.197 HD
HETATM    6  C4  UNL     1      44.406   2.687  36.091  1.00  0.00     0.196 C 
HETATM    7  N4  UNL     1      43.376   3.226  36.151  1.00  0.00    -0.171 NA
HETATM    8  N5  UNL     1      44.708   0.202  34.997  1.00  0.00    -0.223 N 
ATOM      9  H5  UNL     1      44.279  -0.567  35.512  1.00  0.00     0.177 HD
ENDROOT
BRANCH   1  10
HETATM   10  N1  UNL     1      47.725  -0.083  36.675  1.00  0.00    -0.295 N 
HETATM   11  C2  UNL     1      48.938  -0.375  36.855  1.00  0.00     0.004 C 
HETATM   12  C1  UNL     1      49.902  -0.359  35.738  1.00  0.00     0.065 C 
ATOM     13  H1  UNL     1      47.135  -0.119  37.507  1.00  0.00     0.186 HD
BRANCH  11  14
HETATM   14  C14 UNL     1      49.414  -0.754  38.204  1.00  0.00     0.032 A 
HETATM   15  C15 UNL     1      48.413  -1.231  39.248  1.00  0.00     0.011 A 
HETATM   16  C16 UNL     1      49.290  -2.231  38.599  1.00  0.00     0.011 A 
ENDBRANCH  11  14
ENDBRANCH   1  10
BRANCH   8  17
HETATM   17  C5  UNL     1      44.209   0.583  33.693  1.00  0.00     0.158 C 
BRANCH  17  18
HETATM   18  C6  UNL     1      43.178  -0.417  33.289  1.00  0.00     0.144 C 
BRANCH  18  19
HETATM   19  N6  UNL     1      42.918  -0.335  31.887  1.00  0.00    -0.342 N 
HETATM   20  C7  UNL     1      43.484  -1.208  30.924  1.00  0.00     0.316 C 
HETATM   21  O1  UNL     1      44.266  -2.106  31.326  1.00  0.00    -0.247 OA
HETATM   22  N7  UNL     1      43.157  -1.045  29.559  1.00  0.00    -0.339 N 
ATOM     23  H7  UNL     1      42.518  -0.301  29.277  1.00  0.00     0.164 HD
ATOM     24  H6  UNL     1      42.287   0.395  31.559  1.00  0.00     0.164 HD
BRANCH  22  25
HETATM   25  C8  UNL     1      43.710  -1.912  28.572  1.00  0.00     0.086 C 
HETATM   26  C9  UNL     1      42.814  -3.071  28.200  1.00  0.00     0.025 C 
HETATM   27  C10 UNL     1      43.609  -4.006  27.318  1.00  0.00     0.002 C 
HETATM   28  C11 UNL     1      44.256  -3.302  26.182  1.00  0.00     0.000 C 
HETATM   29  C12 UNL     1      44.958  -2.029  26.510  1.00  0.00     0.002 C 
HETATM   30  C13 UNL     1      43.980  -1.145  27.272  1.00  0.00     0.025 C 
ENDBRANCH  22  25
ENDBRANCH  18  19
ENDBRANCH  17  18
ENDBRANCH   8  17
TORSDOF 6
ENDMDL
MODEL 4
REMARK VINA RESULT: -6.882993611      1.948      8.770
REMARK  6 active torsions:
REMARK  status: ('A' for Active; 'I' for Inactive)
REMARK    1  A    between atoms: C2_2  and  C14_28 
REMARK    2  A    between atoms: N1_3  and  N2_5 
REMARK       I    between atoms: N2_5  and  C3_7 
REMARK       I    between atoms: C3_7  and  N5_12 
REMARK    3  A    between atoms: N5_12  and  C5_14 
REMARK    4  A    between atoms: C5_14  and  C6_15 
REMARK    5  A    between atoms: C6_15  and  N6_16 
REMARK       I    between atoms: N6_16  and  C7_18 
REMARK       I    between atoms: C7_18  and  N7_20 
REMARK    6  A    between atoms: N7_20  and  C8_22 
ROOT
HETATM    1  N2  UNL     1      46.945  -0.147  35.410  1.00  0.00    -0.132 N 
ATOM      2  H2  UNL     1      47.306  -0.349  34.478  1.00  0.00     0.205 HD
HETATM    3  C3  UNL     1      45.789   0.693  35.556  1.00  0.00     0.701 C 
HETATM    4  N3  UNL     1      45.839   1.822  36.125  1.00  0.00    -0.125 N 
ATOM      5  H3  UNL     1      46.737   2.140  36.488  1.00  0.00     0.197 HD
HETATM    6  C4  UNL     1      44.752   2.640  36.277  1.00  0.00     0.196 C 
HETATM    7  N4  UNL     1      43.835   3.339  36.427  1.00  0.00    -0.171 NA
HETATM    8  N5  UNL     1      44.566   0.211  35.039  1.00  0.00    -0.223 N 
ATOM      9  H5  UNL     1      44.038  -0.505  35.538  1.00  0.00     0.177 HD
ENDROOT
BRANCH   1  10
HETATM   10  N1  UNL     1      47.570  -0.682  36.515  1.00  0.00    -0.295 N 
HETATM   11  C2  UNL     1      48.616  -1.384  36.570  1.00  0.00     0.004 C 
HETATM   12  C1  UNL     1      49.361  -1.743  35.348  1.00  0.00     0.065 C 
ATOM     13  H1  UNL     1      47.125  -0.483  37.411  1.00  0.00     0.186 HD
BRANCH  11  14
HETATM   14  C14 UNL     1      49.110  -1.873  37.877  1.00  0.00     0.032 A 
HETATM   15  C15 UNL     1      50.554  -2.341  38.007  1.00  0.00     0.011 A 
HETATM   16  C16 UNL     1      50.179  -1.029  38.580  1.00  0.00     0.011 A 
ENDBRANCH  11  14
ENDBRANCH   1  10
BRANCH   8  17
HETATM   17  C5  UNL     1      44.075   0.750  33.789  1.00  0.00     0.158 C 
BRANCH  17  18
HETATM   18  C6  UNL     1      42.999  -0.157  33.293  1.00  0.00     0.144 C 
BRANCH  18  19
HETATM   19  N6  UNL     1      43.549  -1.195  32.481  1.00  0.00    -0.342 N 
HETATM   20  C7  UNL     1      43.397  -1.265  31.074  1.00  0.00     0.316 C 
HETATM   21  O1  UNL     1      42.733  -0.362  30.504  1.00  0.00    -0.247 OA
HETATM   22  N7  UNL     1      43.988  -2.333  30.361  1.00  0.00    -0.339 N 
ATOM     23  H7  UNL     1      44.517  -3.046  30.864  1.00  0.00     0.164 HD
ATOM     24  H6  UNL     1      44.085  -1.930  32.941  1.00  0.00     0.164 HD
BRANCH  22  25
HETATM   25  C8  UNL     1      43.851  -2.424  28.945  1.00  0.00     0.086 C 
HETATM   26  C9  UNL     1      44.763  -1.492  28.179  1.00  0.00     0.025 C 
HETATM   27  C10 UNL     1      44.360  -1.544  26.724  1.00  0.00     0.002 C 
HETATM   28  C11 UNL     1      44.277  -2.934  26.207  1.00  0.00     0.000 C 
HETATM   29  C12 UNL     1      43.566  -3.918  27.071  1.00  0.00     0.002 C 
HETATM   30  C13 UNL     1      44.183  -3.841  28.463  1.00  0.00     0.025 C 
ENDBRANCH  22  25
ENDBRANCH  18  19
ENDBRANCH  17  18
ENDBRANCH   8  17
TORSDOF 6
ENDMDL
MODEL 5
REMARK VINA RESULT: -6.851685675      3.252      5.355
REMARK  6 active torsions:
REMARK  status: ('A' for Active; 'I' for Inactive)
REMARK    1  A    between atoms: C2_2  and  C14_28 
REMARK    2  A    between atoms: N1_3  and  N2_5 
REMARK       I    between atoms: N2_5  and  C3_7 
REMARK       I    between atoms: C3_7  and  N5_12 
REMARK    3  A    between atoms: N5_12  and  C5_14 
REMARK    4  A    between atoms: C5_14  and  C6_15 
REMARK    5  A    between atoms: C6_15  and  N6_16 
REMARK       I    between atoms: N6_16  and  C7_18 
REMARK       I    between atoms: C7_18  and  N7_20 
REMARK    6  A    between atoms: N7_20  and  C8_22 
ROOT
HETATM    1  N2  UNL     1      42.581  -5.029  29.066  1.00  0.00    -0.132 N 
ATOM      2  H2  UNL     1      41.706  -4.722  29.491  1.00  0.00     0.205 HD
HETATM    3  C3  UNL     1      43.321  -4.123  28.233  1.00  0.00     0.701 C 
HETATM    4  N3  UNL     1      43.494  -4.326  26.996  1.00  0.00    -0.125 N 
ATOM      5  H3  UNL     1      43.089  -5.167  26.584  1.00  0.00     0.197 HD
HETATM    6  C4  UNL     1      44.195  -3.479  26.181  1.00  0.00     0.196 C 
HETATM    7  N4  UNL     1      44.800  -2.776  25.480  1.00  0.00    -0.171 NA
HETATM    8  N5  UNL     1      43.866  -2.973  28.846  1.00  0.00    -0.223 N 
ATOM      9  H5  UNL     1      44.706  -3.040  29.421  1.00  0.00     0.177 HD
ENDROOT
BRANCH   1  10
HETATM   10  N1  UNL     1      43.041  -6.307  29.296  1.00  0.00    -0.295 N 
HETATM   11  C2  UNL     1      43.580  -6.779  30.334  1.00  0.00     0.004 C 
HETATM   12  C1  UNL     1      43.797  -5.943  31.531  1.00  0.00     0.065 C 
ATOM     13  H1  UNL     1      42.931  -6.961  28.521  1.00  0.00     0.186 HD
BRANCH  11  14
HETATM   14  C14 UNL     1      44.018  -8.192  30.362  1.00  0.00     0.032 A 
HETATM   15  C15 UNL     1      44.395  -8.836  31.690  1.00  0.00     0.011 A 
HETATM   16  C16 UNL     1      43.100  -9.195  31.070  1.00  0.00     0.011 A 
ENDBRANCH  11  14
ENDBRANCH   1  10
BRANCH   8  17
HETATM   17  C5  UNL     1      43.211  -1.697  28.646  1.00  0.00     0.158 C 
BRANCH  17  18
HETATM   18  C6  UNL     1      42.168  -1.550  29.704  1.00  0.00     0.144 C 
BRANCH  18  19
HETATM   19  N6  UNL     1      42.589  -0.615  30.699  1.00  0.00    -0.342 N 
HETATM   20  C7  UNL     1      43.370  -0.960  31.830  1.00  0.00     0.316 C 
HETATM   21  O1  UNL     1      43.711  -2.162  31.970  1.00  0.00    -0.247 OA
HETATM   22  N7  UNL     1      43.739   0.044  32.754  1.00  0.00    -0.339 N 
ATOM     23  H7  UNL     1      43.438   1.007  32.602  1.00  0.00     0.164 HD
ATOM     24  H6  UNL     1      42.310   0.359  30.589  1.00  0.00     0.164 HD
BRANCH  22  25
HETATM   25  C8  UNL     1      44.526  -0.277  33.897  1.00  0.00     0.086 C 
HETATM   26  C9  UNL     1      45.879   0.398  33.921  1.00  0.00     0.025 C 
HETATM   27  C10 UNL     1      46.673  -0.195  35.062  1.00  0.00     0.002 C 
HETATM   28  C11 UNL     1      45.923  -0.179  36.344  1.00  0.00     0.000 C 
HETATM   29  C12 UNL     1      44.506  -0.637  36.284  1.00  0.00     0.002 C 
HETATM   30  C13 UNL     1      43.810   0.153  35.183  1.00  0.00     0.025 C 
ENDBRANCH  22  25
ENDBRANCH  18  19
ENDBRANCH  17  18
ENDBRANCH   8  17
TORSDOF 6
ENDMDL
