MODEL 1
REMARK VINA RESULT: -6.707308229      0.000      0.000
REMARK  4 active torsions:
REMARK  status: ('A' for Active; 'I' for Inactive)
REMARK       I    between atoms: N1_5  and  C4_6 
REMARK       I    between atoms: C4_6  and  N2_8 
REMARK    1  A    between atoms: N2_8  and  C5_10 
REMARK    2  A    between atoms: C5_10  and  C6_11 
REMARK    3  A    between atoms: C5_10  and  C12_17 
REMARK    4  A    between atoms: C18_27  and  N5_28 
ROOT
HETATM    1  C1  UNL     1      42.314  -0.499  30.749  1.00  0.00     0.041 C 
HETATM    2  C2  UNL     1      42.608  -1.820  30.116  1.00  0.00     0.094 C 
HETATM    3 CL1  UNL     1      41.062  -2.692  29.912  1.00  0.00    -0.111 Cl
HETATM    4  C3  UNL     1      43.605  -2.642  30.907  1.00  0.00     0.159 C 
HETATM    5  N1  UNL     1      43.592  -3.970  30.319  1.00  0.00    -0.328 N 
HETATM    6  C4  UNL     1      43.391  -5.144  31.087  1.00  0.00     0.319 C 
HETATM    7  O1  UNL     1      43.221  -5.004  32.317  1.00  0.00    -0.247 OA
HETATM    8  N2  UNL     1      43.370  -6.437  30.555  1.00  0.00    -0.338 N 
ATOM      9  H2  UNL     1      43.508  -6.528  29.548  1.00  0.00     0.164 HD
HETATM   10  C15 UNL     1      43.799  -4.067  28.891  1.00  0.00     0.172 C 
HETATM   11  C16 UNL     1      43.762  -2.780  28.193  1.00  0.00     0.031 A 
HETATM   12  C17 UNL     1      43.189  -1.661  28.756  1.00  0.00     0.062 A 
HETATM   13  N3  UNL     1      43.307  -0.663  27.895  1.00  0.00    -0.301 N 
ATOM     14  H3  UNL     1      42.975   0.290  28.040  1.00  0.00     0.186 HD
HETATM   15  N4  UNL     1      43.922  -1.102  26.826  1.00  0.00    -0.285 N 
ATOM     16  H4  UNL     1      44.139  -0.531  26.009  1.00  0.00     0.188 HD
HETATM   17  C18 UNL     1      44.229  -2.401  26.950  1.00  0.00     0.123 A 
ENDROOT
BRANCH   8  18
HETATM   18  C5  UNL     1      43.166  -7.681  31.319  1.00  0.00     0.094 C 
BRANCH  18  19
HETATM   19  C6  UNL     1      44.383  -8.474  31.174  1.00  0.00     0.009 C 
HETATM   20  C7  UNL     1      45.369  -7.814  32.172  1.00  0.00     0.007 C 
HETATM   21  C8  UNL     1      46.585  -8.611  32.410  1.00  0.00     0.000 C 
HETATM   22  C9  UNL     1      46.782  -9.596  31.297  1.00  0.00     0.000 C 
HETATM   23  C10 UNL     1      45.665 -10.609  31.490  1.00  0.00     0.000 C 
HETATM   24  C11 UNL     1      44.308  -9.946  31.425  1.00  0.00     0.007 C 
ENDBRANCH  18  19
BRANCH  18  25
HETATM   25  C12 UNL     1      41.827  -8.116  31.034  1.00  0.00     0.009 A 
HETATM   26  C13 UNL     1      40.570  -7.381  31.053  1.00  0.00     0.007 A 
HETATM   27  C14 UNL     1      40.830  -8.336  32.163  1.00  0.00     0.007 A 
ENDBRANCH  18  25
ENDBRANCH   8  18
BRANCH  17  28
HETATM   28  N5  UNL     1      44.835  -3.101  26.059  1.00  0.00    -0.384 N 
ATOM     29  H52 UNL     1      45.161  -4.059  26.190  1.00  0.00     0.157 HD
ATOM     30  H51 UNL     1      45.094  -2.851  25.104  1.00  0.00     0.157 HD
ENDBRANCH  17  28
TORSDOF 4
ENDMDL
MODEL 2
REMARK VINA RESULT: -6.629060265      0.507      1.038
REMARK  4 active torsions:
REMARK  status: ('A' for Active; 'I' for Inactive)
REMARK       I    between atoms: N1_5  and  C4_6 
REMARK       I    between atoms: C4_6  and  N2_8 
REMARK    1  A    between atoms: N2_8  and  C5_10 
REMARK    2  A    between atoms: C5_10  and  C6_11 
REMARK    3  A    between atoms: C5_10  and  C12_17 
REMARK    4  A    between atoms: C18_27  and  N5_28 
ROOT
HETATM    1  C1  UNL     1      42.287  -0.522  30.782  1.00  0.00     0.041 C 
HETATM    2  C2  UNL     1      42.545  -1.884  30.224  1.00  0.00     0.094 C 
HETATM    3 CL1  UNL     1      40.974  -2.714  30.042  1.00  0.00    -0.111 Cl
HETATM    4  C3  UNL     1      43.503  -2.695  31.073  1.00  0.00     0.159 C 
HETATM    5  N1  UNL     1      43.453  -4.051  30.556  1.00  0.00    -0.328 N 
HETATM    6  C4  UNL     1      43.202  -5.175  31.382  1.00  0.00     0.319 C 
HETATM    7  O1  UNL     1      43.019  -4.965  32.599  1.00  0.00    -0.247 OA
HETATM    8  N2  UNL     1      43.144  -6.494  30.919  1.00  0.00    -0.338 N 
ATOM      9  H2  UNL     1      43.293  -6.642  29.920  1.00  0.00     0.164 HD
HETATM   10  C15 UNL     1      43.676  -4.231  29.139  1.00  0.00     0.172 C 
HETATM   11  C16 UNL     1      43.693  -2.983  28.373  1.00  0.00     0.031 A 
HETATM   12  C17 UNL     1      43.151  -1.816  28.867  1.00  0.00     0.062 A 
HETATM   13  N3  UNL     1      43.314  -0.870  27.956  1.00  0.00    -0.301 N 
ATOM     14  H3  UNL     1      43.012   0.100  28.046  1.00  0.00     0.186 HD
HETATM   15  N4  UNL     1      43.928  -1.386  26.922  1.00  0.00    -0.285 N 
ATOM     16  H4  UNL     1      44.176  -0.867  26.080  1.00  0.00     0.188 HD
HETATM   17  C18 UNL     1      44.189  -2.686  27.119  1.00  0.00     0.123 A 
ENDROOT
BRANCH   8  18
HETATM   18  C5  UNL     1      42.888  -7.688  31.744  1.00  0.00     0.094 C 
BRANCH  18  19
HETATM   19  C6  UNL     1      44.158  -8.395  31.874  1.00  0.00     0.009 C 
HETATM   20  C7  UNL     1      44.483  -8.831  30.423  1.00  0.00     0.007 C 
HETATM   21  C8  UNL     1      45.859  -9.327  30.253  1.00  0.00     0.000 C 
HETATM   22  C9  UNL     1      46.432  -9.725  31.580  1.00  0.00     0.000 C 
HETATM   23  C10 UNL     1      46.629  -8.410  32.314  1.00  0.00     0.000 C 
HETATM   24  C11 UNL     1      45.323  -7.665  32.463  1.00  0.00     0.007 C 
ENDBRANCH  18  19
BRANCH  18  25
HETATM   25  C12 UNL     1      41.647  -8.242  31.278  1.00  0.00     0.009 A 
HETATM   26  C13 UNL     1      40.393  -7.591  30.925  1.00  0.00     0.007 A 
HETATM   27  C14 UNL     1      40.446  -8.339  32.210  1.00  0.00     0.007 A 
ENDBRANCH  18  25
ENDBRANCH   8  18
BRANCH  17  28
HETATM   28  N5  UNL     1      44.784  -3.453  26.275  1.00  0.00    -0.384 N 
ATOM     29  H52 UNL     1      45.790  -3.615  26.243  1.00  0.00     0.157 HD
ATOM     30  H51 UNL     1      44.389  -4.014  25.520  1.00  0.00     0.157 HD
ENDBRANCH  17  28
TORSDOF 4
ENDMDL
MODEL 3
REMARK VINA RESULT: -6.551814553      2.249      7.024
REMARK  4 active torsions:
REMARK  status: ('A' for Active; 'I' for Inactive)
REMARK       I    between atoms: N1_5  and  C4_6 
REMARK       I    between atoms: C4_6  and  N2_8 
REMARK    1  A    between atoms: N2_8  and  C5_10 
REMARK    2  A    between atoms: C5_10  and  C6_11 
REMARK    3  A    between atoms: C5_10  and  C12_17 
REMARK    4  A    between atoms: C18_27  and  N5_28 
ROOT
HETATM    1  C1  UNL     1      40.777  -8.679  32.927  1.00  0.00     0.041 C 
HETATM    2  C2  UNL     1      41.832  -7.955  32.156  1.00  0.00     0.094 C 
HETATM    3 CL1  UNL     1      42.548  -6.716  33.226  1.00  0.00    -0.111 Cl
HETATM    4  C3  UNL     1      41.305  -7.339  30.875  1.00  0.00     0.159 C 
HETATM    5  N1  UNL     1      42.359  -6.472  30.379  1.00  0.00    -0.328 N 
HETATM    6  C4  UNL     1      42.138  -5.111  30.053  1.00  0.00     0.319 C 
HETATM    7  O1  UNL     1      40.983  -4.663  30.206  1.00  0.00    -0.247 OA
HETATM    8  N2  UNL     1      43.129  -4.246  29.576  1.00  0.00    -0.338 N 
ATOM      9  H2  UNL     1      44.067  -4.632  29.461  1.00  0.00     0.164 HD
HETATM   10  C15 UNL     1      43.675  -7.049  30.220  1.00  0.00     0.172 C 
HETATM   11  C16 UNL     1      43.818  -8.384  30.806  1.00  0.00     0.031 A 
HETATM   12  C17 UNL     1      42.940  -8.862  31.754  1.00  0.00     0.062 A 
HETATM   13  N3  UNL     1      43.324 -10.083  32.090  1.00  0.00    -0.301 N 
ATOM     14  H3  UNL     1      42.863 -10.685  32.771  1.00  0.00     0.186 HD
HETATM   15  N4  UNL     1      44.395 -10.389  31.402  1.00  0.00    -0.285 N 
ATOM     16  H4  UNL     1      44.893 -11.277  31.473  1.00  0.00     0.188 HD
HETATM   17  C18 UNL     1      44.749  -9.381  30.591  1.00  0.00     0.123 A 
ENDROOT
BRANCH   8  18
HETATM   18  C5  UNL     1      42.939  -2.827  29.223  1.00  0.00     0.094 C 
BRANCH  18  19
HETATM   19  C6  UNL     1      43.207  -2.705  27.794  1.00  0.00     0.009 C 
HETATM   20  C7  UNL     1      44.372  -1.685  27.727  1.00  0.00     0.007 C 
HETATM   21  C8  UNL     1      45.006  -1.604  26.400  1.00  0.00     0.000 C 
HETATM   22  C9  UNL     1      44.085  -2.156  25.354  1.00  0.00     0.000 C 
HETATM   23  C10 UNL     1      44.056  -3.649  25.629  1.00  0.00     0.000 C 
HETATM   24  C11 UNL     1      43.561  -3.939  27.027  1.00  0.00     0.007 C 
ENDBRANCH  18  19
BRANCH  18  25
HETATM   25  C12 UNL     1      43.554  -2.064  30.274  1.00  0.00     0.009 A 
HETATM   26  C13 UNL     1      43.401  -2.151  31.720  1.00  0.00     0.007 A 
HETATM   27  C14 UNL     1      42.761  -1.003  31.023  1.00  0.00     0.007 A 
ENDBRANCH  18  25
ENDBRANCH   8  18
BRANCH  17  28
HETATM   28  N5  UNL     1      45.759  -9.397  29.797  1.00  0.00    -0.384 N 
ATOM     29  H52 UNL     1      45.757  -9.790  28.857  1.00  0.00     0.157 HD
ATOM     30  H51 UNL     1      46.703  -9.039  29.945  1.00  0.00     0.157 HD
ENDBRANCH  17  28
TORSDOF 4
ENDMDL
MODEL 4
REMARK VINA RESULT: -6.540218693      0.952      1.437
REMARK  4 active torsions:
REMARK  status: ('A' for Active; 'I' for Inactive)
REMARK       I    between atoms: N1_5  and  C4_6 
REMARK       I    between atoms: C4_6  and  N2_8 
REMARK    1  A    between atoms: N2_8  and  C5_10 
REMARK    2  A    between atoms: C5_10  and  C6_11 
REMARK    3  A    between atoms: C5_10  and  C12_17 
REMARK    4  A    between atoms: C18_27  and  N5_28 
ROOT
HETATM    1  C1  UNL     1      42.463  -0.521  30.520  1.00  0.00     0.041 C 
HETATM    2  C2  UNL     1      42.553  -1.883  29.912  1.00  0.00     0.094 C 
HETATM    3 CL1  UNL     1      40.891  -2.489  29.663  1.00  0.00    -0.111 Cl
HETATM    4  C3  UNL     1      43.371  -2.847  30.748  1.00  0.00     0.159 C 
HETATM    5  N1  UNL     1      43.157  -4.164  30.175  1.00  0.00    -0.328 N 
HETATM    6  C4  UNL     1      42.736  -5.274  30.948  1.00  0.00     0.319 C 
HETATM    7  O1  UNL     1      42.550  -5.088  32.169  1.00  0.00    -0.247 OA
HETATM    8  N2  UNL     1      42.517  -6.555  30.430  1.00  0.00    -0.338 N 
ATOM      9  H2  UNL     1      42.671  -6.684  29.429  1.00  0.00     0.164 HD
HETATM   10  C15 UNL     1      43.391  -4.318  28.756  1.00  0.00     0.172 C 
HETATM   11  C16 UNL     1      43.594  -3.055  28.044  1.00  0.00     0.031 A 
HETATM   12  C17 UNL     1      43.198  -1.846  28.573  1.00  0.00     0.062 A 
HETATM   13  N3  UNL     1      43.511  -0.896  27.706  1.00  0.00    -0.301 N 
ATOM     14  H3  UNL     1      43.338   0.101  27.828  1.00  0.00     0.186 HD
HETATM   15  N4  UNL     1      44.079  -1.450  26.665  1.00  0.00    -0.285 N 
ATOM     16  H4  UNL     1      44.415  -0.937  25.850  1.00  0.00     0.188 HD
HETATM   17  C18 UNL     1      44.159  -2.780  26.813  1.00  0.00     0.123 A 
ENDROOT
BRANCH   8  18
HETATM   18  C5  UNL     1      42.082  -7.735  31.199  1.00  0.00     0.094 C 
BRANCH  18  19
HETATM   19  C6  UNL     1      43.235  -8.623  31.304  1.00  0.00     0.009 C 
HETATM   20  C7  UNL     1      42.635 -10.031  31.060  1.00  0.00     0.007 C 
HETATM   21  C8  UNL     1      43.652 -11.073  30.842  1.00  0.00     0.000 C 
HETATM   22  C9  UNL     1      44.978 -10.619  31.371  1.00  0.00     0.000 C 
HETATM   23  C10 UNL     1      45.406  -9.518  30.416  1.00  0.00     0.000 C 
HETATM   24  C11 UNL     1      44.395  -8.395  30.387  1.00  0.00     0.007 C 
ENDBRANCH  18  19
BRANCH  18  25
HETATM   25  C12 UNL     1      40.779  -8.083  30.703  1.00  0.00     0.009 A 
HETATM   26  C13 UNL     1      39.650  -7.240  30.338  1.00  0.00     0.007 A 
HETATM   27  C14 UNL     1      39.560  -8.003  31.612  1.00  0.00     0.007 A 
ENDBRANCH  18  25
ENDBRANCH   8  18
BRANCH  17  28
HETATM   28  N5  UNL     1      44.670  -3.587  25.952  1.00  0.00    -0.384 N 
ATOM     29  H52 UNL     1      44.204  -4.413  25.579  1.00  0.00     0.157 HD
ATOM     30  H51 UNL     1      45.585  -3.558  25.502  1.00  0.00     0.157 HD
ENDBRANCH  17  28
TORSDOF 4
ENDMDL
MODEL 5
REMARK VINA RESULT: -6.458587070      2.407      7.193
REMARK  4 active torsions:
REMARK  status: ('A' for Active; 'I' for Inactive)
REMARK       I    between atoms: N1_5  and  C4_6 
REMARK       I    between atoms: C4_6  and  N2_8 
REMARK    1  A    between atoms: N2_8  and  C5_10 
REMARK    2  A    between atoms: C5_10  and  C6_11 
REMARK    3  A    between atoms: C5_10  and  C12_17 
REMARK    4  A    between atoms: C18_27  and  N5_28 
ROOT
HETATM    1  C1  UNL     1      41.888  -9.831  32.779  1.00  0.00     0.041 C 
HETATM    2  C2  UNL     1      42.871  -8.862  32.208  1.00  0.00     0.094 C 
HETATM    3 CL1  UNL     1      43.268  -7.666  33.474  1.00  0.00    -0.111 Cl
HETATM    4  C3  UNL     1      42.366  -8.185  30.949  1.00  0.00     0.159 C 
HETATM    5  N1  UNL     1      43.298  -7.109  30.665  1.00  0.00    -0.328 N 
HETATM    6  C4  UNL     1      42.881  -5.770  30.462  1.00  0.00     0.319 C 
HETATM    7  O1  UNL     1      41.658  -5.532  30.535  1.00  0.00    -0.247 OA
HETATM    8  N2  UNL     1      43.751  -4.709  30.190  1.00  0.00    -0.338 N 
ATOM      9  H2  UNL     1      44.747  -4.926  30.138  1.00  0.00     0.164 HD
HETATM   10  C15 UNL     1      44.702  -7.449  30.590  1.00  0.00     0.172 C 
HETATM   11  C16 UNL     1      45.014  -8.806  31.044  1.00  0.00     0.031 A 
HETATM   12  C17 UNL     1      44.148  -9.528  31.835  1.00  0.00     0.062 A 
HETATM   13  N3  UNL     1      44.701 -10.705  32.081  1.00  0.00    -0.301 N 
ATOM     14  H3  UNL     1      44.288 -11.451  32.640  1.00  0.00     0.186 HD
HETATM   15  N4  UNL     1      45.865 -10.753  31.485  1.00  0.00    -0.285 N 
ATOM     16  H4  UNL     1      46.497 -11.553  31.516  1.00  0.00     0.188 HD
HETATM   17  C18 UNL     1      46.115  -9.611  30.829  1.00  0.00     0.123 A 
ENDROOT
BRANCH   8  18
HETATM   18  C5  UNL     1      43.358  -3.305  29.970  1.00  0.00     0.094 C 
BRANCH  18  19
HETATM   19  C6  UNL     1      43.944  -2.893  28.699  1.00  0.00     0.009 C 
HETATM   20  C7  UNL     1      43.426  -3.957  27.697  1.00  0.00     0.007 C 
HETATM   21  C8  UNL     1      43.659  -3.598  26.288  1.00  0.00     0.000 C 
HETATM   22  C9  UNL     1      44.733  -2.557  26.191  1.00  0.00     0.000 C 
HETATM   23  C10 UNL     1      44.094  -1.303  26.762  1.00  0.00     0.000 C 
HETATM   24  C11 UNL     1      43.643  -1.520  28.189  1.00  0.00     0.007 C 
ENDBRANCH  18  19
BRANCH  18  25
HETATM   25  C12 UNL     1      43.510  -2.641  31.235  1.00  0.00     0.009 A 
HETATM   26  C13 UNL     1      42.865  -2.887  32.517  1.00  0.00     0.007 A 
HETATM   27  C14 UNL     1      42.433  -1.692  31.744  1.00  0.00     0.007 A 
ENDBRANCH  18  25
ENDBRANCH   8  18
BRANCH  17  28
HETATM   28  N5  UNL     1      47.181  -9.370  30.152  1.00  0.00    -0.384 N 
ATOM     29  H52 UNL     1      47.235  -8.740  29.352  1.00  0.00     0.157 HD
ATOM     30  H51 UNL     1      48.124  -9.740  30.277  1.00  0.00     0.157 HD
ENDBRANCH  17  28
TORSDOF 4
ENDMDL
