MODEL 1
REMARK VINA RESULT: -7.721576109      0.000      0.000
REMARK  5 active torsions:
REMARK  status: ('A' for Active; 'I' for Inactive)
REMARK    1  A    between atoms: C1_4  and  N2_5 
REMARK    2  A    between atoms: C1_4  and  C17_26 
REMARK    3  A    between atoms: N2_5  and  C2_7 
REMARK    4  A    between atoms: C10_16  and  C11_17 
REMARK    5  A    between atoms: C11_17  and  C12_18 
ROOT
HETATM    1  C2  UNL     1      42.576  -1.650  29.738  1.00  0.00     0.099 C 
HETATM    2  C3  UNL     1      41.405  -2.403  29.037  1.00  0.00     0.013 C 
HETATM    3  C4  UNL     1      40.305  -2.041  30.004  1.00  0.00     0.012 C 
HETATM    4  C5  UNL     1      40.998  -2.218  31.335  1.00  0.00    -0.000 C 
HETATM    5  C6  UNL     1      40.614  -3.523  31.936  1.00  0.00     0.009 C 
HETATM    6  C7  UNL     1      41.708  -4.505  31.660  1.00  0.00     0.045 C 
HETATM    7  C8  UNL     1      42.525  -3.825  30.592  1.00  0.00     0.114 C 
HETATM    8  F1  UNL     1      43.790  -4.337  30.489  1.00  0.00    -0.242 F 
HETATM    9  C9  UNL     1      41.771  -3.817  29.279  1.00  0.00     0.051 C 
HETATM   10  C10 UNL     1      42.479  -2.376  31.018  1.00  0.00     0.022 C 
ENDROOT
BRANCH   1  11
HETATM   11  N2  UNL     1      43.784  -1.871  28.975  1.00  0.00    -0.369 N 
ATOM     12  H2  UNL     1      44.558  -2.389  29.392  1.00  0.00     0.161 HD
BRANCH  11  13
HETATM   13  C1  UNL     1      43.901  -1.380  27.665  1.00  0.00     0.122 C 
HETATM   14  N1  UNL     1      43.964  -0.108  27.483  1.00  0.00    -0.384 N 
ATOM     15  H12 UNL     1      43.925   0.479  28.316  1.00  0.00     0.157 HD
ATOM     16  H11 UNL     1      44.049   0.249  26.532  1.00  0.00     0.157 HD
BRANCH  13  17
HETATM   17  C17 UNL     1      43.957  -2.219  26.473  1.00  0.00     0.075 A 
HETATM   18  C18 UNL     1      44.011  -3.595  26.399  1.00  0.00     0.035 A 
HETATM   19  C19 UNL     1      44.052  -3.958  25.054  1.00  0.00     0.019 A 
HETATM   20  C20 UNL     1      44.022  -2.789  24.329  1.00  0.00     0.088 A 
HETATM   21  N4  UNL     1      43.965  -1.777  25.205  1.00  0.00    -0.363 N 
ATOM     22  H4  UNL     1      43.932  -0.792  24.941  1.00  0.00     0.165 HD
ENDBRANCH  13  17
ENDBRANCH  11  13
ENDBRANCH   1  11
BRANCH  10  23
HETATM   23  C11 UNL     1      43.355  -2.117  32.138  1.00  0.00     0.040 C 
BRANCH  23  24
HETATM   24  C12 UNL     1      43.623  -0.768  32.637  1.00  0.00     0.085 C 
HETATM   25  C13 UNL     1      43.343  -0.804  34.156  1.00  0.00     0.026 C 
HETATM   26  C14 UNL     1      43.783   0.436  34.836  1.00  0.00     0.011 C 
HETATM   27  C15 UNL     1      44.316   1.523  33.966  1.00  0.00     0.103 C 
HETATM   28  C16 UNL     1      45.281   0.960  33.023  1.00  0.00     0.217 C 
HETATM   29  O1  UNL     1      46.327   1.532  32.659  1.00  0.00    -0.274 OA
HETATM   30  N3  UNL     1      44.993  -0.345  32.483  1.00  0.00    -0.356 N 
ATOM     31  H3  UNL     1      45.700  -0.922  32.028  1.00  0.00     0.162 HD
ENDBRANCH  23  24
ENDBRANCH  10  23
TORSDOF 5
ENDMDL
MODEL 2
REMARK VINA RESULT: -7.414057479      0.969      1.122
REMARK  5 active torsions:
REMARK  status: ('A' for Active; 'I' for Inactive)
REMARK    1  A    between atoms: C1_4  and  N2_5 
REMARK    2  A    between atoms: C1_4  and  C17_26 
REMARK    3  A    between atoms: N2_5  and  C2_7 
REMARK    4  A    between atoms: C10_16  and  C11_17 
REMARK    5  A    between atoms: C11_17  and  C12_18 
ROOT
HETATM    1  C2  UNL     1      42.537  -2.245  29.590  1.00  0.00     0.099 C 
HETATM    2  C3  UNL     1      41.530  -3.211  28.895  1.00  0.00     0.013 C 
HETATM    3  C4  UNL     1      40.353  -2.992  29.813  1.00  0.00     0.012 C 
HETATM    4  C5  UNL     1      41.018  -2.993  31.169  1.00  0.00    -0.000 C 
HETATM    5  C6  UNL     1      40.831  -4.315  31.825  1.00  0.00     0.009 C 
HETATM    6  C7  UNL     1      42.080  -5.114  31.628  1.00  0.00     0.045 C 
HETATM    7  C8  UNL     1      42.812  -4.357  30.551  1.00  0.00     0.114 C 
HETATM    8  F1  UNL     1      44.147  -4.658  30.508  1.00  0.00    -0.242 F 
HETATM    9  C9  UNL     1      42.113  -4.533  29.218  1.00  0.00     0.051 C 
HETATM   10  C10 UNL     1      42.515  -2.918  30.902  1.00  0.00     0.022 C 
ENDROOT
BRANCH   1  11
HETATM   11  N2  UNL     1      43.791  -2.298  28.872  1.00  0.00    -0.369 N 
ATOM     12  H2  UNL     1      44.598  -2.755  29.297  1.00  0.00     0.161 HD
BRANCH  11  13
HETATM   13  C1  UNL     1      43.908  -1.725  27.595  1.00  0.00     0.122 C 
HETATM   14  N1  UNL     1      43.964  -0.444  27.493  1.00  0.00    -0.384 N 
ATOM     15  H12 UNL     1      43.920   0.090  28.361  1.00  0.00     0.157 HD
ATOM     16  H11 UNL     1      44.049  -0.028  26.566  1.00  0.00     0.157 HD
BRANCH  13  17
HETATM   17  C17 UNL     1      43.971  -2.488  26.354  1.00  0.00     0.075 A 
HETATM   18  C18 UNL     1      44.018  -2.012  25.061  1.00  0.00     0.035 A 
HETATM   19  C19 UNL     1      44.068  -3.105  24.196  1.00  0.00     0.019 A 
HETATM   20  C20 UNL     1      44.050  -4.232  24.984  1.00  0.00     0.088 A 
HETATM   21  N4  UNL     1      43.992  -3.828  26.260  1.00  0.00    -0.363 N 
ATOM     22  H4  UNL     1      43.968  -4.459  27.060  1.00  0.00     0.165 HD
ENDBRANCH  13  17
ENDBRANCH  11  13
ENDBRANCH   1  11
BRANCH  10  23
HETATM   23  C11 UNL     1      43.297  -2.468  32.031  1.00  0.00     0.040 C 
BRANCH  23  24
HETATM   24  C12 UNL     1      43.016  -1.219  32.740  1.00  0.00     0.085 C 
HETATM   25  C13 UNL     1      43.166  -1.533  34.245  1.00  0.00     0.026 C 
HETATM   26  C14 UNL     1      43.127  -0.308  35.078  1.00  0.00     0.011 C 
HETATM   27  C15 UNL     1      42.859   0.975  34.368  1.00  0.00     0.103 C 
HETATM   28  C16 UNL     1      43.712   1.061  33.184  1.00  0.00     0.217 C 
HETATM   29  O1  UNL     1      44.245   2.111  32.773  1.00  0.00    -0.274 OA
HETATM   30  N3  UNL     1      43.944  -0.155  32.448  1.00  0.00    -0.356 N 
ATOM     31  H3  UNL     1      44.704  -0.256  31.775  1.00  0.00     0.162 HD
ENDBRANCH  23  24
ENDBRANCH  10  23
TORSDOF 5
ENDMDL
MODEL 3
REMARK VINA RESULT: -7.410685831      1.259      1.582
REMARK  5 active torsions:
REMARK  status: ('A' for Active; 'I' for Inactive)
REMARK    1  A    between atoms: C1_4  and  N2_5 
REMARK    2  A    between atoms: C1_4  and  C17_26 
REMARK    3  A    between atoms: N2_5  and  C2_7 
REMARK    4  A    between atoms: C10_16  and  C11_17 
REMARK    5  A    between atoms: C11_17  and  C12_18 
ROOT
HETATM    1  C2  UNL     1      41.690  -1.322  29.878  1.00  0.00     0.099 C 
HETATM    2  C3  UNL     1      40.138  -1.380  29.740  1.00  0.00     0.013 C 
HETATM    3  C4  UNL     1      39.794  -0.263  30.694  1.00  0.00     0.012 C 
HETATM    4  C5  UNL     1      40.741  -0.537  31.839  1.00  0.00    -0.000 C 
HETATM    5  C6  UNL     1      40.018  -1.226  32.942  1.00  0.00     0.009 C 
HETATM    6  C7  UNL     1      40.306  -2.690  32.845  1.00  0.00     0.045 C 
HETATM    7  C8  UNL     1      40.898  -2.840  31.468  1.00  0.00     0.114 C 
HETATM    8  F1  UNL     1      41.613  -3.998  31.324  1.00  0.00    -0.242 F 
HETATM    9  C9  UNL     1      39.825  -2.661  30.414  1.00  0.00     0.051 C 
HETATM   10  C10 UNL     1      41.724  -1.582  31.328  1.00  0.00     0.022 C 
ENDROOT
BRANCH   1  11
HETATM   11  N2  UNL     1      42.262  -2.349  29.036  1.00  0.00    -0.369 N 
ATOM     12  H2  UNL     1      41.813  -3.263  28.977  1.00  0.00     0.161 HD
BRANCH  11  13
HETATM   13  C1  UNL     1      43.431  -2.099  28.299  1.00  0.00     0.122 C 
HETATM   14  N1  UNL     1      44.363  -1.392  28.835  1.00  0.00    -0.384 N 
ATOM     15  H12 UNL     1      44.194  -1.049  29.781  1.00  0.00     0.157 HD
ATOM     16  H11 UNL     1      45.211  -1.210  28.300  1.00  0.00     0.157 HD
BRANCH  13  17
HETATM   17  C17 UNL     1      43.672  -2.589  26.947  1.00  0.00     0.075 A 
HETATM   18  C18 UNL     1      43.996  -1.863  25.821  1.00  0.00     0.035 A 
HETATM   19  C19 UNL     1      44.130  -2.750  24.754  1.00  0.00     0.019 A 
HETATM   20  C20 UNL     1      43.883  -4.007  25.253  1.00  0.00     0.088 A 
HETATM   21  N4  UNL     1      43.615  -3.874  26.559  1.00  0.00    -0.363 N 
ATOM     22  H4  UNL     1      43.394  -4.651  27.181  1.00  0.00     0.165 HD
ENDBRANCH  13  17
ENDBRANCH  11  13
ENDBRANCH   1  11
BRANCH  10  23
HETATM   23  C11 UNL     1      42.953  -1.660  32.085  1.00  0.00     0.040 C 
BRANCH  23  24
HETATM   24  C12 UNL     1      43.524  -0.509  32.786  1.00  0.00     0.085 C 
HETATM   25  C13 UNL     1      43.585  -0.898  34.280  1.00  0.00     0.026 C 
HETATM   26  C14 UNL     1      44.347   0.086  35.083  1.00  0.00     0.011 C 
HETATM   27  C15 UNL     1      44.830   1.302  34.369  1.00  0.00     0.103 C 
HETATM   28  C16 UNL     1      45.467   0.905  33.113  1.00  0.00     0.217 C 
HETATM   29  O1  UNL     1      46.480   1.450  32.633  1.00  0.00    -0.274 OA
HETATM   30  N3  UNL     1      44.873  -0.190  32.389  1.00  0.00    -0.356 N 
ATOM     31  H3  UNL     1      45.367  -0.699  31.656  1.00  0.00     0.162 HD
ENDBRANCH  23  24
ENDBRANCH  10  23
TORSDOF 5
ENDMDL
MODEL 4
REMARK VINA RESULT: -7.221938991      2.583      4.240
REMARK  5 active torsions:
REMARK  status: ('A' for Active; 'I' for Inactive)
REMARK    1  A    between atoms: C1_4  and  N2_5 
REMARK    2  A    between atoms: C1_4  and  C17_26 
REMARK    3  A    between atoms: N2_5  and  C2_7 
REMARK    4  A    between atoms: C10_16  and  C11_17 
REMARK    5  A    between atoms: C11_17  and  C12_18 
ROOT
HETATM    1  C2  UNL     1      42.995  -1.612  29.831  1.00  0.00     0.099 C 
HETATM    2  C3  UNL     1      42.140  -0.575  30.623  1.00  0.00     0.013 C 
HETATM    3  C4  UNL     1      42.396  -1.101  32.013  1.00  0.00     0.012 C 
HETATM    4  C5  UNL     1      42.278  -2.593  31.802  1.00  0.00    -0.000 C 
HETATM    5  C6  UNL     1      40.940  -3.064  32.252  1.00  0.00     0.009 C 
HETATM    6  C7  UNL     1      40.065  -3.202  31.048  1.00  0.00     0.045 C 
HETATM    7  C8  UNL     1      40.821  -2.457  29.979  1.00  0.00     0.114 C 
HETATM    8  F1  UNL     1      40.427  -2.804  28.715  1.00  0.00    -0.242 F 
HETATM    9  C9  UNL     1      40.765  -0.966  30.239  1.00  0.00     0.051 C 
HETATM   10  C10 UNL     1      42.258  -2.803  30.294  1.00  0.00     0.022 C 
ENDROOT
BRANCH   1  11
HETATM   11  N2  UNL     1      42.889  -1.311  28.421  1.00  0.00    -0.369 N 
ATOM     12  H2  UNL     1      42.005  -0.971  28.042  1.00  0.00     0.161 HD
BRANCH  11  13
HETATM   13  C1  UNL     1      43.992  -1.483  27.569  1.00  0.00     0.122 C 
HETATM   14  N1  UNL     1      45.092  -0.879  27.851  1.00  0.00    -0.384 N 
ATOM     15  H12 UNL     1      45.099  -0.303  28.692  1.00  0.00     0.157 HD
ATOM     16  H11 UNL     1      45.893  -1.003  27.232  1.00  0.00     0.157 HD
BRANCH  13  17
HETATM   17  C17 UNL     1      43.981  -2.307  26.366  1.00  0.00     0.075 A 
HETATM   18  C18 UNL     1      43.997  -3.683  26.274  1.00  0.00     0.035 A 
HETATM   19  C19 UNL     1      43.980  -4.029  24.923  1.00  0.00     0.019 A 
HETATM   20  C20 UNL     1      43.954  -2.851  24.215  1.00  0.00     0.088 A 
HETATM   21  N4  UNL     1      43.955  -1.849  25.104  1.00  0.00    -0.363 N 
ATOM     22  H4  UNL     1      43.939  -0.860  24.854  1.00  0.00     0.165 HD
ENDBRANCH  13  17
ENDBRANCH  11  13
ENDBRANCH   1  11
BRANCH  10  23
HETATM   23  C11 UNL     1      42.591  -4.146  29.879  1.00  0.00     0.040 C 
BRANCH  23  24
HETATM   24  C12 UNL     1      42.996  -5.188  30.823  1.00  0.00     0.085 C 
HETATM   25  C13 UNL     1      42.087  -6.404  30.541  1.00  0.00     0.026 C 
HETATM   26  C14 UNL     1      42.528  -7.614  31.272  1.00  0.00     0.011 C 
HETATM   27  C15 UNL     1      43.677  -7.449  32.207  1.00  0.00     0.103 C 
HETATM   28  C16 UNL     1      44.745  -6.709  31.536  1.00  0.00     0.217 C 
HETATM   29  O1  UNL     1      45.962  -6.939  31.682  1.00  0.00    -0.274 OA
HETATM   30  N3  UNL     1      44.354  -5.642  30.650  1.00  0.00    -0.356 N 
ATOM     31  H3  UNL     1      44.985  -5.241  29.958  1.00  0.00     0.162 HD
ENDBRANCH  23  24
ENDBRANCH  10  23
TORSDOF 5
ENDMDL
MODEL 5
REMARK VINA RESULT: -7.146599317      1.412      1.934
REMARK  5 active torsions:
REMARK  status: ('A' for Active; 'I' for Inactive)
REMARK    1  A    between atoms: C1_4  and  N2_5 
REMARK    2  A    between atoms: C1_4  and  C17_26 
REMARK    3  A    between atoms: N2_5  and  C2_7 
REMARK    4  A    between atoms: C10_16  and  C11_17 
REMARK    5  A    between atoms: C11_17  and  C12_18 
ROOT
HETATM    1  C2  UNL     1      42.366  -2.283  30.115  1.00  0.00     0.099 C 
HETATM    2  C3  UNL     1      40.882  -2.294  29.636  1.00  0.00     0.013 C 
HETATM    3  C4  UNL     1      40.506  -0.898  30.067  1.00  0.00     0.012 C 
HETATM    4  C5  UNL     1      41.151  -0.815  31.431  1.00  0.00    -0.000 C 
HETATM    5  C6  UNL     1      40.130  -1.036  32.490  1.00  0.00     0.009 C 
HETATM    6  C7  UNL     1      40.228  -2.458  32.943  1.00  0.00     0.045 C 
HETATM    7  C8  UNL     1      41.065  -3.109  31.872  1.00  0.00     0.114 C 
HETATM    8  F1  UNL     1      41.630  -4.285  32.285  1.00  0.00    -0.242 F 
HETATM    9  C9  UNL     1      40.266  -3.242  30.592  1.00  0.00     0.051 C 
HETATM   10  C10 UNL     1      42.066  -2.028  31.536  1.00  0.00     0.022 C 
ENDROOT
BRANCH   1  11
HETATM   11  N2  UNL     1      42.954  -3.569  29.814  1.00  0.00    -0.369 N 
ATOM     12  H2  UNL     1      43.398  -4.109  30.557  1.00  0.00     0.161 HD
BRANCH  11  13
HETATM   13  C1  UNL     1      42.917  -4.082  28.507  1.00  0.00     0.122 C 
HETATM   14  N1  UNL     1      42.277  -5.176  28.288  1.00  0.00    -0.384 N 
ATOM     15  H12 UNL     1      41.825  -5.613  29.090  1.00  0.00     0.157 HD
ATOM     16  H11 UNL     1      42.251  -5.549  27.339  1.00  0.00     0.157 HD
BRANCH  13  17
HETATM   17  C17 UNL     1      43.565  -3.456  27.359  1.00  0.00     0.075 A 
HETATM   18  C18 UNL     1      44.244  -2.258  27.311  1.00  0.00     0.035 A 
HETATM   19  C19 UNL     1      44.692  -2.063  26.005  1.00  0.00     0.019 A 
HETATM   20  C20 UNL     1      44.274  -3.154  25.278  1.00  0.00     0.088 A 
HETATM   21  N4  UNL     1      43.607  -3.960  26.115  1.00  0.00    -0.363 N 
ATOM     22  H4  UNL     1      43.185  -4.847  25.841  1.00  0.00     0.165 HD
ENDBRANCH  13  17
ENDBRANCH  11  13
ENDBRANCH   1  11
BRANCH  10  23
HETATM   23  C11 UNL     1      43.090  -1.911  32.549  1.00  0.00     0.040 C 
BRANCH  23  24
HETATM   24  C12 UNL     1      43.574  -0.620  33.039  1.00  0.00     0.085 C 
HETATM   25  C13 UNL     1      43.647  -0.740  34.577  1.00  0.00     0.026 C 
HETATM   26  C14 UNL     1      44.332   0.418  35.197  1.00  0.00     0.011 C 
HETATM   27  C15 UNL     1      44.737   1.523  34.282  1.00  0.00     0.103 C 
HETATM   28  C16 UNL     1      45.411   0.961  33.113  1.00  0.00     0.217 C 
HETATM   29  O1  UNL     1      46.390   1.485  32.543  1.00  0.00    -0.274 OA
HETATM   30  N3  UNL     1      44.902  -0.281  32.590  1.00  0.00    -0.356 N 
ATOM     31  H3  UNL     1      45.436  -0.872  31.955  1.00  0.00     0.162 HD
ENDBRANCH  23  24
ENDBRANCH  10  23
TORSDOF 5
ENDMDL
