MODEL 1
REMARK VINA RESULT: -7.093515638      0.000      0.000
REMARK  6 active torsions:
REMARK  status: ('A' for Active; 'I' for Inactive)
REMARK    1  A    between atoms: N1_2  and  C2_4 
REMARK    2  A    between atoms: C2_4  and  N2_6 
REMARK    3  A    between atoms: N2_6  and  C3_8 
REMARK    4  A    between atoms: C5_10  and  N3_11 
REMARK       I    between atoms: N3_11  and  C6_13 
REMARK       I    between atoms: C6_13  and  N5_19 
REMARK    5  A    between atoms: N4_14  and  C7_16 
REMARK    6  A    between atoms: N5_19  and  C10_21 
ROOT
HETATM    1  N3  UNL     1      42.771  -0.402  29.753  1.00  0.00    -0.177 N 
ATOM      2  H3  UNL     1      43.458   0.340  29.882  1.00  0.00     0.185 HD
HETATM    3  C6  UNL     1      41.618  -0.387  30.589  1.00  0.00     0.676 C 
HETATM    4  N4  UNL     1      41.813  -0.612  31.823  1.00  0.00    -0.222 N 
ATOM      5  H4  UNL     1      40.978  -0.597  32.409  1.00  0.00     0.178 HD
HETATM    6  N5  UNL     1      40.315  -0.130  30.075  1.00  0.00    -0.222 N 
ATOM      7  H5  UNL     1      40.259   0.420  29.218  1.00  0.00     0.178 HD
ENDROOT
BRANCH   1   8
HETATM    8  C5  UNL     1      43.003  -1.268  28.865  1.00  0.00     0.123 A 
HETATM    9  C4  UNL     1      42.640  -2.603  29.075  1.00  0.00     0.082 A 
HETATM   10  C3  UNL     1      42.855  -3.607  28.167  1.00  0.00     0.078 A 
HETATM   11  C17 UNL     1      43.482  -3.184  26.977  1.00  0.00     0.158 A 
HETATM   12  C16 UNL     1      43.838  -1.873  26.770  1.00  0.00     0.134 A 
HETATM   13  F1  UNL     1      43.738  -4.122  26.019  1.00  0.00    -0.202 F 
HETATM   14  N6  UNL     1      43.595  -0.936  27.712  1.00  0.00    -0.349 N 
ATOM     15  H6  UNL     1      43.865   0.033  27.543  1.00  0.00     0.167 HD
BRANCH  10  16
HETATM   16  N2  UNL     1      42.486  -4.955  28.287  1.00  0.00    -0.331 N 
ATOM     17  H2  UNL     1      42.597  -5.469  27.413  1.00  0.00     0.168 HD
BRANCH  16  18
HETATM   18  C2  UNL     1      42.011  -5.747  29.308  1.00  0.00     0.171 C 
HETATM   19  S1  UNL     1      43.199  -6.493  30.243  1.00  0.00    -0.041 SA
BRANCH  18  20
HETATM   20  N1  UNL     1      40.700  -6.018  29.675  1.00  0.00    -0.371 N 
HETATM   21  C1  UNL     1      40.161  -5.423  30.929  1.00  0.00     0.148 C 
ATOM     22  H1  UNL     1      40.113  -6.616  29.093  1.00  0.00     0.161 HD
ENDBRANCH  18  20
ENDBRANCH  16  18
ENDBRANCH  10  16
ENDBRANCH   1   8
BRANCH   4  23
HETATM   23  C7  UNL     1      43.034  -0.883  32.503  1.00  0.00     0.091 C 
HETATM   24  C8  UNL     1      42.935  -2.077  33.436  1.00  0.00     0.032 C 
HETATM   25  C9  UNL     1      43.641   0.301  33.205  1.00  0.00     0.032 C 
ENDBRANCH   4  23
BRANCH   6  26
HETATM   26  C10 UNL     1      39.083  -0.567  30.643  1.00  0.00     0.099 C 
HETATM   27  C11 UNL     1      38.655   0.453  31.710  1.00  0.00     0.026 C 
HETATM   28  C12 UNL     1      37.267   0.206  32.201  1.00  0.00     0.002 C 
HETATM   29  C13 UNL     1      37.252  -1.156  32.860  1.00  0.00     0.000 C 
HETATM   30  C14 UNL     1      37.786  -2.197  31.941  1.00  0.00     0.002 C 
HETATM   31  C15 UNL     1      39.157  -1.885  31.378  1.00  0.00     0.026 C 
ENDBRANCH   6  26
TORSDOF 6
ENDMDL
MODEL 2
REMARK VINA RESULT: -6.749430837      2.996      6.512
REMARK  6 active torsions:
REMARK  status: ('A' for Active; 'I' for Inactive)
REMARK    1  A    between atoms: N1_2  and  C2_4 
REMARK    2  A    between atoms: C2_4  and  N2_6 
REMARK    3  A    between atoms: N2_6  and  C3_8 
REMARK    4  A    between atoms: C5_10  and  N3_11 
REMARK       I    between atoms: N3_11  and  C6_13 
REMARK       I    between atoms: C6_13  and  N5_19 
REMARK    5  A    between atoms: N4_14  and  C7_16 
REMARK    6  A    between atoms: N5_19  and  C10_21 
ROOT
HETATM    1  N3  UNL     1      41.298  -5.933  29.726  1.00  0.00    -0.177 N 
ATOM      2  H3  UNL     1      41.286  -6.940  29.887  1.00  0.00     0.185 HD
HETATM    3  C6  UNL     1      42.501  -5.359  29.223  1.00  0.00     0.676 C 
HETATM    4  N4  UNL     1      43.501  -5.372  30.004  1.00  0.00    -0.222 N 
ATOM      5  H4  UNL     1      44.355  -4.958  29.629  1.00  0.00     0.178 HD
HETATM    6  N5  UNL     1      42.583  -4.804  27.915  1.00  0.00    -0.222 N 
ATOM      7  H5  UNL     1      41.929  -5.164  27.220  1.00  0.00     0.178 HD
ENDROOT
BRANCH   1   8
HETATM    8  C5  UNL     1      40.247  -5.286  29.988  1.00  0.00     0.123 A 
HETATM    9  C4  UNL     1      40.327  -4.057  30.652  1.00  0.00     0.082 A 
HETATM   10  C3  UNL     1      39.240  -3.289  30.976  1.00  0.00     0.078 A 
HETATM   11  C17 UNL     1      38.005  -3.841  30.580  1.00  0.00     0.158 A 
HETATM   12  C16 UNL     1      37.926  -5.048  29.927  1.00  0.00     0.134 A 
HETATM   13  F1  UNL     1      36.868  -3.143  30.868  1.00  0.00    -0.202 F 
HETATM   14  N6  UNL     1      39.042  -5.752  29.640  1.00  0.00    -0.349 N 
ATOM     15  H6  UNL     1      38.966  -6.645  29.155  1.00  0.00     0.167 HD
BRANCH  10  16
HETATM   16  N2  UNL     1      39.242  -2.034  31.603  1.00  0.00    -0.331 N 
ATOM     17  H2  UNL     1      38.989  -2.091  32.590  1.00  0.00     0.168 HD
BRANCH  16  18
HETATM   18  C2  UNL     1      39.504  -0.744  31.200  1.00  0.00     0.171 C 
HETATM   19  S1  UNL     1      38.450   0.422  31.812  1.00  0.00    -0.041 SA
BRANCH  18  20
HETATM   20  N1  UNL     1      40.507  -0.268  30.367  1.00  0.00    -0.371 N 
HETATM   21  C1  UNL     1      41.930  -0.489  30.748  1.00  0.00     0.148 C 
ATOM     22  H1  UNL     1      40.273   0.225  29.505  1.00  0.00     0.161 HD
ENDBRANCH  18  20
ENDBRANCH  16  18
ENDBRANCH  10  16
ENDBRANCH   1   8
BRANCH   4  23
HETATM   23  C7  UNL     1      43.598  -5.883  31.329  1.00  0.00     0.091 C 
HETATM   24  C8  UNL     1      43.414  -4.809  32.388  1.00  0.00     0.032 C 
HETATM   25  C9  UNL     1      44.829  -6.703  31.601  1.00  0.00     0.032 C 
ENDBRANCH   4  23
BRANCH   6  26
HETATM   26  C10 UNL     1      43.490  -3.793  27.483  1.00  0.00     0.099 C 
HETATM   27  C11 UNL     1      42.930  -2.427  27.913  1.00  0.00     0.026 C 
HETATM   28  C12 UNL     1      43.915  -1.325  27.709  1.00  0.00     0.002 C 
HETATM   29  C13 UNL     1      44.203  -1.238  26.225  1.00  0.00     0.000 C 
HETATM   30  C14 UNL     1      44.622  -2.560  25.688  1.00  0.00     0.002 C 
HETATM   31  C15 UNL     1      43.655  -3.687  25.985  1.00  0.00     0.026 C 
ENDBRANCH   6  26
TORSDOF 6
ENDMDL
MODEL 3
REMARK VINA RESULT: -6.547690083      2.977      6.540
REMARK  6 active torsions:
REMARK  status: ('A' for Active; 'I' for Inactive)
REMARK    1  A    between atoms: N1_2  and  C2_4 
REMARK    2  A    between atoms: C2_4  and  N2_6 
REMARK    3  A    between atoms: N2_6  and  C3_8 
REMARK    4  A    between atoms: C5_10  and  N3_11 
REMARK       I    between atoms: N3_11  and  C6_13 
REMARK       I    between atoms: C6_13  and  N5_19 
REMARK    5  A    between atoms: N4_14  and  C7_16 
REMARK    6  A    between atoms: N5_19  and  C10_21 
ROOT
HETATM    1  N3  UNL     1      42.117  -5.426  28.595  1.00  0.00    -0.177 N 
ATOM      2  H3  UNL     1      41.463  -5.870  27.951  1.00  0.00     0.185 HD
HETATM    3  C6  UNL     1      42.389  -6.091  29.824  1.00  0.00     0.676 C 
HETATM    4  N4  UNL     1      41.430  -6.160  30.652  1.00  0.00    -0.222 N 
ATOM      5  H4  UNL     1      41.640  -6.640  31.528  1.00  0.00     0.178 HD
HETATM    6  N5  UNL     1      43.665  -6.653  30.113  1.00  0.00    -0.222 N 
ATOM      7  H5  UNL     1      44.239  -6.925  29.315  1.00  0.00     0.178 HD
ENDROOT
BRANCH   1   8
HETATM    8  C5  UNL     1      42.627  -4.326  28.244  1.00  0.00     0.123 A 
HETATM    9  C4  UNL     1      42.359  -3.164  28.976  1.00  0.00     0.082 A 
HETATM   10  C3  UNL     1      42.868  -1.930  28.667  1.00  0.00     0.078 A 
HETATM   11  C17 UNL     1      43.703  -1.917  27.531  1.00  0.00     0.158 A 
HETATM   12  C16 UNL     1      43.966  -3.059  26.813  1.00  0.00     0.134 A 
HETATM   13  F1  UNL     1      44.249  -0.727  27.150  1.00  0.00    -0.202 F 
HETATM   14  N6  UNL     1      43.428  -4.243  27.177  1.00  0.00    -0.349 N 
ATOM     15  H6  UNL     1      43.634  -5.081  26.632  1.00  0.00     0.167 HD
BRANCH  10  16
HETATM   16  N2  UNL     1      42.678  -0.731  29.371  1.00  0.00    -0.331 N 
ATOM     17  H2  UNL     1      42.897   0.091  28.809  1.00  0.00     0.168 HD
BRANCH  16  18
HETATM   18  C2  UNL     1      42.264  -0.404  30.643  1.00  0.00     0.171 C 
HETATM   19  S1  UNL     1      40.606  -0.550  30.913  1.00  0.00    -0.041 SA
BRANCH  18  20
HETATM   20  N1  UNL     1      43.014   0.028  31.729  1.00  0.00    -0.371 N 
HETATM   21  C1  UNL     1      43.970  -0.917  32.370  1.00  0.00     0.148 C 
ATOM     22  H1  UNL     1      42.911   0.979  32.084  1.00  0.00     0.161 HD
ENDBRANCH  18  20
ENDBRANCH  16  18
ENDBRANCH  10  16
ENDBRANCH   1   8
BRANCH   4  23
HETATM   23  C7  UNL     1      40.102  -5.662  30.530  1.00  0.00     0.091 C 
HETATM   24  C8  UNL     1      39.833  -4.477  31.440  1.00  0.00     0.032 C 
HETATM   25  C9  UNL     1      39.023  -6.701  30.665  1.00  0.00     0.032 C 
ENDBRANCH   4  23
BRANCH   6  26
HETATM   26  C10 UNL     1      44.217  -6.870  31.409  1.00  0.00     0.099 C 
HETATM   27  C11 UNL     1      45.558  -7.604  31.245  1.00  0.00     0.026 C 
HETATM   28  C12 UNL     1      46.322  -7.676  32.525  1.00  0.00     0.002 C 
HETATM   29  C13 UNL     1      45.495  -8.480  33.505  1.00  0.00     0.000 C 
HETATM   30  C14 UNL     1      44.122  -7.921  33.625  1.00  0.00     0.002 C 
HETATM   31  C15 UNL     1      43.395  -7.767  32.305  1.00  0.00     0.026 C 
ENDBRANCH   6  26
TORSDOF 6
ENDMDL
MODEL 4
REMARK VINA RESULT: -6.529269469      4.032      7.609
REMARK  6 active torsions:
REMARK  status: ('A' for Active; 'I' for Inactive)
REMARK    1  A    between atoms: N1_2  and  C2_4 
REMARK    2  A    between atoms: C2_4  and  N2_6 
REMARK    3  A    between atoms: N2_6  and  C3_8 
REMARK    4  A    between atoms: C5_10  and  N3_11 
REMARK       I    between atoms: N3_11  and  C6_13 
REMARK       I    between atoms: C6_13  and  N5_19 
REMARK    5  A    between atoms: N4_14  and  C7_16 
REMARK    6  A    between atoms: N5_19  and  C10_21 
ROOT
HETATM    1  N3  UNL     1      41.974  -0.551  31.596  1.00  0.00    -0.177 N 
ATOM      2  H3  UNL     1      41.014  -0.257  31.779  1.00  0.00     0.185 HD
HETATM    3  C6  UNL     1      42.204  -1.394  30.472  1.00  0.00     0.676 C 
HETATM    4  N4  UNL     1      41.728  -2.569  30.541  1.00  0.00    -0.222 N 
ATOM      5  H4  UNL     1      41.901  -3.161  29.729  1.00  0.00     0.178 HD
HETATM    6  N5  UNL     1      42.926  -0.949  29.328  1.00  0.00    -0.222 N 
ATOM      7  H5  UNL     1      42.928   0.055  29.147  1.00  0.00     0.178 HD
ENDROOT
BRANCH   1   8
HETATM    8  C5  UNL     1      42.871  -0.139  32.382  1.00  0.00     0.123 A 
HETATM    9  C4  UNL     1      42.519   0.440  33.605  1.00  0.00     0.082 A 
HETATM   10  C3  UNL     1      43.425   0.914  34.518  1.00  0.00     0.078 A 
HETATM   11  C17 UNL     1      44.771   0.770  34.123  1.00  0.00     0.158 A 
HETATM   12  C16 UNL     1      45.117   0.200  32.921  1.00  0.00     0.134 A 
HETATM   13  F1  UNL     1      45.740   1.220  34.971  1.00  0.00    -0.202 F 
HETATM   14  N6  UNL     1      44.167  -0.245  32.070  1.00  0.00    -0.349 N 
ATOM     15  H6  UNL     1      44.441  -0.665  31.182  1.00  0.00     0.167 HD
BRANCH  10  16
HETATM   16  N2  UNL     1      43.153   1.470  35.777  1.00  0.00    -0.331 N 
ATOM     17  H2  UNL     1      43.262   0.794  36.533  1.00  0.00     0.168 HD
BRANCH  16  18
HETATM   18  C2  UNL     1      42.773   2.713  36.232  1.00  0.00     0.171 C 
HETATM   19  S1  UNL     1      41.389   2.726  37.195  1.00  0.00    -0.041 SA
BRANCH  18  20
HETATM   20  N1  UNL     1      43.364   3.949  36.011  1.00  0.00    -0.371 N 
HETATM   21  C1  UNL     1      43.617   4.848  37.172  1.00  0.00     0.148 C 
ATOM     22  H1  UNL     1      43.621   4.239  35.068  1.00  0.00     0.161 HD
ENDBRANCH  18  20
ENDBRANCH  16  18
ENDBRANCH  10  16
ENDBRANCH   1   8
BRANCH   4  23
HETATM   23  C7  UNL     1      40.987  -3.174  31.595  1.00  0.00     0.091 C 
HETATM   24  C8  UNL     1      41.836  -4.091  32.459  1.00  0.00     0.032 C 
HETATM   25  C9  UNL     1      39.721  -3.863  31.162  1.00  0.00     0.032 C 
ENDBRANCH   4  23
BRANCH   6  26
HETATM   26  C10 UNL     1      43.646  -1.770  28.413  1.00  0.00     0.099 C 
HETATM   27  C11 UNL     1      43.992  -0.926  27.176  1.00  0.00     0.026 C 
HETATM   28  C12 UNL     1      44.940  -1.627  26.261  1.00  0.00     0.002 C 
HETATM   29  C13 UNL     1      44.250  -2.879  25.762  1.00  0.00     0.000 C 
HETATM   30  C14 UNL     1      43.753  -3.700  26.899  1.00  0.00     0.002 C 
HETATM   31  C15 UNL     1      42.867  -2.946  27.869  1.00  0.00     0.026 C 
ENDBRANCH   6  26
TORSDOF 6
ENDMDL
MODEL 5
REMARK VINA RESULT: -6.506238293      2.163      3.384
REMARK  6 active torsions:
REMARK  status: ('A' for Active; 'I' for Inactive)
REMARK    1  A    between atoms: N1_2  and  C2_4 
REMARK    2  A    between atoms: C2_4  and  N2_6 
REMARK    3  A    between atoms: N2_6  and  C3_8 
REMARK    4  A    between atoms: C5_10  and  N3_11 
REMARK       I    between atoms: N3_11  and  C6_13 
REMARK       I    between atoms: C6_13  and  N5_19 
REMARK    5  A    between atoms: N4_14  and  C7_16 
REMARK    6  A    between atoms: N5_19  and  C10_21 
ROOT
HETATM    1  N3  UNL     1      43.281  -0.907  30.842  1.00  0.00    -0.177 N 
ATOM      2  H3  UNL     1      44.017  -0.261  30.555  1.00  0.00     0.185 HD
HETATM    3  C6  UNL     1      42.230  -0.393  31.653  1.00  0.00     0.676 C 
HETATM    4  N4  UNL     1      42.547  -0.038  32.830  1.00  0.00    -0.222 N 
ATOM      5  H4  UNL     1      41.783   0.329  33.398  1.00  0.00     0.178 HD
HETATM    6  N5  UNL     1      40.894  -0.277  31.174  1.00  0.00    -0.222 N 
ATOM      7  H5  UNL     1      40.772  -0.185  30.166  1.00  0.00     0.178 HD
ENDROOT
BRANCH   1   8
HETATM    8  C5  UNL     1      43.369  -2.103  30.452  1.00  0.00     0.123 A 
HETATM    9  C4  UNL     1      43.617  -2.385  29.104  1.00  0.00     0.082 A 
HETATM   10  C3  UNL     1      43.727  -3.653  28.594  1.00  0.00     0.078 A 
HETATM   11  C17 UNL     1      43.568  -4.676  29.550  1.00  0.00     0.158 A 
HETATM   12  C16 UNL     1      43.324  -4.399  30.874  1.00  0.00     0.134 A 
HETATM   13  F1  UNL     1      43.657  -5.969  29.127  1.00  0.00    -0.202 F 
HETATM   14  N6  UNL     1      43.228  -3.123  31.306  1.00  0.00    -0.349 N 
ATOM     15  H6  UNL     1      43.047  -2.935  32.292  1.00  0.00     0.167 HD
BRANCH  10  16
HETATM   16  N2  UNL     1      44.013  -4.014  27.269  1.00  0.00    -0.331 N 
ATOM     17  H2  UNL     1      44.029  -5.025  27.135  1.00  0.00     0.168 HD
BRANCH  16  18
HETATM   18  C2  UNL     1      44.276  -3.324  26.106  1.00  0.00     0.171 C 
HETATM   19  S1  UNL     1      43.847  -4.129  24.688  1.00  0.00    -0.041 SA
BRANCH  18  20
HETATM   20  N1  UNL     1      44.841  -2.067  25.936  1.00  0.00    -0.371 N 
HETATM   21  C1  UNL     1      44.016  -0.977  25.346  1.00  0.00     0.148 C 
ATOM     22  H1  UNL     1      45.807  -1.893  26.212  1.00  0.00     0.161 HD
ENDBRANCH  18  20
ENDBRANCH  16  18
ENDBRANCH  10  16
ENDBRANCH   1   8
BRANCH   4  23
HETATM   23  C7  UNL     1      43.819  -0.080  33.466  1.00  0.00     0.091 C 
HETATM   24  C8  UNL     1      43.745  -0.588  34.895  1.00  0.00     0.032 C 
HETATM   25  C9  UNL     1      44.607   1.199  33.390  1.00  0.00     0.032 C 
ENDBRANCH   4  23
BRANCH   6  26
HETATM   26  C10 UNL     1      39.710  -0.279  31.969  1.00  0.00     0.099 C 
HETATM   27  C11 UNL     1      39.042  -1.657  31.836  1.00  0.00     0.026 C 
HETATM   28  C12 UNL     1      37.922  -1.835  32.806  1.00  0.00     0.002 C 
HETATM   29  C13 UNL     1      36.867  -0.800  32.481  1.00  0.00     0.000 C 
HETATM   30  C14 UNL     1      37.456   0.566  32.449  1.00  0.00     0.002 C 
HETATM   31  C15 UNL     1      38.652   0.706  31.529  1.00  0.00     0.026 C 
ENDBRANCH   6  26
TORSDOF 6
ENDMDL
