MODEL 1
REMARK VINA RESULT: -6.401521913      0.000      0.000
REMARK  8 active torsions:
REMARK  status: ('A' for Active; 'I' for Inactive)
REMARK    1  A    between atoms: N1_1  and  S1_4 
REMARK    2  A    between atoms: C4_10  and  C5_11 
REMARK    3  A    between atoms: C5_11  and  N2_12 
REMARK    4  A    between atoms: N2_12  and  C6_14 
REMARK    5  A    between atoms: C6_14  and  N3_16 
REMARK    6  A    between atoms: N3_16  and  C7_18 
REMARK    7  A    between atoms: C7_18  and  C8_19 
REMARK    8  A    between atoms: C8_19  and  C9_20 
ROOT
HETATM    1  N2  UNL     1      44.393   0.684  33.021  1.00  0.00    -0.365 N 
ATOM      2  H2  UNL     1      45.000   1.165  32.357  1.00  0.00     0.161 HD
ENDROOT
BRANCH   1   3
HETATM    3  C5  UNL     1      44.277   1.171  34.375  1.00  0.00     0.147 C 
BRANCH   3   4
HETATM    4  C4  UNL     1      45.620   1.095  35.101  1.00  0.00     0.112 C 
HETATM    5  C3  UNL     1      45.636   2.106  36.188  1.00  0.00     0.065 C 
HETATM    6  C2  UNL     1      45.524   1.519  37.572  1.00  0.00     0.186 C 
HETATM    7  C1  UNL     1      46.754   0.742  37.964  1.00  0.00     0.176 C 
HETATM    8  F1  UNL     1      45.402   2.572  38.459  1.00  0.00    -0.248 F 
HETATM    9  S1  UNL     1      47.085  -0.411  36.657  1.00  0.00     0.103 S 
HETATM   10  O1  UNL     1      47.134  -1.825  37.168  1.00  0.00    -0.229 OA
HETATM   11  N4  UNL     1      45.856  -0.256  35.486  1.00  0.00    -0.330 N 
ATOM     12  H4  UNL     1      45.343  -1.049  35.100  1.00  0.00     0.171 HD
BRANCH   9  13
HETATM   13  N1  UNL     1      48.515  -0.122  36.067  1.00  0.00    -0.345 N 
ATOM     14  H12 UNL     1      49.350   0.128  36.597  1.00  0.00     0.167 HD
ATOM     15  H11 UNL     1      48.426  -0.236  35.057  1.00  0.00     0.167 HD
ENDBRANCH   9  13
ENDBRANCH   3   4
ENDBRANCH   1   3
BRANCH   1  16
HETATM   16  C6  UNL     1      43.678  -0.446  32.619  1.00  0.00     0.167 C 
HETATM   17  S2  UNL     1      42.389  -0.922  33.555  1.00  0.00    -0.041 SA
BRANCH  16  18
HETATM   18  N3  UNL     1      43.929  -1.247  31.479  1.00  0.00    -0.367 N 
ATOM     19  H3  UNL     1      44.765  -1.832  31.488  1.00  0.00     0.161 HD
BRANCH  18  20
HETATM   20  C7  UNL     1      43.089  -1.297  30.307  1.00  0.00     0.122 C 
BRANCH  20  21
HETATM   21  C8  UNL     1      43.135  -2.665  29.713  1.00  0.00     0.024 C 
BRANCH  21  22
HETATM   22  C9  UNL     1      43.974  -2.725  28.450  1.00  0.00    -0.013 C 
HETATM   23  C10 UNL     1      43.280  -3.504  27.382  1.00  0.00     0.005 C 
HETATM   24  C11 UNL     1      44.217  -3.673  26.189  1.00  0.00     0.000 C 
HETATM   25  C12 UNL     1      44.880  -2.372  25.820  1.00  0.00     0.000 C 
HETATM   26  C13 UNL     1      44.132  -1.231  26.467  1.00  0.00     0.000 C 
HETATM   27  C14 UNL     1      44.379  -1.364  27.975  1.00  0.00     0.005 C 
ENDBRANCH  21  22
ENDBRANCH  20  21
ENDBRANCH  18  20
ENDBRANCH  16  18
ENDBRANCH   1  16
TORSDOF 8
ENDMDL
MODEL 2
REMARK VINA RESULT: -6.280777847      0.297      1.089
REMARK  8 active torsions:
REMARK  status: ('A' for Active; 'I' for Inactive)
REMARK    1  A    between atoms: N1_1  and  S1_4 
REMARK    2  A    between atoms: C4_10  and  C5_11 
REMARK    3  A    between atoms: C5_11  and  N2_12 
REMARK    4  A    between atoms: N2_12  and  C6_14 
REMARK    5  A    between atoms: C6_14  and  N3_16 
REMARK    6  A    between atoms: N3_16  and  C7_18 
REMARK    7  A    between atoms: C7_18  and  C8_19 
REMARK    8  A    between atoms: C8_19  and  C9_20 
ROOT
HETATM    1  N2  UNL     1      44.429   0.635  33.052  1.00  0.00    -0.365 N 
ATOM      2  H2  UNL     1      45.077   1.052  32.382  1.00  0.00     0.161 HD
ENDROOT
BRANCH   1   3
HETATM    3  C5  UNL     1      44.291   1.205  34.371  1.00  0.00     0.147 C 
BRANCH   3   4
HETATM    4  C4  UNL     1      45.615   1.145  35.133  1.00  0.00     0.112 C 
HETATM    5  C3  UNL     1      45.592   2.162  36.214  1.00  0.00     0.065 C 
HETATM    6  C2  UNL     1      45.448   1.582  37.598  1.00  0.00     0.186 C 
HETATM    7  C1  UNL     1      46.674   0.818  38.027  1.00  0.00     0.176 C 
HETATM    8  F1  UNL     1      45.293   2.639  38.476  1.00  0.00    -0.248 F 
HETATM    9  S1  UNL     1      47.051  -0.339  36.736  1.00  0.00     0.103 S 
HETATM   10  O1  UNL     1      47.099  -1.749  37.257  1.00  0.00    -0.229 OA
HETATM   11  N4  UNL     1      45.853  -0.202  35.532  1.00  0.00    -0.330 N 
ATOM     12  H4  UNL     1      45.358  -1.002  35.138  1.00  0.00     0.171 HD
BRANCH   9  13
HETATM   13  N1  UNL     1      48.494  -0.040  36.184  1.00  0.00    -0.345 N 
ATOM     14  H12 UNL     1      49.032   0.815  36.328  1.00  0.00     0.167 HD
ATOM     15  H11 UNL     1      48.767  -0.871  35.659  1.00  0.00     0.167 HD
ENDBRANCH   9  13
ENDBRANCH   3   4
ENDBRANCH   1   3
BRANCH   1  16
HETATM   16  C6  UNL     1      43.678  -0.485  32.689  1.00  0.00     0.167 C 
HETATM   17  S2  UNL     1      42.480  -0.985  33.727  1.00  0.00    -0.041 SA
BRANCH  16  18
HETATM   18  N3  UNL     1      43.823  -1.258  31.512  1.00  0.00    -0.367 N 
ATOM     19  H3  UNL     1      44.632  -1.876  31.449  1.00  0.00     0.161 HD
BRANCH  18  20
HETATM   20  C7  UNL     1      42.910  -1.234  30.394  1.00  0.00     0.122 C 
BRANCH  20  21
HETATM   21  C8  UNL     1      42.975  -2.535  29.665  1.00  0.00     0.024 C 
BRANCH  21  22
HETATM   22  C9  UNL     1      43.177  -2.357  28.172  1.00  0.00    -0.013 C 
HETATM   23  C10 UNL     1      44.408  -1.563  27.887  1.00  0.00     0.005 C 
HETATM   24  C11 UNL     1      44.490  -1.274  26.391  1.00  0.00     0.000 C 
HETATM   25  C12 UNL     1      44.225  -2.513  25.576  1.00  0.00     0.000 C 
HETATM   26  C13 UNL     1      44.353  -3.729  26.462  1.00  0.00     0.000 C 
HETATM   27  C14 UNL     1      43.175  -3.665  27.441  1.00  0.00     0.005 C 
ENDBRANCH  21  22
ENDBRANCH  20  21
ENDBRANCH  18  20
ENDBRANCH  16  18
ENDBRANCH   1  16
TORSDOF 8
ENDMDL
MODEL 3
REMARK VINA RESULT: -6.189648865      6.315      7.887
REMARK  8 active torsions:
REMARK  status: ('A' for Active; 'I' for Inactive)
REMARK    1  A    between atoms: N1_1  and  S1_4 
REMARK    2  A    between atoms: C4_10  and  C5_11 
REMARK    3  A    between atoms: C5_11  and  N2_12 
REMARK    4  A    between atoms: N2_12  and  C6_14 
REMARK    5  A    between atoms: C6_14  and  N3_16 
REMARK    6  A    between atoms: N3_16  and  C7_18 
REMARK    7  A    between atoms: C7_18  and  C8_19 
REMARK    8  A    between atoms: C8_19  and  C9_20 
ROOT
HETATM    1  N2  UNL     1      42.009  -0.737  29.722  1.00  0.00    -0.365 N 
ATOM      2  H2  UNL     1      42.059   0.163  29.244  1.00  0.00     0.161 HD
ENDROOT
BRANCH   1   3
HETATM    3  C5  UNL     1      43.221  -1.389  30.157  1.00  0.00     0.147 C 
BRANCH   3   4
HETATM    4  C4  UNL     1      44.111  -1.741  28.965  1.00  0.00     0.112 C 
HETATM    5  C3  UNL     1      44.013  -3.199  28.707  1.00  0.00     0.065 C 
HETATM    6  C2  UNL     1      43.227  -3.552  27.470  1.00  0.00     0.186 C 
HETATM    7  C1  UNL     1      43.938  -3.142  26.206  1.00  0.00     0.176 C 
HETATM    8  F1  UNL     1      43.095  -4.927  27.440  1.00  0.00    -0.248 F 
HETATM    9  S1  UNL     1      44.384  -1.434  26.383  1.00  0.00     0.103 S 
HETATM   10  O1  UNL     1      43.825  -0.600  25.263  1.00  0.00    -0.229 OA
HETATM   11  N4  UNL     1      43.783  -0.879  27.879  1.00  0.00    -0.330 N 
ATOM     12  H4  UNL     1      43.244  -0.020  27.985  1.00  0.00     0.171 HD
BRANCH   9  13
HETATM   13  N1  UNL     1      45.947  -1.296  26.277  1.00  0.00    -0.345 N 
ATOM     14  H12 UNL     1      46.483  -0.429  26.317  1.00  0.00     0.167 HD
ATOM     15  H11 UNL     1      46.301  -2.246  26.163  1.00  0.00     0.167 HD
ENDBRANCH   9  13
ENDBRANCH   3   4
ENDBRANCH   1   3
BRANCH   1  16
HETATM   16  C6  UNL     1      40.769  -1.335  29.954  1.00  0.00     0.167 C 
HETATM   17  S2  UNL     1      39.651  -0.483  30.841  1.00  0.00    -0.041 SA
BRANCH  16  18
HETATM   18  N3  UNL     1      40.346  -2.610  29.507  1.00  0.00    -0.367 N 
ATOM     19  H3  UNL     1      40.447  -2.821  28.514  1.00  0.00     0.161 HD
BRANCH  18  20
HETATM   20  C7  UNL     1      39.783  -3.634  30.355  1.00  0.00     0.122 C 
BRANCH  20  21
HETATM   21  C8  UNL     1      40.806  -4.089  31.341  1.00  0.00     0.024 C 
BRANCH  21  22
HETATM   22  C9  UNL     1      41.886  -4.946  30.707  1.00  0.00    -0.013 C 
HETATM   23  C10 UNL     1      42.918  -5.340  31.712  1.00  0.00     0.005 C 
HETATM   24  C11 UNL     1      44.060  -6.065  31.008  1.00  0.00     0.000 C 
HETATM   25  C12 UNL     1      43.545  -7.111  30.054  1.00  0.00     0.000 C 
HETATM   26  C13 UNL     1      42.097  -7.402  30.369  1.00  0.00     0.000 C 
HETATM   27  C14 UNL     1      41.319  -6.135  29.994  1.00  0.00     0.005 C 
ENDBRANCH  21  22
ENDBRANCH  20  21
ENDBRANCH  18  20
ENDBRANCH  16  18
ENDBRANCH   1  16
TORSDOF 8
ENDMDL
MODEL 4
REMARK VINA RESULT: -6.120970862      6.153      7.614
REMARK  8 active torsions:
REMARK  status: ('A' for Active; 'I' for Inactive)
REMARK    1  A    between atoms: N1_1  and  S1_4 
REMARK    2  A    between atoms: C4_10  and  C5_11 
REMARK    3  A    between atoms: C5_11  and  N2_12 
REMARK    4  A    between atoms: N2_12  and  C6_14 
REMARK    5  A    between atoms: C6_14  and  N3_16 
REMARK    6  A    between atoms: N3_16  and  C7_18 
REMARK    7  A    between atoms: C7_18  and  C8_19 
REMARK    8  A    between atoms: C8_19  and  C9_20 
ROOT
HETATM    1  N2  UNL     1      43.379  -5.981  32.518  1.00  0.00    -0.365 N 
ATOM      2  H2  UNL     1      43.921  -5.611  33.299  1.00  0.00     0.161 HD
ENDROOT
BRANCH   1   3
HETATM    3  C5  UNL     1      42.906  -7.344  32.551  1.00  0.00     0.147 C 
BRANCH   3   4
HETATM    4  C4  UNL     1      44.075  -8.329  32.587  1.00  0.00     0.112 C 
HETATM    5  C3  UNL     1      44.092  -9.099  31.318  1.00  0.00     0.065 C 
HETATM    6  C2  UNL     1      45.212  -8.716  30.384  1.00  0.00     0.186 C 
HETATM    7  C1  UNL     1      46.562  -9.120  30.916  1.00  0.00     0.176 C 
HETATM    8  F1  UNL     1      45.014  -9.400  29.199  1.00  0.00    -0.248 F 
HETATM    9  S1  UNL     1      46.684  -8.494  32.572  1.00  0.00     0.103 S 
HETATM   10  O1  UNL     1      47.889  -7.610  32.739  1.00  0.00    -0.229 OA
HETATM   11  N4  UNL     1      45.264  -7.616  32.914  1.00  0.00    -0.330 N 
ATOM     12  H4  UNL     1      45.266  -6.677  33.312  1.00  0.00     0.171 HD
BRANCH   9  13
HETATM   13  N1  UNL     1      46.897  -9.698  33.562  1.00  0.00    -0.345 N 
ATOM     14  H12 UNL     1      47.154 -10.652  33.309  1.00  0.00     0.167 HD
ATOM     15  H11 UNL     1      46.727  -9.322  34.495  1.00  0.00     0.167 HD
ENDBRANCH   9  13
ENDBRANCH   3   4
ENDBRANCH   1   3
BRANCH   1  16
HETATM   16  C6  UNL     1      43.099  -5.169  31.418  1.00  0.00     0.167 C 
HETATM   17  S2  UNL     1      42.458  -5.889  30.064  1.00  0.00    -0.041 SA
BRANCH  16  18
HETATM   18  N3  UNL     1      43.300  -3.770  31.323  1.00  0.00    -0.367 N 
ATOM     19  H3  UNL     1      43.982  -3.348  31.953  1.00  0.00     0.161 HD
BRANCH  18  20
HETATM   20  C7  UNL     1      42.612  -2.900  30.400  1.00  0.00     0.122 C 
BRANCH  20  21
HETATM   21  C8  UNL     1      43.564  -1.886  29.861  1.00  0.00     0.024 C 
BRANCH  21  22
HETATM   22  C9  UNL     1      44.155  -2.293  28.523  1.00  0.00    -0.013 C 
HETATM   23  C10 UNL     1      43.179  -3.093  27.727  1.00  0.00     0.005 C 
HETATM   24  C11 UNL     1      43.860  -3.613  26.465  1.00  0.00     0.000 C 
HETATM   25  C12 UNL     1      44.639  -2.526  25.771  1.00  0.00     0.000 C 
HETATM   26  C13 UNL     1      44.195  -1.182  26.297  1.00  0.00     0.000 C 
HETATM   27  C14 UNL     1      44.674  -1.119  27.753  1.00  0.00     0.005 C 
ENDBRANCH  21  22
ENDBRANCH  20  21
ENDBRANCH  18  20
ENDBRANCH  16  18
ENDBRANCH   1  16
TORSDOF 8
ENDMDL
MODEL 5
REMARK VINA RESULT: -6.075538843      6.568      7.746
REMARK  8 active torsions:
REMARK  status: ('A' for Active; 'I' for Inactive)
REMARK    1  A    between atoms: N1_1  and  S1_4 
REMARK    2  A    between atoms: C4_10  and  C5_11 
REMARK    3  A    between atoms: C5_11  and  N2_12 
REMARK    4  A    between atoms: N2_12  and  C6_14 
REMARK    5  A    between atoms: C6_14  and  N3_16 
REMARK    6  A    between atoms: N3_16  and  C7_18 
REMARK    7  A    between atoms: C7_18  and  C8_19 
REMARK    8  A    between atoms: C8_19  and  C9_20 
ROOT
HETATM    1  N2  UNL     1      42.324  -6.285  29.643  1.00  0.00    -0.365 N 
ATOM      2  H2  UNL     1      42.024  -7.101  29.109  1.00  0.00     0.161 HD
ENDROOT
BRANCH   1   3
HETATM    3  C5  UNL     1      43.721  -6.107  29.960  1.00  0.00     0.147 C 
BRANCH   3   4
HETATM    4  C4  UNL     1      44.180  -7.128  31.001  1.00  0.00     0.112 C 
HETATM    5  C3  UNL     1      43.953  -8.494  30.466  1.00  0.00     0.065 C 
HETATM    6  C2  UNL     1      45.216  -9.213  30.067  1.00  0.00     0.186 C 
HETATM    7  C1  UNL     1      46.069  -9.571  31.256  1.00  0.00     0.176 C 
HETATM    8  F1  UNL     1      44.844 -10.396  29.456  1.00  0.00    -0.248 F 
HETATM    9  S1  UNL     1      46.287  -8.092  32.212  1.00  0.00     0.103 S 
HETATM   10  O1  UNL     1      47.743  -7.772  32.407  1.00  0.00    -0.229 OA
HETATM   11  N4  UNL     1      45.513  -6.812  31.395  1.00  0.00    -0.330 N 
ATOM     12  H4  UNL     1      45.957  -5.913  31.208  1.00  0.00     0.171 HD
BRANCH   9  13
HETATM   13  N1  UNL     1      45.704  -8.322  33.655  1.00  0.00    -0.345 N 
ATOM     14  H12 UNL     1      45.940  -9.086  34.288  1.00  0.00     0.167 HD
ATOM     15  H11 UNL     1      45.052  -7.554  33.815  1.00  0.00     0.167 HD
ENDBRANCH   9  13
ENDBRANCH   3   4
ENDBRANCH   1   3
BRANCH   1  16
HETATM   16  C6  UNL     1      41.384  -5.344  30.065  1.00  0.00     0.167 C 
HETATM   17  S2  UNL     1      39.783  -5.790  30.060  1.00  0.00    -0.041 SA
BRANCH  16  18
HETATM   18  N3  UNL     1      41.645  -4.024  30.508  1.00  0.00    -0.367 N 
ATOM     19  H3  UNL     1      41.661  -3.858  31.514  1.00  0.00     0.161 HD
BRANCH  18  20
HETATM   20  C7  UNL     1      41.893  -2.898  29.640  1.00  0.00     0.122 C 
BRANCH  20  21
HETATM   21  C8  UNL     1      43.323  -2.486  29.746  1.00  0.00     0.024 C 
BRANCH  21  22
HETATM   22  C9  UNL     1      44.066  -2.614  28.429  1.00  0.00    -0.013 C 
HETATM   23  C10 UNL     1      43.270  -3.396  27.437  1.00  0.00     0.005 C 
HETATM   24  C11 UNL     1      44.112  -3.635  26.188  1.00  0.00     0.000 C 
HETATM   25  C12 UNL     1      44.793  -2.371  25.732  1.00  0.00     0.000 C 
HETATM   26  C13 UNL     1      44.135  -1.184  26.394  1.00  0.00     0.000 C 
HETATM   27  C14 UNL     1      44.485  -1.284  27.884  1.00  0.00     0.005 C 
ENDBRANCH  21  22
ENDBRANCH  20  21
ENDBRANCH  18  20
ENDBRANCH  16  18
ENDBRANCH   1  16
TORSDOF 8
ENDMDL
