MODEL 1
REMARK VINA RESULT: -6.373181882      0.000      0.000
REMARK  8 active torsions:
REMARK  status: ('A' for Active; 'I' for Inactive)
REMARK    1  A    between atoms: C1_2  and  C2_4 
REMARK    2  A    between atoms: C6_8  and  C7_9 
REMARK       I    between atoms: C7_9  and  N1_11 
REMARK    3  A    between atoms: N1_11  and  N2_13 
REMARK    4  A    between atoms: N2_13  and  C8_15 
REMARK    5  A    between atoms: C8_15  and  N3_17 
REMARK    6  A    between atoms: N3_17  and  C9_19 
REMARK    7  A    between atoms: C9_19  and  C10_20 
REMARK    8  A    between atoms: C10_20  and  C11_21 
ROOT
HETATM    1  N2  UNL     1      42.108  -5.902  28.775  1.00  0.00    -0.274 N 
ATOM      2  H2  UNL     1      42.348  -6.883  28.640  1.00  0.00     0.189 HD
ENDROOT
BRANCH   1   3
HETATM    3  N1  UNL     1      42.638  -4.993  27.876  1.00  0.00    -0.268 N 
HETATM    4  C7  UNL     1      43.812  -4.248  28.120  1.00  0.00     0.241 C 
HETATM    5  O3  UNL     1      44.406  -4.431  29.232  1.00  0.00    -0.271 OA
ATOM      6  H1  UNL     1      42.156  -4.855  26.988  1.00  0.00     0.190 HD
BRANCH   4   7
HETATM    7  C6  UNL     1      44.387  -3.278  27.177  1.00  0.00     0.094 C 
HETATM    8  C2  UNL     1      43.727  -1.917  27.261  1.00  0.00     0.100 C 
HETATM    9  C3  UNL     1      44.155  -1.271  25.948  1.00  0.00     0.016 C 
HETATM   10  C4  UNL     1      44.541  -2.378  25.020  1.00  0.00     0.002 C 
HETATM   11  C5  UNL     1      44.048  -3.640  25.727  1.00  0.00     0.015 C 
BRANCH   8  12
HETATM   12  C1  UNL     1      44.302  -1.097  28.342  1.00  0.00     0.177 C 
HETATM   13  O1  UNL     1      45.321  -0.417  28.123  1.00  0.00    -0.648 OA
HETATM   14  O2  UNL     1      43.711  -1.086  29.583  1.00  0.00    -0.648 OA
ENDBRANCH   8  12
ENDBRANCH   4   7
ENDBRANCH   1   3
BRANCH   1  15
HETATM   15  C8  UNL     1      41.263  -5.588  29.863  1.00  0.00     0.186 C 
HETATM   16  S1  UNL     1      39.805  -6.287  29.945  1.00  0.00    -0.040 SA
BRANCH  15  17
HETATM   17  N3  UNL     1      41.695  -4.697  30.858  1.00  0.00    -0.366 N 
ATOM     18  H3  UNL     1      42.453  -5.015  31.461  1.00  0.00     0.161 HD
BRANCH  17  19
HETATM   19  C9  UNL     1      41.174  -3.376  31.114  1.00  0.00     0.122 C 
BRANCH  19  20
HETATM   20  C10 UNL     1      40.710  -2.742  29.859  1.00  0.00     0.024 C 
BRANCH  20  21
HETATM   21  C11 UNL     1      39.605  -1.733  30.064  1.00  0.00    -0.013 C 
HETATM   22  C12 UNL     1      40.112  -0.359  30.365  1.00  0.00     0.005 C 
HETATM   23  C13 UNL     1      39.273   0.166  31.516  1.00  0.00     0.000 C 
HETATM   24  C14 UNL     1      38.037  -0.703  31.471  1.00  0.00     0.000 C 
HETATM   25  C15 UNL     1      38.658  -2.074  31.166  1.00  0.00     0.005 C 
ENDBRANCH  20  21
ENDBRANCH  19  20
ENDBRANCH  17  19
ENDBRANCH  15  17
ENDBRANCH   1  15
TORSDOF 8
ENDMDL
MODEL 2
REMARK VINA RESULT: -6.136936422      5.550      7.905
REMARK  8 active torsions:
REMARK  status: ('A' for Active; 'I' for Inactive)
REMARK    1  A    between atoms: C1_2  and  C2_4 
REMARK    2  A    between atoms: C6_8  and  C7_9 
REMARK       I    between atoms: C7_9  and  N1_11 
REMARK    3  A    between atoms: N1_11  and  N2_13 
REMARK    4  A    between atoms: N2_13  and  C8_15 
REMARK    5  A    between atoms: C8_15  and  N3_17 
REMARK    6  A    between atoms: N3_17  and  C9_19 
REMARK    7  A    between atoms: C9_19  and  C10_20 
REMARK    8  A    between atoms: C10_20  and  C11_21 
ROOT
HETATM    1  N2  UNL     1      44.045  -0.607  32.174  1.00  0.00    -0.274 N 
ATOM      2  H2  UNL     1      44.901  -0.931  31.725  1.00  0.00     0.189 HD
ENDROOT
BRANCH   1   3
HETATM    3  N1  UNL     1      44.176   0.035  33.393  1.00  0.00    -0.268 N 
HETATM    4  C7  UNL     1      45.378   0.629  33.837  1.00  0.00     0.241 C 
HETATM    5  O3  UNL     1      46.388   0.564  33.064  1.00  0.00    -0.271 OA
ATOM      6  H1  UNL     1      43.361   0.082  34.004  1.00  0.00     0.190 HD
BRANCH   4   7
HETATM    7  C6  UNL     1      45.534   1.312  35.128  1.00  0.00     0.094 C 
HETATM    8  C2  UNL     1      45.385   0.375  36.309  1.00  0.00     0.100 C 
HETATM    9  C3  UNL     1      45.139   1.345  37.460  1.00  0.00     0.016 C 
HETATM   10  C4  UNL     1      44.657   2.627  36.858  1.00  0.00     0.002 C 
HETATM   11  C5  UNL     1      44.363   2.263  35.403  1.00  0.00     0.015 C 
BRANCH   8  12
HETATM   12  C1  UNL     1      46.644  -0.328  36.611  1.00  0.00     0.177 C 
HETATM   13  O1  UNL     1      47.731   0.245  36.417  1.00  0.00    -0.648 OA
HETATM   14  O2  UNL     1      46.612  -1.610  37.106  1.00  0.00    -0.648 OA
ENDBRANCH   8  12
ENDBRANCH   4   7
ENDBRANCH   1   3
BRANCH   1  15
HETATM   15  C8  UNL     1      42.829  -0.853  31.498  1.00  0.00     0.186 C 
HETATM   16  S1  UNL     1      41.552  -1.364  32.351  1.00  0.00    -0.040 SA
BRANCH  15  17
HETATM   17  N3  UNL     1      42.736  -0.641  30.114  1.00  0.00    -0.366 N 
ATOM     18  H3  UNL     1      42.837   0.321  29.789  1.00  0.00     0.161 HD
BRANCH  17  19
HETATM   19  C9  UNL     1      42.511  -1.645  29.102  1.00  0.00     0.122 C 
BRANCH  19  20
HETATM   20  C10 UNL     1      43.576  -2.672  29.137  1.00  0.00     0.024 C 
BRANCH  20  21
HETATM   21  C11 UNL     1      44.345  -2.791  27.843  1.00  0.00    -0.013 C 
HETATM   22  C12 UNL     1      44.628  -1.468  27.205  1.00  0.00     0.005 C 
HETATM   23  C13 UNL     1      44.318  -1.629  25.728  1.00  0.00     0.000 C 
HETATM   24  C14 UNL     1      44.366  -3.126  25.522  1.00  0.00     0.000 C 
HETATM   25  C15 UNL     1      43.669  -3.616  26.799  1.00  0.00     0.005 C 
ENDBRANCH  20  21
ENDBRANCH  19  20
ENDBRANCH  17  19
ENDBRANCH  15  17
ENDBRANCH   1  15
TORSDOF 8
ENDMDL
MODEL 3
REMARK VINA RESULT: -6.132169463      4.829      5.686
REMARK  8 active torsions:
REMARK  status: ('A' for Active; 'I' for Inactive)
REMARK    1  A    between atoms: C1_2  and  C2_4 
REMARK    2  A    between atoms: C6_8  and  C7_9 
REMARK       I    between atoms: C7_9  and  N1_11 
REMARK    3  A    between atoms: N1_11  and  N2_13 
REMARK    4  A    between atoms: N2_13  and  C8_15 
REMARK    5  A    between atoms: C8_15  and  N3_17 
REMARK    6  A    between atoms: N3_17  and  C9_19 
REMARK    7  A    between atoms: C9_19  and  C10_20 
REMARK    8  A    between atoms: C10_20  and  C11_21 
ROOT
HETATM    1  N2  UNL     1      43.105  -0.329  30.669  1.00  0.00    -0.274 N 
ATOM      2  H2  UNL     1      43.018   0.686  30.620  1.00  0.00     0.189 HD
ENDROOT
BRANCH   1   3
HETATM    3  N1  UNL     1      42.889  -1.038  29.501  1.00  0.00    -0.268 N 
HETATM    4  C7  UNL     1      43.900  -1.309  28.554  1.00  0.00     0.241 C 
HETATM    5  O3  UNL     1      45.070  -0.873  28.801  1.00  0.00    -0.271 OA
ATOM      6  H1  UNL     1      41.948  -1.384  29.314  1.00  0.00     0.190 HD
BRANCH   4   7
HETATM    7  C6  UNL     1      43.686  -2.059  27.308  1.00  0.00     0.094 C 
HETATM    8  C2  UNL     1      43.967  -3.540  27.460  1.00  0.00     0.100 C 
HETATM    9  C3  UNL     1      44.117  -3.988  26.010  1.00  0.00     0.016 C 
HETATM   10  C4  UNL     1      44.431  -2.769  25.204  1.00  0.00     0.002 C 
HETATM   11  C5  UNL     1      44.740  -1.702  26.253  1.00  0.00     0.015 C 
BRANCH   8  12
HETATM   12  C1  UNL     1      42.808  -4.263  28.009  1.00  0.00     0.177 C 
HETATM   13  O1  UNL     1      41.717  -3.676  28.128  1.00  0.00    -0.648 OA
HETATM   14  O2  UNL     1      42.934  -5.579  28.383  1.00  0.00    -0.648 OA
ENDBRANCH   8  12
ENDBRANCH   4   7
ENDBRANCH   1   3
BRANCH   1  15
HETATM   15  C8  UNL     1      43.436  -0.887  31.924  1.00  0.00     0.186 C 
HETATM   16  S1  UNL     1      42.926  -2.384  32.271  1.00  0.00    -0.040 SA
BRANCH  15  17
HETATM   17  N3  UNL     1      44.207  -0.156  32.842  1.00  0.00    -0.366 N 
ATOM     18  H3  UNL     1      45.081   0.238  32.495  1.00  0.00     0.161 HD
BRANCH  17  19
HETATM   19  C9  UNL     1      43.887   0.096  34.226  1.00  0.00     0.122 C 
BRANCH  19  20
HETATM   20  C10 UNL     1      45.119   0.312  35.018  1.00  0.00     0.024 C 
BRANCH  20  21
HETATM   21  C11 UNL     1      45.272   1.727  35.523  1.00  0.00    -0.013 C 
HETATM   22  C12 UNL     1      45.790   1.796  36.925  1.00  0.00     0.005 C 
HETATM   23  C13 UNL     1      44.940   2.827  37.645  1.00  0.00     0.000 C 
HETATM   24  C14 UNL     1      44.341   3.636  36.517  1.00  0.00     0.000 C 
HETATM   25  C15 UNL     1      44.012   2.525  35.509  1.00  0.00     0.005 C 
ENDBRANCH  20  21
ENDBRANCH  19  20
ENDBRANCH  17  19
ENDBRANCH  15  17
ENDBRANCH   1  15
TORSDOF 8
ENDMDL
MODEL 4
REMARK VINA RESULT: -6.131849899      1.775      2.782
REMARK  8 active torsions:
REMARK  status: ('A' for Active; 'I' for Inactive)
REMARK    1  A    between atoms: C1_2  and  C2_4 
REMARK    2  A    between atoms: C6_8  and  C7_9 
REMARK       I    between atoms: C7_9  and  N1_11 
REMARK    3  A    between atoms: N1_11  and  N2_13 
REMARK    4  A    between atoms: N2_13  and  C8_15 
REMARK    5  A    between atoms: C8_15  and  N3_17 
REMARK    6  A    between atoms: N3_17  and  C9_19 
REMARK    7  A    between atoms: C9_19  and  C10_20 
REMARK    8  A    between atoms: C10_20  and  C11_21 
ROOT
HETATM    1  N2  UNL     1      42.526  -6.188  28.801  1.00  0.00    -0.274 N 
ATOM      2  H2  UNL     1      42.864  -7.018  28.316  1.00  0.00     0.189 HD
ENDROOT
BRANCH   1   3
HETATM    3  N1  UNL     1      42.575  -4.990  28.111  1.00  0.00    -0.268 N 
HETATM    4  C7  UNL     1      43.611  -4.042  28.265  1.00  0.00     0.241 C 
HETATM    5  O3  UNL     1      44.545  -4.318  29.086  1.00  0.00    -0.271 OA
ATOM      6  H1  UNL     1      41.823  -4.779  27.456  1.00  0.00     0.190 HD
BRANCH   4   7
HETATM    7  C6  UNL     1      43.677  -2.765  27.542  1.00  0.00     0.094 C 
HETATM    8  C2  UNL     1      44.734  -2.760  26.457  1.00  0.00     0.100 C 
HETATM    9  C3  UNL     1      44.911  -1.269  26.188  1.00  0.00     0.016 C 
HETATM   10  C4  UNL     1      44.404  -0.543  27.392  1.00  0.00     0.002 C 
HETATM   11  C5  UNL     1      44.219  -1.643  28.436  1.00  0.00     0.015 C 
BRANCH   8  12
HETATM   12  C1  UNL     1      44.237  -3.359  25.206  1.00  0.00     0.177 C 
HETATM   13  O1  UNL     1      43.450  -4.321  25.256  1.00  0.00    -0.648 OA
HETATM   14  O2  UNL     1      44.642  -2.853  23.995  1.00  0.00    -0.648 OA
ENDBRANCH   8  12
ENDBRANCH   4   7
ENDBRANCH   1   3
BRANCH   1  15
HETATM   15  C8  UNL     1      42.048  -6.361  30.119  1.00  0.00     0.186 C 
HETATM   16  S1  UNL     1      40.624  -7.100  30.341  1.00  0.00    -0.040 SA
BRANCH  15  17
HETATM   17  N3  UNL     1      42.807  -5.912  31.211  1.00  0.00    -0.366 N 
ATOM     18  H3  UNL     1      43.757  -6.273  31.288  1.00  0.00     0.161 HD
BRANCH  17  19
HETATM   19  C9  UNL     1      42.379  -4.990  32.235  1.00  0.00     0.122 C 
BRANCH  19  20
HETATM   20  C10 UNL     1      42.878  -3.625  31.955  1.00  0.00     0.024 C 
BRANCH  20  21
HETATM   21  C11 UNL     1      41.780  -2.615  31.722  1.00  0.00    -0.013 C 
HETATM   22  C12 UNL     1      40.876  -2.982  30.588  1.00  0.00     0.005 C 
HETATM   23  C13 UNL     1      40.672  -1.717  29.775  1.00  0.00     0.000 C 
HETATM   24  C14 UNL     1      41.039  -0.616  30.744  1.00  0.00     0.000 C 
HETATM   25  C15 UNL     1      42.266  -1.235  31.432  1.00  0.00     0.005 C 
ENDBRANCH  20  21
ENDBRANCH  19  20
ENDBRANCH  17  19
ENDBRANCH  15  17
ENDBRANCH   1  15
TORSDOF 8
ENDMDL
MODEL 5
REMARK VINA RESULT: -6.081885500      5.411      7.699
REMARK  8 active torsions:
REMARK  status: ('A' for Active; 'I' for Inactive)
REMARK    1  A    between atoms: C1_2  and  C2_4 
REMARK    2  A    between atoms: C6_8  and  C7_9 
REMARK       I    between atoms: C7_9  and  N1_11 
REMARK    3  A    between atoms: N1_11  and  N2_13 
REMARK    4  A    between atoms: N2_13  and  C8_15 
REMARK    5  A    between atoms: C8_15  and  N3_17 
REMARK    6  A    between atoms: N3_17  and  C9_19 
REMARK    7  A    between atoms: C9_19  and  C10_20 
REMARK    8  A    between atoms: C10_20  and  C11_21 
ROOT
HETATM    1  N2  UNL     1      43.724  -0.488  31.801  1.00  0.00    -0.274 N 
ATOM      2  H2  UNL     1      44.534  -0.319  31.204  1.00  0.00     0.189 HD
ENDROOT
BRANCH   1   3
HETATM    3  N1  UNL     1      43.897  -0.313  33.162  1.00  0.00    -0.268 N 
HETATM    4  C7  UNL     1      45.082   0.191  33.740  1.00  0.00     0.241 C 
HETATM    5  O3  UNL     1      46.036   0.498  32.955  1.00  0.00    -0.271 OA
ATOM      6  H1  UNL     1      43.126  -0.561  33.783  1.00  0.00     0.190 HD
BRANCH   4   7
HETATM    7  C6  UNL     1      45.282   0.381  35.184  1.00  0.00     0.094 C 
HETATM    8  C2  UNL     1      45.389   1.842  35.573  1.00  0.00     0.100 C 
HETATM    9  C3  UNL     1      46.021   1.759  36.959  1.00  0.00     0.016 C 
HETATM   10  C4  UNL     1      46.687   0.424  37.059  1.00  0.00     0.002 C 
HETATM   11  C5  UNL     1      46.667  -0.106  35.626  1.00  0.00     0.015 C 
BRANCH   8  12
HETATM   12  C1  UNL     1      44.064   2.459  35.749  1.00  0.00     0.177 C 
HETATM   13  O1  UNL     1      43.973   3.584  36.274  1.00  0.00    -0.648 OA
HETATM   14  O2  UNL     1      42.936   1.792  35.334  1.00  0.00    -0.648 OA
ENDBRANCH   8  12
ENDBRANCH   4   7
ENDBRANCH   1   3
BRANCH   1  15
HETATM   15  C8  UNL     1      42.525  -0.881  31.165  1.00  0.00     0.186 C 
HETATM   16  S1  UNL     1      41.266  -1.325  32.081  1.00  0.00    -0.040 SA
BRANCH  15  17
HETATM   17  N3  UNL     1      42.432  -0.868  29.765  1.00  0.00    -0.366 N 
ATOM     18  H3  UNL     1      42.379   0.047  29.317  1.00  0.00     0.161 HD
BRANCH  17  19
HETATM   19  C9  UNL     1      42.402  -2.018  28.894  1.00  0.00     0.122 C 
BRANCH  19  20
HETATM   20  C10 UNL     1      43.665  -2.783  28.992  1.00  0.00     0.024 C 
BRANCH  20  21
HETATM   21  C11 UNL     1      44.390  -2.925  27.674  1.00  0.00    -0.013 C 
HETATM   22  C12 UNL     1      44.720  -1.610  27.042  1.00  0.00     0.005 C 
HETATM   23  C13 UNL     1      44.360  -1.739  25.573  1.00  0.00     0.000 C 
HETATM   24  C14 UNL     1      44.328  -3.234  25.350  1.00  0.00     0.000 C 
HETATM   25  C15 UNL     1      43.644  -3.703  26.643  1.00  0.00     0.005 C 
ENDBRANCH  20  21
ENDBRANCH  19  20
ENDBRANCH  17  19
ENDBRANCH  15  17
ENDBRANCH   1  15
TORSDOF 8
ENDMDL
