MODEL 1
REMARK VINA RESULT: -7.282399378      0.000      0.000
REMARK  7 active torsions:
REMARK  status: ('A' for Active; 'I' for Inactive)
REMARK       I    between atoms: C1_2  and  N1_3 
REMARK       I    between atoms: C1_2  and  N5_21 
REMARK    1  A    between atoms: N1_3  and  C2_5 
REMARK    2  A    between atoms: C2_5  and  C3_6 
REMARK    3  A    between atoms: N2_7  and  N3_9 
REMARK    4  A    between atoms: N3_9  and  C4_11 
REMARK    5  A    between atoms: C4_11  and  N4_13 
REMARK    6  A    between atoms: N4_13  and  C5_15 
REMARK    7  A    between atoms: N5_21  and  C11_23 
ROOT
HETATM    1  C3  UNL     1      43.804  -0.141  33.393  1.00  0.00     0.100 C 
HETATM    2  N2  UNL     1      44.003  -0.283  32.120  1.00  0.00    -0.312 N 
ATOM      3  H2  UNL     1      44.551   0.411  31.612  1.00  0.00     0.185 HD
ENDROOT
BRANCH   1   4
HETATM    4  C2  UNL     1      44.390   1.048  34.081  1.00  0.00     0.170 C 
BRANCH   4   5
HETATM    5  N1  UNL     1      45.809   0.843  34.159  1.00  0.00    -0.338 N 
HETATM    6  C1  UNL     1      46.358   0.037  35.203  1.00  0.00     0.316 C 
HETATM    7  O1  UNL     1      45.552  -0.486  36.049  1.00  0.00    -0.247 OA
HETATM    8  N5  UNL     1      47.752  -0.162  35.277  1.00  0.00    -0.338 N 
ATOM      9  H5  UNL     1      48.348   0.279  34.576  1.00  0.00     0.164 HD
ATOM     10  H1  UNL     1      46.426   1.274  33.470  1.00  0.00     0.164 HD
BRANCH   8  11
HETATM   11  C11 UNL     1      48.369  -0.962  36.303  1.00  0.00     0.088 C 
HETATM   12  C12 UNL     1      49.600  -1.701  35.848  1.00  0.00     0.028 C 
HETATM   13  C13 UNL     1      50.677  -1.443  36.884  1.00  0.00     0.039 C 
HETATM   14  C14 UNL     1      49.877  -1.047  38.108  1.00  0.00     0.172 C 
HETATM   15  F1  UNL     1      49.244  -2.156  38.603  1.00  0.00    -0.249 F 
HETATM   16  C15 UNL     1      48.831  -0.139  37.501  1.00  0.00     0.062 C 
ENDBRANCH   8  11
ENDBRANCH   4   5
ENDBRANCH   1   4
BRANCH   2  17
HETATM   17  N3  UNL     1      43.474  -1.379  31.442  1.00  0.00    -0.277 N 
ATOM     18  H3  UNL     1      43.753  -2.329  31.691  1.00  0.00     0.189 HD
BRANCH  17  19
HETATM   19  C4  UNL     1      42.545  -1.154  30.402  1.00  0.00     0.186 C 
HETATM   20  S1  UNL     1      41.001  -0.804  30.822  1.00  0.00    -0.040 SA
BRANCH  19  21
HETATM   21  N4  UNL     1      42.880  -1.214  29.039  1.00  0.00    -0.361 N 
ATOM     22  H4  UNL     1      42.219  -0.891  28.333  1.00  0.00     0.162 HD
BRANCH  21  23
HETATM   23  C5  UNL     1      44.169  -1.738  28.643  1.00  0.00     0.083 C 
HETATM   24  C6  UNL     1      44.622  -1.037  27.406  1.00  0.00     0.025 C 
HETATM   25  C7  UNL     1      44.976  -1.983  26.281  1.00  0.00     0.002 C 
HETATM   26  C8  UNL     1      43.892  -2.999  26.009  1.00  0.00     0.000 C 
HETATM   27  C9  UNL     1      43.376  -3.656  27.243  1.00  0.00     0.002 C 
HETATM   28  C10 UNL     1      44.134  -3.243  28.486  1.00  0.00     0.025 C 
ENDBRANCH  21  23
ENDBRANCH  19  21
ENDBRANCH  17  19
ENDBRANCH   2  17
TORSDOF 7
ENDMDL
MODEL 2
REMARK VINA RESULT: -7.095450491      1.004      1.268
REMARK  7 active torsions:
REMARK  status: ('A' for Active; 'I' for Inactive)
REMARK       I    between atoms: C1_2  and  N1_3 
REMARK       I    between atoms: C1_2  and  N5_21 
REMARK    1  A    between atoms: N1_3  and  C2_5 
REMARK    2  A    between atoms: C2_5  and  C3_6 
REMARK    3  A    between atoms: N2_7  and  N3_9 
REMARK    4  A    between atoms: N3_9  and  C4_11 
REMARK    5  A    between atoms: C4_11  and  N4_13 
REMARK    6  A    between atoms: N4_13  and  C5_15 
REMARK    7  A    between atoms: N5_21  and  C11_23 
ROOT
HETATM    1  C3  UNL     1      43.725  -0.403  33.215  1.00  0.00     0.100 C 
HETATM    2  N2  UNL     1      43.756  -0.487  31.921  1.00  0.00    -0.312 N 
ATOM      3  H2  UNL     1      44.206   0.249  31.376  1.00  0.00     0.185 HD
ENDROOT
BRANCH   1   4
HETATM    4  C2  UNL     1      44.356   0.781  33.870  1.00  0.00     0.170 C 
BRANCH   4   5
HETATM    5  N1  UNL     1      44.962   0.326  35.091  1.00  0.00    -0.338 N 
HETATM    6  C1  UNL     1      46.359   0.033  35.128  1.00  0.00     0.316 C 
HETATM    7  O1  UNL     1      47.037   0.188  34.053  1.00  0.00    -0.247 OA
HETATM    8  N5  UNL     1      46.951  -0.414  36.328  1.00  0.00    -0.338 N 
ATOM      9  H5  UNL     1      46.362  -0.520  37.155  1.00  0.00     0.164 HD
ATOM     10  H1  UNL     1      44.394   0.212  35.931  1.00  0.00     0.164 HD
BRANCH   8  11
HETATM   11  C11 UNL     1      48.352  -0.728  36.433  1.00  0.00     0.088 C 
HETATM   12  C12 UNL     1      49.003  -0.218  37.692  1.00  0.00     0.028 C 
HETATM   13  C13 UNL     1      49.784  -1.374  38.284  1.00  0.00     0.039 C 
HETATM   14  C14 UNL     1      49.988  -2.286  37.091  1.00  0.00     0.172 C 
HETATM   15  F1  UNL     1      50.897  -1.712  36.243  1.00  0.00    -0.249 F 
HETATM   16  C15 UNL     1      48.627  -2.228  36.434  1.00  0.00     0.062 C 
ENDBRANCH   8  11
ENDBRANCH   4   5
ENDBRANCH   1   4
BRANCH   2  17
HETATM   17  N3  UNL     1      43.179  -1.576  31.272  1.00  0.00    -0.277 N 
ATOM     18  H3  UNL     1      43.389  -2.529  31.570  1.00  0.00     0.189 HD
BRANCH  17  19
HETATM   19  C4  UNL     1      42.299  -1.339  30.193  1.00  0.00     0.186 C 
HETATM   20  S1  UNL     1      40.780  -0.837  30.544  1.00  0.00    -0.040 SA
BRANCH  19  21
HETATM   21  N4  UNL     1      42.663  -1.510  28.847  1.00  0.00    -0.361 N 
ATOM     22  H4  UNL     1      41.972  -1.379  28.107  1.00  0.00     0.162 HD
BRANCH  21  23
HETATM   23  C5  UNL     1      44.023  -1.873  28.514  1.00  0.00     0.083 C 
HETATM   24  C6  UNL     1      44.469  -1.068  27.340  1.00  0.00     0.025 C 
HETATM   25  C7  UNL     1      44.993  -1.916  26.202  1.00  0.00     0.002 C 
HETATM   26  C8  UNL     1      44.047  -3.028  25.818  1.00  0.00     0.000 C 
HETATM   27  C9  UNL     1      43.533  -3.795  26.988  1.00  0.00     0.002 C 
HETATM   28  C10 UNL     1      44.164  -3.363  28.294  1.00  0.00     0.025 C 
ENDBRANCH  21  23
ENDBRANCH  19  21
ENDBRANCH  17  19
ENDBRANCH   2  17
TORSDOF 7
ENDMDL
MODEL 3
REMARK VINA RESULT: -6.895648572      3.673      9.009
REMARK  7 active torsions:
REMARK  status: ('A' for Active; 'I' for Inactive)
REMARK       I    between atoms: C1_2  and  N1_3 
REMARK       I    between atoms: C1_2  and  N5_21 
REMARK    1  A    between atoms: N1_3  and  C2_5 
REMARK    2  A    between atoms: C2_5  and  C3_6 
REMARK    3  A    between atoms: N2_7  and  N3_9 
REMARK    4  A    between atoms: N3_9  and  C4_11 
REMARK    5  A    between atoms: C4_11  and  N4_13 
REMARK    6  A    between atoms: N4_13  and  C5_15 
REMARK    7  A    between atoms: N5_21  and  C11_23 
ROOT
HETATM    1  C3  UNL     1      44.052   0.437  34.344  1.00  0.00     0.100 C 
HETATM    2  N2  UNL     1      45.324   0.270  34.538  1.00  0.00    -0.312 N 
ATOM      3  H2  UNL     1      45.805  -0.515  34.100  1.00  0.00     0.185 HD
ENDROOT
BRANCH   1   4
HETATM    4  C2  UNL     1      43.328  -0.538  33.475  1.00  0.00     0.170 C 
BRANCH   4   5
HETATM    5  N1  UNL     1      43.961  -0.518  32.185  1.00  0.00    -0.338 N 
HETATM    6  C1  UNL     1      43.440  -1.317  31.122  1.00  0.00     0.316 C 
HETATM    7  O1  UNL     1      42.409  -2.037  31.358  1.00  0.00    -0.247 OA
HETATM    8  N5  UNL     1      44.064  -1.295  29.857  1.00  0.00    -0.338 N 
ATOM      9  H5  UNL     1      44.884  -0.702  29.726  1.00  0.00     0.164 HD
ATOM     10  H1  UNL     1      44.783   0.066  32.029  1.00  0.00     0.164 HD
BRANCH   8  11
HETATM   11  C11 UNL     1      43.591  -2.077  28.744  1.00  0.00     0.088 C 
HETATM   12  C12 UNL     1      43.934  -1.496  27.397  1.00  0.00     0.028 C 
HETATM   13  C13 UNL     1      44.524  -2.622  26.570  1.00  0.00     0.039 C 
HETATM   14  C14 UNL     1      43.995  -3.861  27.264  1.00  0.00     0.172 C 
HETATM   15  F1  UNL     1      42.654  -3.973  27.011  1.00  0.00    -0.249 F 
HETATM   16  C15 UNL     1      44.170  -3.487  28.719  1.00  0.00     0.062 C 
ENDBRANCH   8  11
ENDBRANCH   4   5
ENDBRANCH   1   4
BRANCH   2  17
HETATM   17  N3  UNL     1      46.036   1.158  35.342  1.00  0.00    -0.277 N 
ATOM     18  H3  UNL     1      46.151   2.133  35.063  1.00  0.00     0.189 HD
BRANCH  17  19
HETATM   19  C4  UNL     1      46.595   0.686  36.550  1.00  0.00     0.186 C 
HETATM   20  S1  UNL     1      45.661   0.738  37.894  1.00  0.00    -0.040 SA
BRANCH  19  21
HETATM   21  N4  UNL     1      47.902   0.179  36.650  1.00  0.00    -0.361 N 
ATOM     22  H4  UNL     1      48.671   0.791  36.924  1.00  0.00     0.162 HD
BRANCH  21  23
HETATM   23  C5  UNL     1      48.150  -1.217  36.364  1.00  0.00     0.083 C 
HETATM   24  C6  UNL     1      48.648  -1.888  37.600  1.00  0.00     0.025 C 
HETATM   25  C7  UNL     1      49.959  -2.614  37.395  1.00  0.00     0.002 C 
HETATM   26  C8  UNL     1      51.010  -1.751  36.739  1.00  0.00     0.000 C 
HETATM   27  C9  UNL     1      50.506  -1.015  35.545  1.00  0.00     0.002 C 
HETATM   28  C10 UNL     1      49.084  -1.386  35.185  1.00  0.00     0.025 C 
ENDBRANCH  21  23
ENDBRANCH  19  21
ENDBRANCH  17  19
ENDBRANCH   2  17
TORSDOF 7
ENDMDL
MODEL 4
REMARK VINA RESULT: -6.687541310      1.385      1.956
REMARK  7 active torsions:
REMARK  status: ('A' for Active; 'I' for Inactive)
REMARK       I    between atoms: C1_2  and  N1_3 
REMARK       I    between atoms: C1_2  and  N5_21 
REMARK    1  A    between atoms: N1_3  and  C2_5 
REMARK    2  A    between atoms: C2_5  and  C3_6 
REMARK    3  A    between atoms: N2_7  and  N3_9 
REMARK    4  A    between atoms: N3_9  and  C4_11 
REMARK    5  A    between atoms: C4_11  and  N4_13 
REMARK    6  A    between atoms: N4_13  and  C5_15 
REMARK    7  A    between atoms: N5_21  and  C11_23 
ROOT
HETATM    1  C3  UNL     1      44.287   1.413  34.443  1.00  0.00     0.100 C 
HETATM    2  N2  UNL     1      44.174   0.232  33.917  1.00  0.00    -0.312 N 
ATOM      3  H2  UNL     1      44.325  -0.596  34.494  1.00  0.00     0.185 HD
ENDROOT
BRANCH   1   4
HETATM    4  C2  UNL     1      44.639   1.521  35.890  1.00  0.00     0.170 C 
BRANCH   4   5
HETATM    5  N1  UNL     1      46.072   1.494  35.988  1.00  0.00    -0.338 N 
HETATM    6  C1  UNL     1      46.750   0.254  36.197  1.00  0.00     0.316 C 
HETATM    7  O1  UNL     1      46.046  -0.810  36.293  1.00  0.00    -0.247 OA
HETATM    8  N5  UNL     1      48.157   0.232  36.293  1.00  0.00    -0.338 N 
ATOM      9  H5  UNL     1      48.668   1.111  36.209  1.00  0.00     0.164 HD
ATOM     10  H1  UNL     1      46.605   2.360  35.908  1.00  0.00     0.164 HD
BRANCH   8  11
HETATM   11  C11 UNL     1      48.901  -0.983  36.504  1.00  0.00     0.088 C 
HETATM   12  C12 UNL     1      50.024  -1.193  35.522  1.00  0.00     0.028 C 
HETATM   13  C13 UNL     1      51.256  -1.550  36.331  1.00  0.00     0.039 C 
HETATM   14  C14 UNL     1      50.668  -2.050  37.634  1.00  0.00     0.172 C 
HETATM   15  F1  UNL     1      50.086  -3.271  37.419  1.00  0.00    -0.249 F 
HETATM   16  C15 UNL     1      49.568  -1.040  37.875  1.00  0.00     0.062 C 
ENDBRANCH   8  11
ENDBRANCH   4   5
ENDBRANCH   1   4
BRANCH   2  17
HETATM   17  N3  UNL     1      43.847   0.089  32.571  1.00  0.00    -0.277 N 
ATOM     18  H3  UNL     1      43.849   0.897  31.947  1.00  0.00     0.189 HD
BRANCH  17  19
HETATM   19  C4  UNL     1      43.513  -1.194  32.083  1.00  0.00     0.186 C 
HETATM   20  S1  UNL     1      42.644  -2.179  33.061  1.00  0.00    -0.040 SA
BRANCH  19  21
HETATM   21  N4  UNL     1      43.886  -1.658  30.810  1.00  0.00    -0.361 N 
ATOM     22  H4  UNL     1      44.768  -1.360  30.394  1.00  0.00     0.162 HD
BRANCH  21  23
HETATM   23  C5  UNL     1      43.012  -2.561  30.095  1.00  0.00     0.083 C 
HETATM   24  C6  UNL     1      43.717  -3.860  29.886  1.00  0.00     0.025 C 
HETATM   25  C7  UNL     1      43.751  -4.292  28.437  1.00  0.00     0.002 C 
HETATM   26  C8  UNL     1      44.249  -3.206  27.514  1.00  0.00     0.000 C 
HETATM   27  C9  UNL     1      43.608  -1.883  27.760  1.00  0.00     0.002 C 
HETATM   28  C10 UNL     1      42.514  -1.948  28.804  1.00  0.00     0.025 C 
ENDBRANCH  21  23
ENDBRANCH  19  21
ENDBRANCH  17  19
ENDBRANCH   2  17
TORSDOF 7
ENDMDL
MODEL 5
REMARK VINA RESULT: -6.676933882      3.642      9.168
REMARK  7 active torsions:
REMARK  status: ('A' for Active; 'I' for Inactive)
REMARK       I    between atoms: C1_2  and  N1_3 
REMARK       I    between atoms: C1_2  and  N5_21 
REMARK    1  A    between atoms: N1_3  and  C2_5 
REMARK    2  A    between atoms: C2_5  and  C3_6 
REMARK    3  A    between atoms: N2_7  and  N3_9 
REMARK    4  A    between atoms: N3_9  and  C4_11 
REMARK    5  A    between atoms: C4_11  and  N4_13 
REMARK    6  A    between atoms: N4_13  and  C5_15 
REMARK    7  A    between atoms: N5_21  and  C11_23 
ROOT
HETATM    1  C3  UNL     1      44.116   0.210  34.450  1.00  0.00     0.100 C 
HETATM    2  N2  UNL     1      45.396   0.240  34.241  1.00  0.00    -0.312 N 
ATOM      3  H2  UNL     1      45.789  -0.245  33.434  1.00  0.00     0.185 HD
ENDROOT
BRANCH   1   4
HETATM    4  C2  UNL     1      43.252  -0.540  33.491  1.00  0.00     0.170 C 
BRANCH   4   5
HETATM    5  N1  UNL     1      43.907  -0.519  32.213  1.00  0.00    -0.338 N 
HETATM    6  C1  UNL     1      43.399  -1.308  31.136  1.00  0.00     0.316 C 
HETATM    7  O1  UNL     1      42.358  -2.021  31.350  1.00  0.00    -0.247 OA
HETATM    8  N5  UNL     1      44.046  -1.284  29.883  1.00  0.00    -0.338 N 
ATOM      9  H5  UNL     1      44.872  -0.697  29.769  1.00  0.00     0.164 HD
ATOM     10  H1  UNL     1      44.736   0.060  32.075  1.00  0.00     0.164 HD
BRANCH   8  11
HETATM   11  C11 UNL     1      43.586  -2.056  28.758  1.00  0.00     0.088 C 
HETATM   12  C12 UNL     1      43.942  -1.462  27.420  1.00  0.00     0.028 C 
HETATM   13  C13 UNL     1      44.543  -2.579  26.589  1.00  0.00     0.039 C 
HETATM   14  C14 UNL     1      44.010  -3.825  27.265  1.00  0.00     0.172 C 
HETATM   15  F1  UNL     1      42.672  -3.938  26.997  1.00  0.00    -0.249 F 
HETATM   16  C15 UNL     1      44.169  -3.465  28.725  1.00  0.00     0.062 C 
ENDBRANCH   8  11
ENDBRANCH   4   5
ENDBRANCH   1   4
BRANCH   2  17
HETATM   17  N3  UNL     1      46.236   0.929  35.112  1.00  0.00    -0.277 N 
ATOM     18  H3  UNL     1      46.568   1.866  34.881  1.00  0.00     0.189 HD
BRANCH  17  19
HETATM   19  C4  UNL     1      46.622   0.310  36.321  1.00  0.00     0.186 C 
HETATM   20  S1  UNL     1      45.815   0.727  37.684  1.00  0.00    -0.040 SA
BRANCH  19  21
HETATM   21  N4  UNL     1      47.654  -0.640  36.408  1.00  0.00    -0.361 N 
ATOM     22  H4  UNL     1      47.452  -1.632  36.280  1.00  0.00     0.162 HD
BRANCH  21  23
HETATM   23  C5  UNL     1      49.006  -0.203  36.679  1.00  0.00     0.083 C 
HETATM   24  C6  UNL     1      49.931  -0.843  35.699  1.00  0.00     0.025 C 
HETATM   25  C7  UNL     1      51.073  -1.585  36.357  1.00  0.00     0.002 C 
HETATM   26  C8  UNL     1      50.609  -2.543  37.428  1.00  0.00     0.000 C 
HETATM   27  C9  UNL     1      49.625  -1.940  38.372  1.00  0.00     0.002 C 
HETATM   28  C10 UNL     1      49.398  -0.466  38.117  1.00  0.00     0.025 C 
ENDBRANCH  21  23
ENDBRANCH  19  21
ENDBRANCH  17  19
ENDBRANCH   2  17
TORSDOF 7
ENDMDL
