MODEL 1
REMARK VINA RESULT: -6.619472122      0.000      0.000
REMARK  7 active torsions:
REMARK  status: ('A' for Active; 'I' for Inactive)
REMARK       I    between atoms: N1_2  and  C2_4 
REMARK    1  A    between atoms: C2_4  and  C3_6 
REMARK    2  A    between atoms: C5_13  and  N4_14 
REMARK    3  A    between atoms: N4_14  and  C6_16 
REMARK    4  A    between atoms: C6_16  and  C7_17 
REMARK    5  A    between atoms: C7_17  and  C8_18 
REMARK    6  A    between atoms: C8_18  and  N5_20 
REMARK    7  A    between atoms: N5_20  and  C9_22 
ROOT
HETATM    1  N4  UNL     1      44.005  -1.023  28.497  1.00  0.00    -0.374 N 
ATOM      2  H4  UNL     1      44.874  -0.686  28.911  1.00  0.00     0.161 HD
ENDROOT
BRANCH   1   3
HETATM    3  C5  UNL     1      44.091  -1.471  27.330  1.00  0.00     0.135 A 
HETATM    4  C3  UNL     1      43.979  -2.824  26.975  1.00  0.00     0.116 A 
HETATM    5  C4  UNL     1      44.133  -2.869  25.616  1.00  0.00     0.137 A 
HETATM    6 CL1  UNL     1      44.093  -4.295  24.580  1.00  0.00    -0.062 Cl
HETATM    7  N2  UNL     1      44.327  -1.606  25.175  1.00  0.00    -0.287 N 
HETATM    8  N3  UNL     1      44.298  -0.792  26.211  1.00  0.00    -0.284 N 
ATOM      9  H2  UNL     1      44.470  -1.330  24.203  1.00  0.00     0.188 HD
ATOM     10  H3  UNL     1      44.418   0.220  26.159  1.00  0.00     0.188 HD
BRANCH   4  11
HETATM   11  C2  UNL     1      43.747  -3.915  27.921  1.00  0.00     0.258 C 
HETATM   12  N1  UNL     1      42.705  -4.835  27.899  1.00  0.00    -0.361 N 
HETATM   13  C1  UNL     1      42.588  -5.881  28.911  1.00  0.00     0.149 C 
ATOM     14  H1  UNL     1      42.005  -4.777  27.160  1.00  0.00     0.162 HD
HETATM   15  O1  UNL     1      44.592  -4.048  28.883  1.00  0.00    -0.267 OA
ENDBRANCH   4  11
ENDBRANCH   1   3
BRANCH   1  16
HETATM   16  C6  UNL     1      42.845  -0.927  29.317  1.00  0.00     0.128 C 
BRANCH  16  17
HETATM   17  C7  UNL     1      43.042  -1.499  30.703  1.00  0.00     0.089 C 
BRANCH  17  18
HETATM   18  C8  UNL     1      42.078  -2.599  30.944  1.00  0.00     0.075 C 
HETATM   19  S1  UNL     1      42.446  -3.646  32.173  1.00  0.00    -0.066 SA
BRANCH  18  20
HETATM   20  N5  UNL     1      40.893  -2.801  30.206  1.00  0.00    -0.380 N 
ATOM     21  H5  UNL     1      40.979  -3.180  29.264  1.00  0.00     0.160 HD
BRANCH  20  22
HETATM   22  C9  UNL     1      39.563  -2.505  30.697  1.00  0.00     0.082 C 
HETATM   23  C10 UNL     1      39.432  -1.006  30.880  1.00  0.00     0.025 C 
HETATM   24  C11 UNL     1      38.159  -0.600  31.563  1.00  0.00     0.002 C 
HETATM   25  C12 UNL     1      37.007  -1.421  30.990  1.00  0.00     0.000 C 
HETATM   26  C13 UNL     1      37.434  -1.910  29.633  1.00  0.00     0.002 C 
HETATM   27  C14 UNL     1      38.484  -2.981  29.786  1.00  0.00     0.025 C 
ENDBRANCH  20  22
ENDBRANCH  18  20
ENDBRANCH  17  18
ENDBRANCH  16  17
ENDBRANCH   1  16
TORSDOF 7
ENDMDL
MODEL 2
REMARK VINA RESULT: -6.547697108      3.212      4.863
REMARK  7 active torsions:
REMARK  status: ('A' for Active; 'I' for Inactive)
REMARK       I    between atoms: N1_2  and  C2_4 
REMARK    1  A    between atoms: C2_4  and  C3_6 
REMARK    2  A    between atoms: C5_13  and  N4_14 
REMARK    3  A    between atoms: N4_14  and  C6_16 
REMARK    4  A    between atoms: C6_16  and  C7_17 
REMARK    5  A    between atoms: C7_17  and  C8_18 
REMARK    6  A    between atoms: C8_18  and  N5_20 
REMARK    7  A    between atoms: N5_20  and  C9_22 
ROOT
HETATM    1  N4  UNL     1      44.186  -1.215  28.989  1.00  0.00    -0.374 N 
ATOM      2  H4  UNL     1      45.060  -0.896  29.407  1.00  0.00     0.161 HD
ENDROOT
BRANCH   1   3
HETATM    3  C5  UNL     1      44.248  -1.564  27.788  1.00  0.00     0.135 A 
HETATM    4  C3  UNL     1      44.054  -2.871  27.316  1.00  0.00     0.116 A 
HETATM    5  C4  UNL     1      44.210  -2.808  25.958  1.00  0.00     0.137 A 
HETATM    6 CL1  UNL     1      44.085  -4.133  24.803  1.00  0.00    -0.062 Cl
HETATM    7  N2  UNL     1      44.484  -1.526  25.628  1.00  0.00    -0.287 N 
HETATM    8  N3  UNL     1      44.502  -0.805  26.731  1.00  0.00    -0.284 N 
ATOM      9  H2  UNL     1      44.649  -1.177  24.684  1.00  0.00     0.188 HD
ATOM     10  H3  UNL     1      44.686   0.198  26.767  1.00  0.00     0.188 HD
BRANCH   4  11
HETATM   11  C2  UNL     1      43.750  -4.023  28.164  1.00  0.00     0.258 C 
HETATM   12  N1  UNL     1      42.649  -4.866  28.069  1.00  0.00    -0.361 N 
HETATM   13  C1  UNL     1      42.463  -5.988  28.986  1.00  0.00     0.149 C 
ATOM     14  H1  UNL     1      41.954  -4.697  27.343  1.00  0.00     0.162 HD
HETATM   15  O1  UNL     1      44.585  -4.297  29.104  1.00  0.00    -0.267 OA
ENDBRANCH   4  11
ENDBRANCH   1   3
BRANCH   1  16
HETATM   16  C6  UNL     1      43.048  -1.207  29.843  1.00  0.00     0.128 C 
BRANCH  16  17
HETATM   17  C7  UNL     1      43.314  -1.814  31.202  1.00  0.00     0.089 C 
BRANCH  17  18
HETATM   18  C8  UNL     1      43.064  -0.814  32.268  1.00  0.00     0.075 C 
HETATM   19  S1  UNL     1      41.539  -0.788  32.911  1.00  0.00    -0.066 SA
BRANCH  18  20
HETATM   20  N5  UNL     1      44.026   0.095  32.754  1.00  0.00    -0.380 N 
ATOM     21  H5  UNL     1      44.468   0.723  32.084  1.00  0.00     0.160 HD
BRANCH  20  22
HETATM   22  C9  UNL     1      44.429   0.196  34.142  1.00  0.00     0.082 C 
HETATM   23  C10 UNL     1      45.943   0.216  34.210  1.00  0.00     0.025 C 
HETATM   24  C11 UNL     1      46.476   0.129  35.611  1.00  0.00     0.002 C 
HETATM   25  C12 UNL     1      45.641   1.031  36.514  1.00  0.00     0.000 C 
HETATM   26  C13 UNL     1      44.982   2.061  35.637  1.00  0.00     0.002 C 
HETATM   27  C14 UNL     1      43.895   1.411  34.819  1.00  0.00     0.025 C 
ENDBRANCH  20  22
ENDBRANCH  18  20
ENDBRANCH  17  18
ENDBRANCH  16  17
ENDBRANCH   1  16
TORSDOF 7
ENDMDL
MODEL 3
REMARK VINA RESULT: -6.495186385      2.794      4.341
REMARK  7 active torsions:
REMARK  status: ('A' for Active; 'I' for Inactive)
REMARK       I    between atoms: N1_2  and  C2_4 
REMARK    1  A    between atoms: C2_4  and  C3_6 
REMARK    2  A    between atoms: C5_13  and  N4_14 
REMARK    3  A    between atoms: N4_14  and  C6_16 
REMARK    4  A    between atoms: C6_16  and  C7_17 
REMARK    5  A    between atoms: C7_17  and  C8_18 
REMARK    6  A    between atoms: C8_18  and  N5_20 
REMARK    7  A    between atoms: N5_20  and  C9_22 
ROOT
HETATM    1  N4  UNL     1      43.510  -1.109  28.863  1.00  0.00    -0.374 N 
ATOM      2  H4  UNL     1      44.236  -0.614  29.382  1.00  0.00     0.161 HD
ENDROOT
BRANCH   1   3
HETATM    3  C5  UNL     1      43.823  -1.496  27.714  1.00  0.00     0.135 A 
HETATM    4  C3  UNL     1      43.914  -2.837  27.311  1.00  0.00     0.116 A 
HETATM    5  C4  UNL     1      44.281  -2.810  25.994  1.00  0.00     0.137 A 
HETATM    6 CL1  UNL     1      44.555  -4.187  24.929  1.00  0.00    -0.062 Cl
HETATM    7  N2  UNL     1      44.405  -1.516  25.621  1.00  0.00    -0.287 N 
HETATM    8  N3  UNL     1      44.129  -0.753  26.660  1.00  0.00    -0.284 N 
ATOM      9  H2  UNL     1      44.668  -1.187  24.692  1.00  0.00     0.188 HD
ATOM     10  H3  UNL     1      44.147   0.266  26.654  1.00  0.00     0.188 HD
BRANCH   4  11
HETATM   11  C2  UNL     1      43.655  -3.985  28.180  1.00  0.00     0.258 C 
HETATM   12  N1  UNL     1      42.618  -4.904  28.067  1.00  0.00    -0.361 N 
HETATM   13  C1  UNL     1      42.472  -6.011  29.008  1.00  0.00     0.149 C 
ATOM     14  H1  UNL     1      41.943  -4.803  27.309  1.00  0.00     0.162 HD
HETATM   15  O1  UNL     1      44.468  -4.175  29.160  1.00  0.00    -0.267 OA
ENDBRANCH   4  11
ENDBRANCH   1   3
BRANCH   1  16
HETATM   16  C6  UNL     1      42.266  -1.274  29.537  1.00  0.00     0.128 C 
BRANCH  16  17
HETATM   17  C7  UNL     1      42.241  -0.646  30.912  1.00  0.00     0.089 C 
BRANCH  17  18
HETATM   18  C8  UNL     1      43.206  -1.331  31.805  1.00  0.00     0.075 C 
HETATM   19  S1  UNL     1      42.894  -2.921  32.145  1.00  0.00    -0.066 SA
BRANCH  18  20
HETATM   20  N5  UNL     1      44.347  -0.723  32.368  1.00  0.00    -0.380 N 
ATOM     21  H5  UNL     1      45.260  -1.093  32.106  1.00  0.00     0.160 HD
BRANCH  20  22
HETATM   22  C9  UNL     1      44.308   0.391  33.293  1.00  0.00     0.082 C 
HETATM   23  C10 UNL     1      43.386   0.038  34.443  1.00  0.00     0.025 C 
HETATM   24  C11 UNL     1      43.122   1.191  35.368  1.00  0.00     0.002 C 
HETATM   25  C12 UNL     1      44.430   1.935  35.615  1.00  0.00     0.000 C 
HETATM   26  C13 UNL     1      45.555   0.980  35.323  1.00  0.00     0.002 C 
HETATM   27  C14 UNL     1      45.650   0.747  33.836  1.00  0.00     0.025 C 
ENDBRANCH  20  22
ENDBRANCH  18  20
ENDBRANCH  17  18
ENDBRANCH  16  17
ENDBRANCH   1  16
TORSDOF 7
ENDMDL
MODEL 4
REMARK VINA RESULT: -6.486701049      6.025      8.304
REMARK  7 active torsions:
REMARK  status: ('A' for Active; 'I' for Inactive)
REMARK       I    between atoms: N1_2  and  C2_4 
REMARK    1  A    between atoms: C2_4  and  C3_6 
REMARK    2  A    between atoms: C5_13  and  N4_14 
REMARK    3  A    between atoms: N4_14  and  C6_16 
REMARK    4  A    between atoms: C6_16  and  C7_17 
REMARK    5  A    between atoms: C7_17  and  C8_18 
REMARK    6  A    between atoms: C8_18  and  N5_20 
REMARK    7  A    between atoms: N5_20  and  C9_22 
ROOT
HETATM    1  N4  UNL     1      44.255   0.857  33.736  1.00  0.00    -0.374 N 
ATOM      2  H4  UNL     1      45.061   0.920  33.115  1.00  0.00     0.161 HD
ENDROOT
BRANCH   1   3
HETATM    3  C5  UNL     1      44.242   1.657  34.700  1.00  0.00     0.135 A 
HETATM    4  C3  UNL     1      45.018   1.532  35.864  1.00  0.00     0.116 A 
HETATM    5  C4  UNL     1      44.698   2.607  36.646  1.00  0.00     0.137 A 
HETATM    6 CL1  UNL     1      45.345   3.006  38.236  1.00  0.00    -0.062 Cl
HETATM    7  N2  UNL     1      43.776   3.344  35.987  1.00  0.00    -0.287 N 
HETATM    8  N3  UNL     1      43.520   2.760  34.833  1.00  0.00    -0.284 N 
ATOM      9  H2  UNL     1      43.350   4.207  36.326  1.00  0.00     0.188 HD
ATOM     10  H3  UNL     1      42.859   3.108  34.139  1.00  0.00     0.188 HD
BRANCH   4  11
HETATM   11  C2  UNL     1      45.959   0.442  36.121  1.00  0.00     0.258 C 
HETATM   12  N1  UNL     1      47.326   0.552  36.349  1.00  0.00    -0.361 N 
HETATM   13  C1  UNL     1      48.157  -0.624  36.594  1.00  0.00     0.149 C 
ATOM     14  H1  UNL     1      47.759   1.475  36.344  1.00  0.00     0.162 HD
HETATM   15  O1  UNL     1      45.481  -0.753  36.141  1.00  0.00    -0.267 OA
ENDBRANCH   4  11
ENDBRANCH   1   3
BRANCH   1  16
HETATM   16  C6  UNL     1      43.284  -0.129  33.400  1.00  0.00     0.128 C 
BRANCH  16  17
HETATM   17  C7  UNL     1      43.697  -1.005  32.239  1.00  0.00     0.089 C 
BRANCH  17  18
HETATM   18  C8  UNL     1      42.715  -0.888  31.135  1.00  0.00     0.075 C 
HETATM   19  S1  UNL     1      41.117  -1.009  31.555  1.00  0.00    -0.066 SA
BRANCH  18  20
HETATM   20  N5  UNL     1      43.052  -0.684  29.782  1.00  0.00    -0.380 N 
ATOM     21  H5  UNL     1      42.842   0.225  29.371  1.00  0.00     0.160 HD
BRANCH  20  22
HETATM   22  C9  UNL     1      43.678  -1.680  28.935  1.00  0.00     0.082 C 
HETATM   23  C10 UNL     1      42.601  -2.581  28.365  1.00  0.00     0.025 C 
HETATM   24  C11 UNL     1      43.149  -3.765  27.622  1.00  0.00     0.002 C 
HETATM   25  C12 UNL     1      44.323  -3.308  26.761  1.00  0.00     0.000 C 
HETATM   26  C13 UNL     1      44.167  -1.829  26.535  1.00  0.00     0.002 C 
HETATM   27  C14 UNL     1      44.460  -1.086  27.814  1.00  0.00     0.025 C 
ENDBRANCH  20  22
ENDBRANCH  18  20
ENDBRANCH  17  18
ENDBRANCH  16  17
ENDBRANCH   1  16
TORSDOF 7
ENDMDL
MODEL 5
REMARK VINA RESULT: -6.401017746      2.818      4.412
REMARK  7 active torsions:
REMARK  status: ('A' for Active; 'I' for Inactive)
REMARK       I    between atoms: N1_2  and  C2_4 
REMARK    1  A    between atoms: C2_4  and  C3_6 
REMARK    2  A    between atoms: C5_13  and  N4_14 
REMARK    3  A    between atoms: N4_14  and  C6_16 
REMARK    4  A    between atoms: C6_16  and  C7_17 
REMARK    5  A    between atoms: C7_17  and  C8_18 
REMARK    6  A    between atoms: C8_18  and  N5_20 
REMARK    7  A    between atoms: N5_20  and  C9_22 
ROOT
HETATM    1  N4  UNL     1      43.936  -1.145  28.910  1.00  0.00    -0.374 N 
ATOM      2  H4  UNL     1      44.769  -0.775  29.367  1.00  0.00     0.161 HD
ENDROOT
BRANCH   1   3
HETATM    3  C5  UNL     1      44.084  -1.531  27.728  1.00  0.00     0.135 A 
HETATM    4  C3  UNL     1      43.995  -2.864  27.296  1.00  0.00     0.116 A 
HETATM    5  C4  UNL     1      44.220  -2.837  25.947  1.00  0.00     0.137 A 
HETATM    6 CL1  UNL     1      44.239  -4.206  24.837  1.00  0.00    -0.062 Cl
HETATM    7  N2  UNL     1      44.433  -1.553  25.583  1.00  0.00    -0.287 N 
HETATM    8  N3  UNL     1      44.348  -0.794  26.658  1.00  0.00    -0.284 N 
ATOM      9  H2  UNL     1      44.627  -1.226  24.636  1.00  0.00     0.188 HD
ATOM     10  H3  UNL     1      44.467   0.219  26.666  1.00  0.00     0.188 HD
BRANCH   4  11
HETATM   11  C2  UNL     1      43.717  -4.003  28.169  1.00  0.00     0.258 C 
HETATM   12  N1  UNL     1      42.660  -4.901  28.064  1.00  0.00    -0.361 N 
HETATM   13  C1  UNL     1      42.496  -6.002  29.010  1.00  0.00     0.149 C 
ATOM     14  H1  UNL     1      41.984  -4.788  27.310  1.00  0.00     0.162 HD
HETATM   15  O1  UNL     1      44.530  -4.207  29.146  1.00  0.00    -0.267 OA
ENDBRANCH   4  11
ENDBRANCH   1   3
BRANCH   1  16
HETATM   16  C6  UNL     1      42.749  -1.161  29.696  1.00  0.00     0.128 C 
BRANCH  16  17
HETATM   17  C7  UNL     1      42.986  -1.571  31.132  1.00  0.00     0.089 C 
BRANCH  17  18
HETATM   18  C8  UNL     1      42.003  -0.910  32.023  1.00  0.00     0.075 C 
HETATM   19  S1  UNL     1      40.473  -0.721  31.419  1.00  0.00    -0.066 SA
BRANCH  18  20
HETATM   20  N5  UNL     1      42.287  -0.445  33.323  1.00  0.00    -0.380 N 
ATOM     21  H5  UNL     1      41.521  -0.038  33.860  1.00  0.00     0.160 HD
BRANCH  20  22
HETATM   22  C9  UNL     1      43.593  -0.506  33.947  1.00  0.00     0.082 C 
HETATM   23  C10 UNL     1      44.403   0.695  33.501  1.00  0.00     0.025 C 
HETATM   24  C11 UNL     1      45.838   0.638  33.937  1.00  0.00     0.002 C 
HETATM   25  C12 UNL     1      45.897   0.148  35.380  1.00  0.00     0.000 C 
HETATM   26  C13 UNL     1      44.556   0.421  36.004  1.00  0.00     0.002 C 
HETATM   27  C14 UNL     1      43.529  -0.524  35.436  1.00  0.00     0.025 C 
ENDBRANCH  20  22
ENDBRANCH  18  20
ENDBRANCH  17  18
ENDBRANCH  16  17
ENDBRANCH   1  16
TORSDOF 7
ENDMDL
