MODEL 1
REMARK VINA RESULT: -6.761717230      0.000      0.000
REMARK  6 active torsions:
REMARK  status: ('A' for Active; 'I' for Inactive)
REMARK    1  A    between atoms: C1_2  and  N1_3 
REMARK    2  A    between atoms: C1_2  and  N4_17 
REMARK    3  A    between atoms: C2_5  and  C3_6 
REMARK    4  A    between atoms: N4_17  and  C9_19 
REMARK    5  A    between atoms: C9_19  and  C10_20 
REMARK    6  A    between atoms: C10_20  and  C11_21 
ROOT
HETATM    1  N1  UNL     1      43.523  -0.408  31.329  1.00  0.00    -0.343 N 
ATOM      2  H1  UNL     1      43.737   0.541  31.021  1.00  0.00     0.167 HD
HETATM    3  C2  UNL     1      43.684  -0.736  32.565  1.00  0.00     0.104 C 
ENDROOT
BRANCH   1   4
HETATM    4  C1  UNL     1      43.049  -1.363  30.397  1.00  0.00     0.171 C 
HETATM    5  S1  UNL     1      42.488  -2.780  30.954  1.00  0.00    -0.041 SA
BRANCH   4   6
HETATM    6  N4  UNL     1      43.051  -1.116  29.014  1.00  0.00    -0.367 N 
ATOM      7  H4  UNL     1      42.192  -0.749  28.606  1.00  0.00     0.161 HD
BRANCH   6   8
HETATM    8  C9  UNL     1      44.148  -1.332  28.132  1.00  0.00     0.128 C 
BRANCH   8   9
HETATM    9  C10 UNL     1      43.878  -0.968  26.696  1.00  0.00     0.078 C 
BRANCH   9  10
HETATM   10  C11 UNL     1      44.071  -2.223  25.890  1.00  0.00     0.027 A 
HETATM   11  C12 UNL     1      44.270  -3.501  26.363  1.00  0.00     0.114 A 
HETATM   12  N5  UNL     1      44.388  -4.274  25.275  1.00  0.00    -0.360 N 
HETATM   13  C13 UNL     1      44.272  -3.540  24.170  1.00  0.00     0.180 A 
ATOM     14  H5  UNL     1      44.545  -5.282  25.292  1.00  0.00     0.166 HD
HETATM   15  N6  UNL     1      44.076  -2.270  24.563  1.00  0.00    -0.355 N 
ATOM     16  H6  UNL     1      43.950  -1.471  23.941  1.00  0.00     0.166 HD
ENDBRANCH   9  10
ENDBRANCH   8   9
ENDBRANCH   6   8
ENDBRANCH   4   6
ENDBRANCH   1   4
BRANCH   3  17
HETATM   17  C3  UNL     1      44.170   0.193  33.587  1.00  0.00     0.010 A 
HETATM   18  C4  UNL     1      45.441   0.663  33.818  1.00  0.00     0.103 A 
HETATM   19  N2  UNL     1      45.411   1.513  34.882  1.00  0.00    -0.351 N 
HETATM   20  C5  UNL     1      44.137   1.597  35.345  1.00  0.00     0.117 A 
ATOM     21  H2  UNL     1      46.215   2.005  35.270  1.00  0.00     0.166 HD
HETATM   22  N3  UNL     1      43.327   2.164  36.276  1.00  0.00    -0.350 N 
HETATM   23  C8  UNL     1      43.362   0.778  34.543  1.00  0.00     0.040 A 
HETATM   24  C6  UNL     1      42.058   1.733  36.096  1.00  0.00     0.110 A 
ATOM     25  H3  UNL     1      43.630   2.815  37.001  1.00  0.00     0.166 HD
HETATM   26  C7  UNL     1      42.074   0.876  35.026  1.00  0.00     0.041 A 
HETATM   27 BR1  UNL     1      40.587  -0.076  34.260  1.00  0.00    -0.049 Br
ENDBRANCH   3  17
TORSDOF 6
ENDMDL
MODEL 2
REMARK VINA RESULT: -6.680674104      1.391      1.408
REMARK  6 active torsions:
REMARK  status: ('A' for Active; 'I' for Inactive)
REMARK    1  A    between atoms: C1_2  and  N1_3 
REMARK    2  A    between atoms: C1_2  and  N4_17 
REMARK    3  A    between atoms: C2_5  and  C3_6 
REMARK    4  A    between atoms: N4_17  and  C9_19 
REMARK    5  A    between atoms: C9_19  and  C10_20 
REMARK    6  A    between atoms: C10_20  and  C11_21 
ROOT
HETATM    1  N1  UNL     1      43.802  -0.676  31.710  1.00  0.00    -0.343 N 
ATOM      2  H1  UNL     1      44.704  -1.148  31.637  1.00  0.00     0.167 HD
HETATM    3  C2  UNL     1      43.521   0.018  32.759  1.00  0.00     0.104 C 
ENDROOT
BRANCH   1   4
HETATM    4  C1  UNL     1      42.861  -0.783  30.658  1.00  0.00     0.171 C 
HETATM    5  S1  UNL     1      41.348  -1.251  31.011  1.00  0.00    -0.041 SA
BRANCH   4   6
HETATM    6  N4  UNL     1      43.202  -0.494  29.325  1.00  0.00    -0.367 N 
ATOM      7  H4  UNL     1      42.895   0.404  28.951  1.00  0.00     0.161 HD
BRANCH   6   8
HETATM    8  C9  UNL     1      43.938  -1.344  28.451  1.00  0.00     0.128 C 
BRANCH   8   9
HETATM    9  C10 UNL     1      43.963  -0.893  27.015  1.00  0.00     0.078 C 
BRANCH   9  10
HETATM   10  C11 UNL     1      43.989  -2.140  26.173  1.00  0.00     0.027 A 
HETATM   11  C12 UNL     1      43.782  -3.436  26.589  1.00  0.00     0.114 A 
HETATM   12  N5  UNL     1      43.904  -4.191  25.489  1.00  0.00    -0.360 N 
HETATM   13  C13 UNL     1      44.173  -3.429  24.431  1.00  0.00     0.180 A 
ATOM     14  H5  UNL     1      43.805  -5.206  25.466  1.00  0.00     0.166 HD
HETATM   15  N6  UNL     1      44.224  -2.159  24.867  1.00  0.00    -0.355 N 
ATOM     16  H6  UNL     1      44.412  -1.342  24.286  1.00  0.00     0.166 HD
ENDBRANCH   9  10
ENDBRANCH   8   9
ENDBRANCH   6   8
ENDBRANCH   4   6
ENDBRANCH   1   4
BRANCH   3  17
HETATM   17  C3  UNL     1      44.439   0.177  33.889  1.00  0.00     0.010 A 
HETATM   18  C4  UNL     1      45.719   0.677  33.921  1.00  0.00     0.103 A 
HETATM   19  N2  UNL     1      46.179   0.630  35.202  1.00  0.00    -0.351 N 
HETATM   20  C5  UNL     1      45.214   0.105  36.000  1.00  0.00     0.117 A 
ATOM     21  H2  UNL     1      47.100   0.939  35.512  1.00  0.00     0.166 HD
HETATM   22  N3  UNL     1      44.893  -0.250  37.271  1.00  0.00    -0.350 N 
HETATM   23  C8  UNL     1      44.131  -0.178  35.188  1.00  0.00     0.040 A 
HETATM   24  C6  UNL     1      43.638  -0.751  37.299  1.00  0.00     0.110 A 
ATOM     25  H3  UNL     1      45.505  -0.153  38.081  1.00  0.00     0.166 HD
HETATM   26  C7  UNL     1      43.162  -0.710  36.014  1.00  0.00     0.041 A 
HETATM   27 BR1  UNL     1      41.436  -1.281  35.380  1.00  0.00    -0.049 Br
ENDBRANCH   3  17
TORSDOF 6
ENDMDL
MODEL 3
REMARK VINA RESULT: -6.594053750      0.713      1.046
REMARK  6 active torsions:
REMARK  status: ('A' for Active; 'I' for Inactive)
REMARK    1  A    between atoms: C1_2  and  N1_3 
REMARK    2  A    between atoms: C1_2  and  N4_17 
REMARK    3  A    between atoms: C2_5  and  C3_6 
REMARK    4  A    between atoms: N4_17  and  C9_19 
REMARK    5  A    between atoms: C9_19  and  C10_20 
REMARK    6  A    between atoms: C10_20  and  C11_21 
ROOT
HETATM    1  N1  UNL     1      43.563  -0.387  31.586  1.00  0.00    -0.343 N 
ATOM      2  H1  UNL     1      44.301   0.212  31.216  1.00  0.00     0.167 HD
HETATM    3  C2  UNL     1      43.333  -0.418  32.854  1.00  0.00     0.104 C 
ENDROOT
BRANCH   1   4
HETATM    4  C1  UNL     1      42.791  -1.183  30.706  1.00  0.00     0.171 C 
HETATM    5  S1  UNL     1      41.839  -2.338  31.333  1.00  0.00    -0.041 SA
BRANCH   4   6
HETATM    6  N4  UNL     1      42.826  -0.998  29.313  1.00  0.00    -0.367 N 
ATOM      7  H4  UNL     1      42.053  -0.484  28.892  1.00  0.00     0.161 HD
BRANCH   6   8
HETATM    8  C9  UNL     1      43.848  -1.465  28.438  1.00  0.00     0.128 C 
BRANCH   8   9
HETATM    9  C10 UNL     1      43.776  -2.935  28.120  1.00  0.00     0.078 C 
BRANCH   9  10
HETATM   10  C11 UNL     1      44.052  -3.071  26.647  1.00  0.00     0.027 A 
HETATM   11  C12 UNL     1      44.748  -2.199  25.842  1.00  0.00     0.114 A 
HETATM   12  N5  UNL     1      44.729  -2.745  24.618  1.00  0.00    -0.360 N 
HETATM   13  C13 UNL     1      44.062  -3.897  24.635  1.00  0.00     0.180 A 
ATOM     14  H5  UNL     1      45.164  -2.335  23.791  1.00  0.00     0.166 HD
HETATM   15  N6  UNL     1      43.646  -4.089  25.898  1.00  0.00    -0.355 N 
ATOM     16  H6  UNL     1      43.106  -4.890  26.228  1.00  0.00     0.166 HD
ENDBRANCH   9  10
ENDBRANCH   8   9
ENDBRANCH   6   8
ENDBRANCH   4   6
ENDBRANCH   1   4
BRANCH   3  17
HETATM   17  C3  UNL     1      44.087   0.374  33.828  1.00  0.00     0.010 A 
HETATM   18  C4  UNL     1      45.433   0.644  33.891  1.00  0.00     0.103 A 
HETATM   19  N2  UNL     1      45.675   1.429  34.978  1.00  0.00    -0.351 N 
HETATM   20  C5  UNL     1      44.504   1.670  35.619  1.00  0.00     0.117 A 
ATOM     21  H2  UNL     1      46.590   1.779  35.263  1.00  0.00     0.166 HD
HETATM   22  N3  UNL     1      43.922   2.295  36.675  1.00  0.00    -0.350 N 
HETATM   23  C8  UNL     1      43.513   1.016  34.908  1.00  0.00     0.040 A 
HETATM   24  C6  UNL     1      42.590   2.062  36.663  1.00  0.00     0.110 A 
ATOM     25  H3  UNL     1      44.414   2.855  37.372  1.00  0.00     0.166 HD
HETATM   26  C7  UNL     1      42.332   1.271  35.573  1.00  0.00     0.041 A 
HETATM   27 BR1  UNL     1      40.628   0.586  34.994  1.00  0.00    -0.049 Br
ENDBRANCH   3  17
TORSDOF 6
ENDMDL
MODEL 4
REMARK VINA RESULT: -6.470057236      1.860      2.053
REMARK  6 active torsions:
REMARK  status: ('A' for Active; 'I' for Inactive)
REMARK    1  A    between atoms: C1_2  and  N1_3 
REMARK    2  A    between atoms: C1_2  and  N4_17 
REMARK    3  A    between atoms: C2_5  and  C3_6 
REMARK    4  A    between atoms: N4_17  and  C9_19 
REMARK    5  A    between atoms: C9_19  and  C10_20 
REMARK    6  A    between atoms: C10_20  and  C11_21 
ROOT
HETATM    1  N1  UNL     1      42.573  -0.764  31.081  1.00  0.00    -0.343 N 
ATOM      2  H1  UNL     1      41.697  -0.381  31.437  1.00  0.00     0.167 HD
HETATM    3  C2  UNL     1      43.580  -0.914  31.871  1.00  0.00     0.104 C 
ENDROOT
BRANCH   1   4
HETATM    4  C1  UNL     1      42.681  -1.131  29.718  1.00  0.00     0.171 C 
HETATM    5  S1  UNL     1      41.804  -2.384  29.177  1.00  0.00    -0.041 SA
BRANCH   4   6
HETATM    6  N4  UNL     1      43.522  -0.440  28.827  1.00  0.00    -0.367 N 
ATOM      7  H4  UNL     1      43.518   0.578  28.879  1.00  0.00     0.161 HD
BRANCH   6   8
HETATM    8  C9  UNL     1      44.379  -1.038  27.859  1.00  0.00     0.128 C 
BRANCH   8   9
HETATM    9  C10 UNL     1      43.939  -0.847  26.432  1.00  0.00     0.078 C 
BRANCH   9  10
HETATM   10  C11 UNL     1      44.106  -2.177  25.749  1.00  0.00     0.027 A 
HETATM   11  C12 UNL     1      44.268  -3.409  26.342  1.00  0.00     0.114 A 
HETATM   12  N5  UNL     1      44.373  -4.283  25.332  1.00  0.00    -0.360 N 
HETATM   13  C13 UNL     1      44.285  -3.653  24.162  1.00  0.00     0.180 A 
ATOM     14  H5  UNL     1      44.503  -5.289  25.445  1.00  0.00     0.166 HD
HETATM   15  N6  UNL     1      44.119  -2.348  24.433  1.00  0.00    -0.355 N 
ATOM     16  H6  UNL     1      44.019  -1.608  23.738  1.00  0.00     0.166 HD
ENDBRANCH   9  10
ENDBRANCH   8   9
ENDBRANCH   6   8
ENDBRANCH   4   6
ENDBRANCH   1   4
BRANCH   3  17
HETATM   17  C3  UNL     1      43.549  -0.559  33.291  1.00  0.00     0.010 A 
HETATM   18  C4  UNL     1      44.011   0.568  33.928  1.00  0.00     0.103 A 
HETATM   19  N2  UNL     1      43.759   0.456  35.262  1.00  0.00    -0.351 N 
HETATM   20  C5  UNL     1      43.140  -0.729  35.497  1.00  0.00     0.117 A 
ATOM     21  H2  UNL     1      43.997   1.151  35.970  1.00  0.00     0.166 HD
HETATM   22  N3  UNL     1      42.602  -1.533  36.450  1.00  0.00    -0.350 N 
HETATM   23  C8  UNL     1      43.007  -1.363  34.275  1.00  0.00     0.040 A 
HETATM   24  C6  UNL     1      42.130  -2.663  35.877  1.00  0.00     0.110 A 
ATOM     25  H3  UNL     1      42.561  -1.318  37.447  1.00  0.00     0.166 HD
HETATM   26  C7  UNL     1      42.378  -2.564  34.533  1.00  0.00     0.041 A 
HETATM   27 BR1  UNL     1      41.950  -3.844  33.160  1.00  0.00    -0.049 Br
ENDBRANCH   3  17
TORSDOF 6
ENDMDL
MODEL 5
REMARK VINA RESULT: -6.439081770      4.011      5.948
REMARK  6 active torsions:
REMARK  status: ('A' for Active; 'I' for Inactive)
REMARK    1  A    between atoms: C1_2  and  N1_3 
REMARK    2  A    between atoms: C1_2  and  N4_17 
REMARK    3  A    between atoms: C2_5  and  C3_6 
REMARK    4  A    between atoms: N4_17  and  C9_19 
REMARK    5  A    between atoms: C9_19  and  C10_20 
REMARK    6  A    between atoms: C10_20  and  C11_21 
ROOT
HETATM    1  N1  UNL     1      41.310  -1.141  29.696  1.00  0.00    -0.343 N 
ATOM      2  H1  UNL     1      40.912  -0.933  28.779  1.00  0.00     0.167 HD
HETATM    3  C2  UNL     1      40.574  -1.671  30.612  1.00  0.00     0.104 C 
ENDROOT
BRANCH   1   4
HETATM    4  C1  UNL     1      42.669  -0.849  29.960  1.00  0.00     0.171 C 
HETATM    5  S1  UNL     1      43.239  -1.088  31.461  1.00  0.00    -0.041 SA
BRANCH   4   6
HETATM    6  N4  UNL     1      43.532  -0.362  28.963  1.00  0.00    -0.367 N 
ATOM      7  H4  UNL     1      43.658   0.648  28.911  1.00  0.00     0.161 HD
BRANCH   6   8
HETATM    8  C9  UNL     1      44.245  -1.156  28.020  1.00  0.00     0.128 C 
BRANCH   8   9
HETATM    9  C10 UNL     1      43.895  -0.882  26.581  1.00  0.00     0.078 C 
BRANCH   9  10
HETATM   10  C11 UNL     1      44.084  -2.177  25.838  1.00  0.00     0.027 A 
HETATM   11  C12 UNL     1      44.269  -3.431  26.375  1.00  0.00     0.114 A 
HETATM   12  N5  UNL     1      44.389  -4.257  25.327  1.00  0.00    -0.360 N 
HETATM   13  C13 UNL     1      44.288  -3.577  24.187  1.00  0.00     0.180 A 
ATOM     14  H5  UNL     1      44.536  -5.264  25.394  1.00  0.00     0.166 HD
HETATM   15  N6  UNL     1      44.100  -2.288  24.516  1.00  0.00    -0.355 N 
ATOM     16  H6  UNL     1      43.987  -1.519  23.855  1.00  0.00     0.166 HD
ENDBRANCH   9  10
ENDBRANCH   8   9
ENDBRANCH   6   8
ENDBRANCH   4   6
ENDBRANCH   1   4
BRANCH   3  17
HETATM   17  C3  UNL     1      39.160  -2.002  30.417  1.00  0.00     0.010 A 
HETATM   18  C4  UNL     1      38.052  -1.189  30.449  1.00  0.00     0.103 A 
HETATM   19  N2  UNL     1      36.944  -1.944  30.209  1.00  0.00    -0.351 N 
HETATM   20  C5  UNL     1      37.320  -3.235  30.022  1.00  0.00     0.117 A 
ATOM     21  H2  UNL     1      35.986  -1.596  30.175  1.00  0.00     0.166 HD
HETATM   22  N3  UNL     1      36.884  -4.494  29.760  1.00  0.00    -0.350 N 
HETATM   23  C8  UNL     1      38.697  -3.276  30.151  1.00  0.00     0.040 A 
HETATM   24  C6  UNL     1      37.937  -5.340  29.717  1.00  0.00     0.110 A 
ATOM     25  H3  UNL     1      35.909  -4.761  29.618  1.00  0.00     0.166 HD
HETATM   26  C7  UNL     1      39.061  -4.593  29.959  1.00  0.00     0.041 A 
HETATM   27 BR1  UNL     1      40.886  -5.203  30.034  1.00  0.00    -0.049 Br
ENDBRANCH   3  17
TORSDOF 6
ENDMDL
