MODEL 1
REMARK VINA RESULT: -5.723638138      0.000      0.000
REMARK  8 active torsions:
REMARK  status: ('A' for Active; 'I' for Inactive)
REMARK    1  A    between atoms: C4_4  and  N1_5 
REMARK    2  A    between atoms: C7_8  and  C8_9 
REMARK    3  A    between atoms: C7_8  and  C10_11 
REMARK    4  A    between atoms: C14_17  and  N3_18 
REMARK    5  A    between atoms: C15_23  and  N5_24 
REMARK    6  A    between atoms: N5_24  and  C16_26 
REMARK    7  A    between atoms: C16_26  and  N6_28 
REMARK    8  A    between atoms: N6_28  and  C17_30 
ROOT
HETATM    1  C1  UNL     1      39.719  -3.081  29.474  1.00  0.00     0.103 C 
HETATM    2  C2  UNL     1      40.514  -2.474  30.184  1.00  0.00    -0.141 C 
HETATM    3  C3  UNL     1      41.420  -1.765  31.035  1.00  0.00     0.093 A 
HETATM    4  C4  UNL     1      40.999  -0.998  32.100  1.00  0.00     0.141 A 
HETATM    5  N2  UNL     1      41.959  -0.388  32.826  1.00  0.00    -0.175 N 
ATOM      6  H2  UNL     1      41.682   0.189  33.621  1.00  0.00     0.186 HD
HETATM    7  C14 UNL     1      43.263  -0.513  32.539  1.00  0.00     0.679 A 
HETATM    8  N4  UNL     1      43.706  -1.260  31.498  1.00  0.00    -0.175 N 
ATOM      9  H4  UNL     1      44.701  -1.343  31.293  1.00  0.00     0.186 HD
HETATM   10  C15 UNL     1      42.790  -1.884  30.750  1.00  0.00     0.144 A 
ENDROOT
BRANCH   4  11
HETATM   11  N1  UNL     1      39.626  -0.895  32.370  1.00  0.00    -0.365 N 
HETATM   12  C5  UNL     1      38.886   0.282  31.950  1.00  0.00     0.125 C 
HETATM   13  C6  UNL     1      37.790  -0.241  31.043  1.00  0.00     0.029 C 
HETATM   14  C7  UNL     1      36.787  -1.115  31.819  1.00  0.00    -0.038 C 
HETATM   15  C12 UNL     1      37.406  -1.509  33.104  1.00  0.00     0.029 C 
HETATM   16  C13 UNL     1      38.859  -1.916  33.036  1.00  0.00     0.125 C 
BRANCH  14  17
HETATM   17  C8  UNL     1      36.441  -2.239  30.908  1.00  0.00     0.005 C 
HETATM   18  C9  UNL     1      36.188  -1.936  29.485  1.00  0.00     0.006 C 
ENDBRANCH  14  17
BRANCH  14  19
HETATM   19  C10 UNL     1      35.620  -0.189  32.070  1.00  0.00     0.005 C 
HETATM   20  C11 UNL     1      35.483   0.322  33.456  1.00  0.00     0.006 C 
ENDBRANCH  14  19
ENDBRANCH   4  11
BRANCH  10  21
HETATM   21  N5  UNL     1      43.101  -2.602  29.761  1.00  0.00    -0.318 N 
ATOM     22  H5  UNL     1      43.099  -3.602  29.966  1.00  0.00     0.170 HD
BRANCH  21  23
HETATM   23  C16 UNL     1      43.445  -2.304  28.453  1.00  0.00     0.173 C 
HETATM   24  S1  UNL     1      44.191  -0.909  27.987  1.00  0.00    -0.041 SA
BRANCH  23  25
HETATM   25  N6  UNL     1      43.139  -3.236  27.406  1.00  0.00    -0.367 N 
ATOM     26  H6  UNL     1      42.196  -3.609  27.298  1.00  0.00     0.161 HD
BRANCH  25  27
HETATM   27  C17 UNL     1      44.209  -3.637  26.500  1.00  0.00     0.117 C 
HETATM   28  C18 UNL     1      43.821  -3.382  25.065  1.00  0.00     0.026 C 
ENDBRANCH  25  27
ENDBRANCH  23  25
ENDBRANCH  21  23
ENDBRANCH  10  21
BRANCH   7  29
HETATM   29  N3  UNL     1      44.136   0.096  33.262  1.00  0.00    -0.234 N 
ATOM     30  H32 UNL     1      44.680   0.843  32.831  1.00  0.00     0.174 HD
ATOM     31  H31 UNL     1      44.260  -0.173  34.238  1.00  0.00     0.174 HD
ENDBRANCH   7  29
TORSDOF 8
ENDMDL
MODEL 2
REMARK VINA RESULT: -5.670207363      1.517      1.689
REMARK  8 active torsions:
REMARK  status: ('A' for Active; 'I' for Inactive)
REMARK    1  A    between atoms: C4_4  and  N1_5 
REMARK    2  A    between atoms: C7_8  and  C8_9 
REMARK    3  A    between atoms: C7_8  and  C10_11 
REMARK    4  A    between atoms: C14_17  and  N3_18 
REMARK    5  A    between atoms: C15_23  and  N5_24 
REMARK    6  A    between atoms: N5_24  and  C16_26 
REMARK    7  A    between atoms: C16_26  and  N6_28 
REMARK    8  A    between atoms: N6_28  and  C17_30 
ROOT
HETATM    1  C1  UNL     1      38.516  -1.572  29.929  1.00  0.00     0.103 C 
HETATM    2  C2  UNL     1      39.519  -1.260  30.564  1.00  0.00    -0.141 C 
HETATM    3  C3  UNL     1      40.673  -0.903  31.331  1.00  0.00     0.093 A 
HETATM    4  C4  UNL     1      40.599  -0.499  32.646  1.00  0.00     0.141 A 
HETATM    5  N2  UNL     1      41.764  -0.198  33.255  1.00  0.00    -0.175 N 
ATOM      6  H2  UNL     1      41.747   0.107  34.229  1.00  0.00     0.186 HD
HETATM    7  C14 UNL     1      42.946  -0.284  32.625  1.00  0.00     0.679 A 
HETATM    8  N4  UNL     1      43.049  -0.678  31.332  1.00  0.00    -0.175 N 
ATOM      9  H4  UNL     1      43.954  -0.737  30.868  1.00  0.00     0.186 HD
HETATM   10  C15 UNL     1      41.919  -0.987  30.688  1.00  0.00     0.144 A 
ENDROOT
BRANCH   4  11
HETATM   11  N1  UNL     1      39.345  -0.425  33.272  1.00  0.00    -0.365 N 
HETATM   12  C5  UNL     1      38.687   0.859  33.437  1.00  0.00     0.125 C 
HETATM   13  C6  UNL     1      37.360   0.721  32.720  1.00  0.00     0.029 C 
HETATM   14  C7  UNL     1      36.451  -0.312  33.412  1.00  0.00    -0.038 C 
HETATM   15  C12 UNL     1      37.283  -1.139  34.313  1.00  0.00     0.029 C 
HETATM   16  C13 UNL     1      38.621  -1.571  33.758  1.00  0.00     0.125 C 
BRANCH  14  17
HETATM   17  C8  UNL     1      35.770  -1.052  32.316  1.00  0.00     0.005 C 
HETATM   18  C9  UNL     1      34.905  -0.293  31.390  1.00  0.00     0.006 C 
ENDBRANCH  14  17
BRANCH  14  19
HETATM   19  C10 UNL     1      35.496   0.533  34.224  1.00  0.00     0.005 C 
HETATM   20  C11 UNL     1      35.659   0.464  35.697  1.00  0.00     0.006 C 
ENDBRANCH  14  19
ENDBRANCH   4  11
BRANCH  10  21
HETATM   21  N5  UNL     1      41.909  -1.365  29.485  1.00  0.00    -0.318 N 
ATOM     22  H5  UNL     1      40.998  -1.274  29.035  1.00  0.00     0.170 HD
BRANCH  21  23
HETATM   23  C16 UNL     1      42.890  -1.880  28.653  1.00  0.00     0.173 C 
HETATM   24  S1  UNL     1      43.364  -3.459  28.647  1.00  0.00    -0.041 SA
BRANCH  23  25
HETATM   25  N6  UNL     1      43.568  -1.015  27.732  1.00  0.00    -0.367 N 
ATOM     26  H6  UNL     1      43.396  -0.009  27.736  1.00  0.00     0.161 HD
BRANCH  25  27
HETATM   27  C17 UNL     1      44.511  -1.607  26.790  1.00  0.00     0.117 C 
HETATM   28  C18 UNL     1      44.029  -1.439  25.370  1.00  0.00     0.026 C 
ENDBRANCH  25  27
ENDBRANCH  23  25
ENDBRANCH  21  23
ENDBRANCH  10  21
BRANCH   7  29
HETATM   29  N3  UNL     1      44.027   0.021  33.253  1.00  0.00    -0.234 N 
ATOM     30  H32 UNL     1      44.134   0.979  33.588  1.00  0.00     0.174 HD
ATOM     31  H31 UNL     1      44.741  -0.691  33.406  1.00  0.00     0.174 HD
ENDBRANCH   7  29
TORSDOF 8
ENDMDL
MODEL 3
REMARK VINA RESULT: -5.667493759      7.606      9.832
REMARK  8 active torsions:
REMARK  status: ('A' for Active; 'I' for Inactive)
REMARK    1  A    between atoms: C4_4  and  N1_5 
REMARK    2  A    between atoms: C7_8  and  C8_9 
REMARK    3  A    between atoms: C7_8  and  C10_11 
REMARK    4  A    between atoms: C14_17  and  N3_18 
REMARK    5  A    between atoms: C15_23  and  N5_24 
REMARK    6  A    between atoms: N5_24  and  C16_26 
REMARK    7  A    between atoms: C16_26  and  N6_28 
REMARK    8  A    between atoms: N6_28  and  C17_30 
ROOT
HETATM    1  C1  UNL     1      45.442   2.747  39.956  1.00  0.00     0.103 C 
HETATM    2  C2  UNL     1      45.403   2.400  38.779  1.00  0.00    -0.141 C 
HETATM    3  C3  UNL     1      45.340   2.021  37.401  1.00  0.00     0.093 A 
HETATM    4  C4  UNL     1      44.333   2.437  36.558  1.00  0.00     0.141 A 
HETATM    5  N2  UNL     1      44.396   2.012  35.279  1.00  0.00    -0.175 N 
ATOM      6  H2  UNL     1      43.666   2.301  34.628  1.00  0.00     0.186 HD
HETATM    7  C14 UNL     1      45.387   1.224  34.834  1.00  0.00     0.679 A 
HETATM    8  N4  UNL     1      46.390   0.800  35.641  1.00  0.00    -0.175 N 
ATOM      9  H4  UNL     1      47.135   0.199  35.287  1.00  0.00     0.186 HD
HETATM   10  C15 UNL     1      46.368   1.196  36.917  1.00  0.00     0.144 A 
ENDROOT
BRANCH   4  11
HETATM   11  N1  UNL     1      43.316   3.265  37.060  1.00  0.00    -0.365 N 
HETATM   12  C5  UNL     1      42.010   2.709  37.369  1.00  0.00     0.125 C 
HETATM   13  C6  UNL     1      41.791   3.006  38.839  1.00  0.00     0.029 C 
HETATM   14  C7  UNL     1      41.677   4.520  39.097  1.00  0.00    -0.038 C 
HETATM   15  C12 UNL     1      42.213   5.237  37.919  1.00  0.00     0.029 C 
HETATM   16  C13 UNL     1      43.482   4.670  37.326  1.00  0.00     0.125 C 
BRANCH  14  17
HETATM   17  C8  UNL     1      42.399   4.767  40.374  1.00  0.00     0.005 C 
HETATM   18  C9  UNL     1      41.822   5.738  41.328  1.00  0.00     0.006 C 
ENDBRANCH  14  17
BRANCH  14  19
HETATM   19  C10 UNL     1      40.190   4.756  39.213  1.00  0.00     0.005 C 
HETATM   20  C11 UNL     1      39.551   5.448  38.067  1.00  0.00     0.006 C 
ENDBRANCH  14  19
ENDBRANCH   4  11
BRANCH  10  21
HETATM   21  N5  UNL     1      47.256   0.856  37.746  1.00  0.00    -0.318 N 
ATOM     22  H5  UNL     1      47.340   1.492  38.540  1.00  0.00     0.170 HD
BRANCH  21  23
HETATM   23  C16 UNL     1      48.141  -0.210  37.792  1.00  0.00     0.173 C 
HETATM   24  S1  UNL     1      47.699  -1.767  38.109  1.00  0.00    -0.041 SA
BRANCH  23  25
HETATM   25  N6  UNL     1      49.539   0.016  37.567  1.00  0.00    -0.367 N 
ATOM     26  H6  UNL     1      49.990   0.870  37.895  1.00  0.00     0.161 HD
BRANCH  25  27
HETATM   27  C17 UNL     1      50.301  -1.006  36.859  1.00  0.00     0.117 C 
HETATM   28  C18 UNL     1      51.404  -1.554  37.729  1.00  0.00     0.026 C 
ENDBRANCH  25  27
ENDBRANCH  23  25
ENDBRANCH  21  23
ENDBRANCH  10  21
BRANCH   7  29
HETATM   29  N3  UNL     1      45.396   0.844  33.605  1.00  0.00    -0.234 N 
ATOM     30  H32 UNL     1      46.253   0.975  33.068  1.00  0.00     0.174 HD
ATOM     31  H31 UNL     1      44.560   0.421  33.201  1.00  0.00     0.174 HD
ENDBRANCH   7  29
TORSDOF 8
ENDMDL
MODEL 4
REMARK VINA RESULT: -5.522790683      3.813      6.639
REMARK  8 active torsions:
REMARK  status: ('A' for Active; 'I' for Inactive)
REMARK    1  A    between atoms: C4_4  and  N1_5 
REMARK    2  A    between atoms: C7_8  and  C8_9 
REMARK    3  A    between atoms: C7_8  and  C10_11 
REMARK    4  A    between atoms: C14_17  and  N3_18 
REMARK    5  A    between atoms: C15_23  and  N5_24 
REMARK    6  A    between atoms: N5_24  and  C16_26 
REMARK    7  A    between atoms: C16_26  and  N6_28 
REMARK    8  A    between atoms: N6_28  and  C17_30 
ROOT
HETATM    1  C1  UNL     1      45.367   0.505  33.779  1.00  0.00     0.103 C 
HETATM    2  C2  UNL     1      44.181   0.237  33.616  1.00  0.00    -0.141 C 
HETATM    3  C3  UNL     1      42.790  -0.053  33.446  1.00  0.00     0.093 A 
HETATM    4  C4  UNL     1      41.842   0.260  34.395  1.00  0.00     0.141 A 
HETATM    5  N2  UNL     1      40.564  -0.062  34.106  1.00  0.00    -0.175 N 
ATOM      6  H2  UNL     1      39.835   0.154  34.787  1.00  0.00     0.186 HD
HETATM    7  C14 UNL     1      40.218  -0.657  32.954  1.00  0.00     0.679 A 
HETATM    8  N4  UNL     1      41.130  -0.976  32.003  1.00  0.00    -0.175 N 
ATOM      9  H4  UNL     1      40.850  -1.430  31.134  1.00  0.00     0.186 HD
HETATM   10  C15 UNL     1      42.409  -0.676  32.247  1.00  0.00     0.144 A 
ENDROOT
BRANCH   4  11
HETATM   11  N1  UNL     1      42.242   0.885  35.586  1.00  0.00    -0.365 N 
HETATM   12  C5  UNL     1      42.404   0.106  36.801  1.00  0.00     0.125 C 
HETATM   13  C6  UNL     1      43.845   0.315  37.218  1.00  0.00     0.029 C 
HETATM   14  C7  UNL     1      44.108   1.779  37.618  1.00  0.00    -0.038 C 
HETATM   15  C12 UNL     1      43.003   2.613  37.097  1.00  0.00     0.029 C 
HETATM   16  C13 UNL     1      42.541   2.290  35.694  1.00  0.00     0.125 C 
BRANCH  14  17
HETATM   17  C8  UNL     1      45.458   2.108  37.086  1.00  0.00     0.005 C 
HETATM   18  C9  UNL     1      46.543   1.122  37.270  1.00  0.00     0.006 C 
ENDBRANCH  14  17
BRANCH  14  19
HETATM   19  C10 UNL     1      44.068   1.754  39.128  1.00  0.00     0.005 C 
HETATM   20  C11 UNL     1      44.064   3.077  39.799  1.00  0.00     0.006 C 
ENDBRANCH  14  19
ENDBRANCH   4  11
BRANCH  10  21
HETATM   21  N5  UNL     1      43.331  -0.931  31.425  1.00  0.00    -0.318 N 
ATOM     22  H5  UNL     1      44.261  -0.676  31.761  1.00  0.00     0.170 HD
BRANCH  21  23
HETATM   23  C16 UNL     1      43.333  -1.489  30.156  1.00  0.00     0.173 C 
HETATM   24  S1  UNL     1      43.223  -3.106  29.856  1.00  0.00    -0.041 SA
BRANCH  23  25
HETATM   25  N6  UNL     1      43.448  -0.640  29.006  1.00  0.00    -0.367 N 
ATOM     26  H6  UNL     1      42.837   0.168  28.890  1.00  0.00     0.161 HD
BRANCH  25  27
HETATM   27  C17 UNL     1      44.461  -0.961  28.007  1.00  0.00     0.117 C 
HETATM   28  C18 UNL     1      43.826  -1.215  26.662  1.00  0.00     0.026 C 
ENDBRANCH  25  27
ENDBRANCH  23  25
ENDBRANCH  21  23
ENDBRANCH  10  21
BRANCH   7  29
HETATM   29  N3  UNL     1      38.984  -0.947  32.732  1.00  0.00    -0.234 N 
ATOM     30  H32 UNL     1      38.779  -1.728  32.107  1.00  0.00     0.174 HD
ATOM     31  H31 UNL     1      38.248  -0.404  33.182  1.00  0.00     0.174 HD
ENDBRANCH   7  29
TORSDOF 8
ENDMDL
MODEL 5
REMARK VINA RESULT: -5.484359335      1.545      1.965
REMARK  8 active torsions:
REMARK  status: ('A' for Active; 'I' for Inactive)
REMARK    1  A    between atoms: C4_4  and  N1_5 
REMARK    2  A    between atoms: C7_8  and  C8_9 
REMARK    3  A    between atoms: C7_8  and  C10_11 
REMARK    4  A    between atoms: C14_17  and  N3_18 
REMARK    5  A    between atoms: C15_23  and  N5_24 
REMARK    6  A    between atoms: N5_24  and  C16_26 
REMARK    7  A    between atoms: C16_26  and  N6_28 
REMARK    8  A    between atoms: N6_28  and  C17_30 
ROOT
HETATM    1  C1  UNL     1      38.296  -2.925  29.467  1.00  0.00     0.103 C 
HETATM    2  C2  UNL     1      39.318  -2.477  29.977  1.00  0.00    -0.141 C 
HETATM    3  C3  UNL     1      40.495  -1.953  30.599  1.00  0.00     0.093 A 
HETATM    4  C4  UNL     1      40.463  -1.247  31.781  1.00  0.00     0.141 A 
HETATM    5  N2  UNL     1      41.646  -0.815  32.264  1.00  0.00    -0.175 N 
ATOM      6  H2  UNL     1      41.659  -0.287  33.137  1.00  0.00     0.186 HD
HETATM    7  C14 UNL     1      42.807  -1.056  31.636  1.00  0.00     0.679 A 
HETATM    8  N4  UNL     1      42.869  -1.748  30.471  1.00  0.00    -0.175 N 
ATOM      9  H4  UNL     1      43.760  -1.921  30.006  1.00  0.00     0.186 HD
HETATM   10  C15 UNL     1      41.720  -2.195  29.956  1.00  0.00     0.144 A 
ENDROOT
BRANCH   4  11
HETATM   11  N1  UNL     1      39.229  -1.018  32.411  1.00  0.00    -0.365 N 
HETATM   12  C5  UNL     1      38.614   0.296  32.355  1.00  0.00     0.125 C 
HETATM   13  C6  UNL     1      37.264   0.076  31.704  1.00  0.00     0.029 C 
HETATM   14  C7  UNL     1      36.345  -0.783  32.593  1.00  0.00    -0.038 C 
HETATM   15  C12 UNL     1      37.177  -1.462  33.610  1.00  0.00     0.029 C 
HETATM   16  C13 UNL     1      38.486  -2.033  33.113  1.00  0.00     0.125 C 
BRANCH  14  17
HETATM   17  C8  UNL     1      35.612  -1.686  31.664  1.00  0.00     0.005 C 
HETATM   18  C9  UNL     1      35.167  -1.143  30.364  1.00  0.00     0.006 C 
ENDBRANCH  14  17
BRANCH  14  19
HETATM   19  C10 UNL     1      35.438   0.226  33.258  1.00  0.00     0.005 C 
HETATM   20  C11 UNL     1      35.656   0.436  34.711  1.00  0.00     0.006 C 
ENDBRANCH  14  19
ENDBRANCH   4  11
BRANCH  10  21
HETATM   21  N5  UNL     1      41.672  -2.850  28.879  1.00  0.00    -0.318 N 
ATOM     22  H5  UNL     1      40.794  -2.738  28.371  1.00  0.00     0.170 HD
BRANCH  21  23
HETATM   23  C16 UNL     1      42.575  -3.691  28.248  1.00  0.00     0.173 C 
HETATM   24  S1  UNL     1      43.866  -3.168  27.365  1.00  0.00    -0.041 SA
BRANCH  23  25
HETATM   25  N6  UNL     1      42.405  -5.112  28.336  1.00  0.00    -0.367 N 
ATOM     26  H6  UNL     1      42.187  -5.665  27.507  1.00  0.00     0.161 HD
BRANCH  25  27
HETATM   27  C17 UNL     1      42.550  -5.748  29.640  1.00  0.00     0.117 C 
HETATM   28  C18 UNL     1      41.203  -6.113  30.213  1.00  0.00     0.026 C 
ENDBRANCH  25  27
ENDBRANCH  23  25
ENDBRANCH  21  23
ENDBRANCH  10  21
BRANCH   7  29
HETATM   29  N3  UNL     1      43.907  -0.616  32.138  1.00  0.00    -0.234 N 
ATOM     30  H32 UNL     1      44.753  -0.678  31.570  1.00  0.00     0.174 HD
ATOM     31  H31 UNL     1      43.910  -0.214  33.075  1.00  0.00     0.174 HD
ENDBRANCH   7  29
TORSDOF 8
ENDMDL
