MODEL 1
REMARK VINA RESULT: -6.024139323      0.000      0.000
REMARK  6 active torsions:
REMARK  status: ('A' for Active; 'I' for Inactive)
REMARK    1  A    between atoms: C2_2  and  N1_3 
REMARK    2  A    between atoms: C2_2  and  C13_22 
REMARK       I    between atoms: N1_3  and  C3_5 
REMARK       I    between atoms: C3_5  and  N2_7 
REMARK    3  A    between atoms: N2_7  and  C4_9 
REMARK    4  A    between atoms: C8_16  and  C9_17 
REMARK    5  A    between atoms: C9_17  and  C12_20 
REMARK    6  A    between atoms: C13_22  and  O2_25 
ROOT
HETATM    1  C4  UNL     1      43.416  -2.473  29.599  1.00  0.00     0.116 A 
HETATM    2  N3  UNL     1      44.008  -1.655  28.724  1.00  0.00    -0.350 N 
ATOM      3  H3  UNL     1      44.347  -0.753  29.058  1.00  0.00     0.166 HD
HETATM    4  C5  UNL     1      44.183  -1.962  27.406  1.00  0.00     0.108 A 
HETATM    5  C6  UNL     1      43.746  -3.162  26.913  1.00  0.00     0.027 A 
HETATM    6 BR1  UNL     1      43.977  -3.630  25.085  1.00  0.00    -0.050 Br
HETATM    7  C7  UNL     1      43.119  -4.066  27.770  1.00  0.00     0.032 A 
HETATM    8  C8  UNL     1      42.965  -3.711  29.088  1.00  0.00    -0.004 A 
ENDROOT
BRANCH   1   9
HETATM    9  N2  UNL     1      43.228  -2.262  30.845  1.00  0.00    -0.294 N 
HETATM   10  C3  UNL     1      42.487  -1.176  31.339  1.00  0.00     0.322 C 
HETATM   11  N1  UNL     1      41.498  -1.374  32.391  1.00  0.00    -0.336 N 
HETATM   12  O1  UNL     1      42.593   0.026  30.945  1.00  0.00    -0.247 OA
ATOM     13  H1  UNL     1      41.346  -2.307  32.773  1.00  0.00     0.164 HD
ATOM     14  H2  UNL     1      43.637  -2.914  31.514  1.00  0.00     0.172 HD
BRANCH  11  15
HETATM   15  C2  UNL     1      40.742  -0.270  32.892  1.00  0.00     0.115 C 
HETATM   16  C1  UNL     1      40.572  -0.351  34.416  1.00  0.00     0.035 C 
BRANCH  15  17
HETATM   17  C13 UNL     1      39.376  -0.167  32.276  1.00  0.00     0.070 C 
HETATM   18  C14 UNL     1      38.733  -1.544  32.164  1.00  0.00     0.047 C 
HETATM   19  C15 UNL     1      38.442   0.726  33.032  1.00  0.00     0.047 C 
BRANCH  17  20
HETATM   20  O2  UNL     1      39.537   0.390  30.993  1.00  0.00    -0.389 OA
ATOM     21  H2  UNL     1      38.844   0.041  30.444  1.00  0.00     0.210 HD
ENDBRANCH  17  20
ENDBRANCH  15  17
ENDBRANCH  11  15
ENDBRANCH   1   9
BRANCH   8  22
HETATM   22  C9  UNL     1      42.287  -4.615  30.065  1.00  0.00    -0.008 C 
HETATM   23  C10 UNL     1      40.876  -4.222  30.346  1.00  0.00     0.021 C 
HETATM   24  C11 UNL     1      43.125  -4.721  31.341  1.00  0.00     0.021 C 
BRANCH  22  25
HETATM   25  C12 UNL     1      42.271  -6.004  29.468  1.00  0.00     0.099 C 
HETATM   26  S1  UNL     1      43.024  -7.220  30.591  1.00  0.00    -0.097 SA
ENDBRANCH  22  25
ENDBRANCH   8  22
TORSDOF 6
ENDMDL
MODEL 2
REMARK VINA RESULT: -5.955108236      3.466      6.064
REMARK  6 active torsions:
REMARK  status: ('A' for Active; 'I' for Inactive)
REMARK    1  A    between atoms: C2_2  and  N1_3 
REMARK    2  A    between atoms: C2_2  and  C13_22 
REMARK       I    between atoms: N1_3  and  C3_5 
REMARK       I    between atoms: C3_5  and  N2_7 
REMARK    3  A    between atoms: N2_7  and  C4_9 
REMARK    4  A    between atoms: C8_16  and  C9_17 
REMARK    5  A    between atoms: C9_17  and  C12_20 
REMARK    6  A    between atoms: C13_22  and  O2_25 
ROOT
HETATM    1  C4  UNL     1      43.093  -3.761  30.912  1.00  0.00     0.116 A 
HETATM    2  N3  UNL     1      43.065  -2.458  31.210  1.00  0.00    -0.350 N 
ATOM      3  H3  UNL     1      43.314  -1.790  30.481  1.00  0.00     0.166 HD
HETATM    4  C5  UNL     1      42.721  -1.975  32.438  1.00  0.00     0.108 A 
HETATM    5  C6  UNL     1      42.377  -2.835  33.447  1.00  0.00     0.027 A 
HETATM    6 BR1  UNL     1      41.885  -2.200  35.170  1.00  0.00    -0.050 Br
HETATM    7  C7  UNL     1      42.384  -4.209  33.206  1.00  0.00     0.032 A 
HETATM    8  C8  UNL     1      42.739  -4.646  31.954  1.00  0.00    -0.004 A 
ENDROOT
BRANCH   1   9
HETATM    9  N2  UNL     1      43.392  -4.287  29.786  1.00  0.00    -0.294 N 
HETATM   10  C3  UNL     1      43.022  -3.726  28.553  1.00  0.00     0.322 C 
HETATM   11  N1  UNL     1      43.990  -3.624  27.469  1.00  0.00    -0.336 N 
HETATM   12  O1  UNL     1      41.871  -3.277  28.265  1.00  0.00    -0.247 OA
ATOM     13  H1  UNL     1      44.942  -3.963  27.606  1.00  0.00     0.164 HD
ATOM     14  H2  UNL     1      43.924  -5.157  29.783  1.00  0.00     0.172 HD
BRANCH  11  15
HETATM   15  C2  UNL     1      43.617  -3.051  26.214  1.00  0.00     0.115 C 
HETATM   16  C1  UNL     1      44.006  -3.964  25.042  1.00  0.00     0.035 C 
BRANCH  15  17
HETATM   17  C13 UNL     1      44.231  -1.702  25.978  1.00  0.00     0.070 C 
HETATM   18  C14 UNL     1      43.781  -1.135  24.637  1.00  0.00     0.047 C 
HETATM   19  C15 UNL     1      43.907  -0.699  27.042  1.00  0.00     0.047 C 
BRANCH  17  20
HETATM   20  O2  UNL     1      45.628  -1.872  25.978  1.00  0.00    -0.389 OA
ATOM     21  H2  UNL     1      46.012  -1.064  25.657  1.00  0.00     0.210 HD
ENDBRANCH  17  20
ENDBRANCH  15  17
ENDBRANCH  11  15
ENDBRANCH   1   9
BRANCH   8  22
HETATM   22  C9  UNL     1      42.789  -6.102  31.622  1.00  0.00    -0.008 C 
HETATM   23  C10 UNL     1      44.138  -6.555  31.175  1.00  0.00     0.021 C 
HETATM   24  C11 UNL     1      41.697  -6.440  30.605  1.00  0.00     0.021 C 
BRANCH  22  25
HETATM   25  C12 UNL     1      42.434  -6.870  32.876  1.00  0.00     0.099 C 
HETATM   26  S1  UNL     1      43.706  -8.105  33.281  1.00  0.00    -0.097 SA
ENDBRANCH  22  25
ENDBRANCH   8  22
TORSDOF 6
ENDMDL
MODEL 3
REMARK VINA RESULT: -5.830096451      3.624      6.633
REMARK  6 active torsions:
REMARK  status: ('A' for Active; 'I' for Inactive)
REMARK    1  A    between atoms: C2_2  and  N1_3 
REMARK    2  A    between atoms: C2_2  and  C13_22 
REMARK       I    between atoms: N1_3  and  C3_5 
REMARK       I    between atoms: C3_5  and  N2_7 
REMARK    3  A    between atoms: N2_7  and  C4_9 
REMARK    4  A    between atoms: C8_16  and  C9_17 
REMARK    5  A    between atoms: C9_17  and  C12_20 
REMARK    6  A    between atoms: C13_22  and  O2_25 
ROOT
HETATM    1  C4  UNL     1      41.340  -0.903  30.740  1.00  0.00     0.116 A 
HETATM    2  N3  UNL     1      40.319  -0.363  30.068  1.00  0.00    -0.350 N 
ATOM      3  H3  UNL     1      40.361  -0.355  29.049  1.00  0.00     0.166 HD
HETATM    4  C5  UNL     1      39.222   0.178  30.673  1.00  0.00     0.108 A 
HETATM    5  C6  UNL     1      39.120   0.187  32.039  1.00  0.00     0.027 A 
HETATM    6 BR1  UNL     1      37.605   0.924  32.918  1.00  0.00    -0.050 Br
HETATM    7  C7  UNL     1      40.150  -0.361  32.804  1.00  0.00     0.032 A 
HETATM    8  C8  UNL     1      41.233  -0.892  32.149  1.00  0.00    -0.004 A 
ENDROOT
BRANCH   1   9
HETATM    9  N2  UNL     1      42.390  -1.438  30.246  1.00  0.00    -0.294 N 
HETATM   10  C3  UNL     1      42.396  -2.145  29.033  1.00  0.00     0.322 C 
HETATM   11  N1  UNL     1      43.438  -1.905  28.044  1.00  0.00    -0.336 N 
HETATM   12  O1  UNL     1      41.544  -3.021  28.690  1.00  0.00    -0.247 OA
ATOM     13  H1  UNL     1      44.169  -1.220  28.234  1.00  0.00     0.164 HD
ATOM     14  H2  UNL     1      43.267  -1.346  30.758  1.00  0.00     0.172 HD
BRANCH  11  15
HETATM   15  C2  UNL     1      43.443  -2.623  26.808  1.00  0.00     0.115 C 
HETATM   16  C1  UNL     1      43.959  -4.058  26.994  1.00  0.00     0.035 C 
BRANCH  15  17
HETATM   17  C13 UNL     1      44.277  -1.962  25.749  1.00  0.00     0.070 C 
HETATM   18  C14 UNL     1      44.392  -2.856  24.521  1.00  0.00     0.047 C 
HETATM   19  C15 UNL     1      43.748  -0.631  25.311  1.00  0.00     0.047 C 
BRANCH  17  20
HETATM   20  O2  UNL     1      45.554  -1.741  26.298  1.00  0.00    -0.389 OA
ATOM     21  H2  UNL     1      46.176  -1.744  25.580  1.00  0.00     0.210 HD
ENDBRANCH  17  20
ENDBRANCH  15  17
ENDBRANCH  11  15
ENDBRANCH   1   9
BRANCH   8  22
HETATM   22  C9  UNL     1      42.385  -1.480  32.898  1.00  0.00    -0.008 C 
HETATM   23  C10 UNL     1      43.673  -0.774  32.639  1.00  0.00     0.021 C 
HETATM   24  C11 UNL     1      42.478  -2.980  32.611  1.00  0.00     0.021 C 
BRANCH  22  25
HETATM   25  C12 UNL     1      42.080  -1.362  34.374  1.00  0.00     0.099 C 
HETATM   26  S1  UNL     1      43.338  -0.371  35.235  1.00  0.00    -0.097 SA
ENDBRANCH  22  25
ENDBRANCH   8  22
TORSDOF 6
ENDMDL
MODEL 4
REMARK VINA RESULT: -5.726575364      3.843      6.284
REMARK  6 active torsions:
REMARK  status: ('A' for Active; 'I' for Inactive)
REMARK    1  A    between atoms: C2_2  and  N1_3 
REMARK    2  A    between atoms: C2_2  and  C13_22 
REMARK       I    between atoms: N1_3  and  C3_5 
REMARK       I    between atoms: C3_5  and  N2_7 
REMARK    3  A    between atoms: N2_7  and  C4_9 
REMARK    4  A    between atoms: C8_16  and  C9_17 
REMARK    5  A    between atoms: C9_17  and  C12_20 
REMARK    6  A    between atoms: C13_22  and  O2_25 
ROOT
HETATM    1  C4  UNL     1      43.300  -3.913  29.692  1.00  0.00     0.116 A 
HETATM    2  N3  UNL     1      43.907  -4.369  28.592  1.00  0.00    -0.350 N 
ATOM      3  H3  UNL     1      44.241  -5.332  28.588  1.00  0.00     0.166 HD
HETATM    4  C5  UNL     1      44.104  -3.613  27.474  1.00  0.00     0.108 A 
HETATM    5  C6  UNL     1      43.670  -2.314  27.432  1.00  0.00     0.027 A 
HETATM    6 BR1  UNL     1      43.918  -1.232  25.890  1.00  0.00    -0.050 Br
HETATM    7  C7  UNL     1      43.027  -1.773  28.545  1.00  0.00     0.032 A 
HETATM    8  C8  UNL     1      42.854  -2.573  29.648  1.00  0.00    -0.004 A 
ENDROOT
BRANCH   1   9
HETATM    9  N2  UNL     1      43.070  -4.562  30.769  1.00  0.00    -0.294 N 
HETATM   10  C3  UNL     1      43.321  -5.936  30.908  1.00  0.00     0.322 C 
HETATM   11  N1  UNL     1      43.993  -6.447  32.096  1.00  0.00    -0.336 N 
HETATM   12  O1  UNL     1      43.006  -6.830  30.064  1.00  0.00    -0.247 OA
ATOM     13  H1  UNL     1      44.280  -5.802  32.832  1.00  0.00     0.164 HD
ATOM     14  H2  UNL     1      42.684  -4.056  31.566  1.00  0.00     0.172 HD
BRANCH  11  15
HETATM   15  C2  UNL     1      44.252  -7.845  32.238  1.00  0.00     0.115 C 
HETATM   16  C1  UNL     1      43.643  -8.400  33.534  1.00  0.00     0.035 C 
BRANCH  15  17
HETATM   17  C13 UNL     1      45.716  -8.175  32.233  1.00  0.00     0.070 C 
HETATM   18  C14 UNL     1      46.102  -8.924  33.502  1.00  0.00     0.047 C 
HETATM   19  C15 UNL     1      46.144  -8.996  31.055  1.00  0.00     0.047 C 
BRANCH  17  20
HETATM   20  O2  UNL     1      46.419  -6.957  32.166  1.00  0.00    -0.389 OA
ATOM     21  H2  UNL     1      46.575  -6.671  33.059  1.00  0.00     0.210 HD
ENDBRANCH  17  20
ENDBRANCH  15  17
ENDBRANCH  11  15
ENDBRANCH   1   9
BRANCH   8  22
HETATM   22  C9  UNL     1      42.192  -2.062  30.886  1.00  0.00    -0.008 C 
HETATM   23  C10 UNL     1      43.117  -1.983  32.054  1.00  0.00     0.021 C 
HETATM   24  C11 UNL     1      40.945  -2.895  31.189  1.00  0.00     0.021 C 
BRANCH  22  25
HETATM   25  C12 UNL     1      41.693  -0.665  30.595  1.00  0.00     0.099 C 
HETATM   26  S1  UNL     1      39.876  -0.595  30.591  1.00  0.00    -0.097 SA
ENDBRANCH  22  25
ENDBRANCH   8  22
TORSDOF 6
ENDMDL
MODEL 5
REMARK VINA RESULT: -5.664667740      3.223      4.204
REMARK  6 active torsions:
REMARK  status: ('A' for Active; 'I' for Inactive)
REMARK    1  A    between atoms: C2_2  and  N1_3 
REMARK    2  A    between atoms: C2_2  and  C13_22 
REMARK       I    between atoms: N1_3  and  C3_5 
REMARK       I    between atoms: C3_5  and  N2_7 
REMARK    3  A    between atoms: N2_7  and  C4_9 
REMARK    4  A    between atoms: C8_16  and  C9_17 
REMARK    5  A    between atoms: C9_17  and  C12_20 
REMARK    6  A    between atoms: C13_22  and  O2_25 
ROOT
HETATM    1  C4  UNL     1      42.912  -1.141  30.136  1.00  0.00     0.116 A 
HETATM    2  N3  UNL     1      44.068  -1.072  29.469  1.00  0.00    -0.350 N 
ATOM      3  H3  UNL     1      44.796  -0.452  29.825  1.00  0.00     0.166 HD
HETATM    4  C5  UNL     1      44.328  -1.788  28.337  1.00  0.00     0.108 A 
HETATM    5  C6  UNL     1      43.382  -2.635  27.824  1.00  0.00     0.027 A 
HETATM    6 BR1  UNL     1      43.708  -3.655  26.253  1.00  0.00    -0.050 Br
HETATM    7  C7  UNL     1      42.151  -2.757  28.469  1.00  0.00     0.032 A 
HETATM    8  C8  UNL     1      41.937  -2.015  29.604  1.00  0.00    -0.004 A 
ENDROOT
BRANCH   1   9
HETATM    9  N2  UNL     1      42.602  -0.514  31.205  1.00  0.00    -0.294 N 
HETATM   10  C3  UNL     1      43.187  -0.783  32.453  1.00  0.00     0.322 C 
HETATM   11  N1  UNL     1      43.641   0.308  33.306  1.00  0.00    -0.336 N 
HETATM   12  O1  UNL     1      43.371  -1.938  32.944  1.00  0.00    -0.247 OA
ATOM     13  H1  UNL     1      43.530   1.273  32.996  1.00  0.00     0.164 HD
ATOM     14  H2  UNL     1      41.894   0.218  31.149  1.00  0.00     0.172 HD
BRANCH  11  15
HETATM   15  C2  UNL     1      44.239   0.035  34.575  1.00  0.00     0.115 C 
HETATM   16  C1  UNL     1      43.249   0.272  35.725  1.00  0.00     0.035 C 
BRANCH  15  17
HETATM   17  C13 UNL     1      45.464   0.862  34.837  1.00  0.00     0.070 C 
HETATM   18  C14 UNL     1      45.095   2.154  35.557  1.00  0.00     0.047 C 
HETATM   19  C15 UNL     1      46.505   0.155  35.647  1.00  0.00     0.047 C 
BRANCH  17  20
HETATM   20  O2  UNL     1      46.041   1.162  33.588  1.00  0.00    -0.389 OA
ATOM     21  H2  UNL     1      46.703   1.827  33.734  1.00  0.00     0.210 HD
ENDBRANCH  17  20
ENDBRANCH  15  17
ENDBRANCH  11  15
ENDBRANCH   1   9
BRANCH   8  22
HETATM   22  C9  UNL     1      40.640  -2.075  30.342  1.00  0.00    -0.008 C 
HETATM   23  C10 UNL     1      40.101  -0.729  30.690  1.00  0.00     0.021 C 
HETATM   24  C11 UNL     1      40.783  -2.978  31.569  1.00  0.00     0.021 C 
BRANCH  22  25
HETATM   25  C12 UNL     1      39.634  -2.759  29.444  1.00  0.00     0.099 C 
HETATM   26  S1  UNL     1      37.940  -2.572  30.079  1.00  0.00    -0.097 SA
ENDBRANCH  22  25
ENDBRANCH   8  22
TORSDOF 6
ENDMDL
