MODEL 1
REMARK VINA RESULT: -7.186341708      0.000      0.000
REMARK  12 active torsions:
REMARK  status: ('A' for Active; 'I' for Inactive)
REMARK    1  A    between atoms: N1_2  and  C2_4 
REMARK    2  A    between atoms: C2_4  and  N2_6 
REMARK    3  A    between atoms: N2_6  and  N3_8 
REMARK       I    between atoms: N3_8  and  C3_10 
REMARK    4  A    between atoms: C3_10  and  C4_12 
REMARK    5  A    between atoms: C4_12  and  C5_13 
REMARK    6  A    between atoms: C4_12  and  N4_17 
REMARK    7  A    between atoms: C5_13  and  C6_14 
REMARK       I    between atoms: N4_17  and  C9_18 
REMARK       I    between atoms: C9_18  and  N5_20 
REMARK    8  A    between atoms: N5_20  and  N6_22 
REMARK    9  A    between atoms: N6_22  and  C10_23 
REMARK   10  A    between atoms: C10_23  and  O3_24 
REMARK   11  A    between atoms: C10_23  and  C11_26 
REMARK   12  A    between atoms: C11_26  and  C12_28 
ROOT
HETATM    1  N4  UNL     1      41.879  -1.898  31.004  1.00  0.00    -0.380 NA
HETATM    2  C9  UNL     1      42.326  -0.894  31.746  1.00  0.00     0.418 C 
HETATM    3  O2  UNL     1      41.663  -0.150  32.561  1.00  0.00    -0.228 OA
HETATM    4  N5  UNL     1      43.792  -0.591  31.723  1.00  0.00    -0.170 N 
ATOM      5  H5  UNL     1      44.344  -0.877  30.914  1.00  0.00     0.208 HD
ENDROOT
BRANCH   1   6
HETATM    6  C4  UNL     1      41.383  -2.966  30.222  1.00  0.00     0.262 C 
BRANCH   6   7
HETATM    7  C3  UNL     1      42.728  -3.198  29.423  1.00  0.00     0.272 C 
HETATM    8  N3  UNL     1      42.633  -3.192  28.049  1.00  0.00    -0.265 N 
ATOM      9  H3  UNL     1      41.778  -3.002  27.525  1.00  0.00     0.190 HD
HETATM   10  O1  UNL     1      43.653  -3.338  30.121  1.00  0.00    -0.268 OA
BRANCH   8  11
HETATM   11  N2  UNL     1      43.931  -3.497  27.443  1.00  0.00    -0.274 N 
ATOM     12  H2  UNL     1      44.458  -4.354  27.610  1.00  0.00     0.189 HD
BRANCH  11  13
HETATM   13  C2  UNL     1      44.358  -2.446  26.597  1.00  0.00     0.186 C 
HETATM   14  S1  UNL     1      44.514  -0.883  27.209  1.00  0.00    -0.040 SA
BRANCH  13  15
HETATM   15  N1  UNL     1      44.682  -2.657  25.202  1.00  0.00    -0.370 N 
HETATM   16  C1  UNL     1      43.969  -3.622  24.493  1.00  0.00     0.148 C 
ATOM     17  H1  UNL     1      45.415  -2.112  24.749  1.00  0.00     0.161 HD
ENDBRANCH  13  15
ENDBRANCH  11  13
ENDBRANCH   8  11
ENDBRANCH   6   7
BRANCH   6  18
HETATM   18  C5  UNL     1      40.228  -2.920  29.387  1.00  0.00     0.053 C 
BRANCH  18  19
HETATM   19  C6  UNL     1      38.930  -2.735  30.206  1.00  0.00    -0.019 C 
HETATM   20  C7  UNL     1      37.809  -3.553  29.572  1.00  0.00     0.009 C 
HETATM   21  C8  UNL     1      38.479  -1.361  30.438  1.00  0.00     0.009 C 
ENDBRANCH  18  19
ENDBRANCH   6  18
ENDBRANCH   1   6
BRANCH   4  22
HETATM   22  N6  UNL     1      44.417   0.059  32.756  1.00  0.00    -0.298 NA
BRANCH  22  23
HETATM   23  C10 UNL     1      45.129   0.772  33.560  1.00  0.00     0.233 C 
BRANCH  23  24
HETATM   24  O3  UNL     1      46.276   1.383  33.087  1.00  0.00    -0.336 OA
ATOM     25  H3  UNL     1      46.615   2.146  33.538  1.00  0.00     0.220 HD
ENDBRANCH  23  24
BRANCH  23  26
HETATM   26  C11 UNL     1      44.908   1.024  34.975  1.00  0.00     0.178 C 
HETATM   27 CL1  UNL     1      46.122   0.103  36.057  1.00  0.00    -0.115 Cl
BRANCH  26  28
HETATM   28  C12 UNL     1      44.969   2.398  35.550  1.00  0.00     0.021 C 
HETATM   29  C13 UNL     1      45.528   2.236  36.948  1.00  0.00     0.015 C 
HETATM   30  C14 UNL     1      44.553   2.888  37.852  1.00  0.00     0.009 C 
HETATM   31  C15 UNL     1      43.284   2.090  37.813  1.00  0.00    -0.026 C 
HETATM   32  C18 UNL     1      44.147   4.047  36.903  1.00  0.00     0.017 C 
HETATM   33  C16 UNL     1      42.799   2.234  36.594  1.00  0.00    -0.025 C 
HETATM   34  C17 UNL     1      43.663   3.105  35.768  1.00  0.00     0.014 C 
ENDBRANCH  26  28
ENDBRANCH  23  26
ENDBRANCH  22  23
ENDBRANCH   4  22
TORSDOF 12
ENDMDL
MODEL 2
REMARK VINA RESULT: -7.185911651      1.060      1.362
REMARK  12 active torsions:
REMARK  status: ('A' for Active; 'I' for Inactive)
REMARK    1  A    between atoms: N1_2  and  C2_4 
REMARK    2  A    between atoms: C2_4  and  N2_6 
REMARK    3  A    between atoms: N2_6  and  N3_8 
REMARK       I    between atoms: N3_8  and  C3_10 
REMARK    4  A    between atoms: C3_10  and  C4_12 
REMARK    5  A    between atoms: C4_12  and  C5_13 
REMARK    6  A    between atoms: C4_12  and  N4_17 
REMARK    7  A    between atoms: C5_13  and  C6_14 
REMARK       I    between atoms: N4_17  and  C9_18 
REMARK       I    between atoms: C9_18  and  N5_20 
REMARK    8  A    between atoms: N5_20  and  N6_22 
REMARK    9  A    between atoms: N6_22  and  C10_23 
REMARK   10  A    between atoms: C10_23  and  O3_24 
REMARK   11  A    between atoms: C10_23  and  C11_26 
REMARK   12  A    between atoms: C11_26  and  C12_28 
ROOT
HETATM    1  N4  UNL     1      42.166  -2.391  31.018  1.00  0.00    -0.380 NA
HETATM    2  C9  UNL     1      42.469  -1.168  31.431  1.00  0.00     0.418 C 
HETATM    3  O2  UNL     1      41.667  -0.205  31.720  1.00  0.00    -0.228 OA
HETATM    4  N5  UNL     1      43.908  -0.837  31.678  1.00  0.00    -0.170 N 
ATOM      5  H5  UNL     1      44.629  -1.378  31.199  1.00  0.00     0.208 HD
ENDROOT
BRANCH   1   6
HETATM    6  C4  UNL     1      41.822  -3.690  30.579  1.00  0.00     0.262 C 
BRANCH   6   7
HETATM    7  C3  UNL     1      43.014  -3.816  29.548  1.00  0.00     0.272 C 
HETATM    8  N3  UNL     1      42.758  -3.397  28.261  1.00  0.00    -0.265 N 
ATOM      9  H3  UNL     1      41.883  -2.974  27.949  1.00  0.00     0.190 HD
HETATM   10  O1  UNL     1      43.987  -4.250  30.028  1.00  0.00    -0.268 OA
BRANCH   8  11
HETATM   11  N2  UNL     1      43.918  -3.645  27.401  1.00  0.00    -0.274 N 
ATOM     12  H2  UNL     1      44.399  -4.540  27.325  1.00  0.00     0.189 HD
BRANCH  11  13
HETATM   13  C2  UNL     1      44.282  -2.477  26.688  1.00  0.00     0.186 C 
HETATM   14  S1  UNL     1      44.291  -0.983  27.470  1.00  0.00    -0.040 SA
BRANCH  13  15
HETATM   15  N1  UNL     1      44.663  -2.507  25.293  1.00  0.00    -0.370 N 
HETATM   16  C1  UNL     1      44.040  -3.430  24.454  1.00  0.00     0.148 C 
ATOM     17  H1  UNL     1      45.371  -1.869  24.932  1.00  0.00     0.161 HD
ENDBRANCH  13  15
ENDBRANCH  11  13
ENDBRANCH   8  11
ENDBRANCH   6   7
BRANCH   6  18
HETATM   18  C5  UNL     1      40.561  -4.079  30.038  1.00  0.00     0.053 C 
BRANCH  18  19
HETATM   19  C6  UNL     1      39.440  -3.081  30.408  1.00  0.00    -0.019 C 
HETATM   20  C7  UNL     1      38.863  -3.448  31.771  1.00  0.00     0.009 C 
HETATM   21  C8  UNL     1      38.359  -2.904  29.435  1.00  0.00     0.009 C 
ENDBRANCH  18  19
ENDBRANCH   6  18
ENDBRANCH   1   6
BRANCH   4  22
HETATM   22  N6  UNL     1      44.288   0.170  32.527  1.00  0.00    -0.298 NA
BRANCH  22  23
HETATM   23  C10 UNL     1      44.788   0.958  33.417  1.00  0.00     0.233 C 
BRANCH  23  24
HETATM   24  O3  UNL     1      46.134   1.269  33.366  1.00  0.00    -0.336 OA
ATOM     25  H3  UNL     1      46.488   1.898  33.983  1.00  0.00     0.220 HD
ENDBRANCH  23  24
BRANCH  23  26
HETATM   26  C11 UNL     1      44.114   1.583  34.544  1.00  0.00     0.178 C 
HETATM   27 CL1  UNL     1      42.431   0.836  34.866  1.00  0.00    -0.115 Cl
BRANCH  26  28
HETATM   28  C12 UNL     1      44.709   1.594  35.911  1.00  0.00     0.021 C 
HETATM   29  C13 UNL     1      43.578   1.246  36.857  1.00  0.00     0.015 C 
HETATM   30  C14 UNL     1      43.538   2.337  37.858  1.00  0.00     0.009 C 
HETATM   31  C15 UNL     1      43.124   3.594  37.152  1.00  0.00    -0.026 C 
HETATM   32  C18 UNL     1      45.067   2.589  37.938  1.00  0.00     0.017 C 
HETATM   33  C16 UNL     1      44.112   3.893  36.330  1.00  0.00    -0.025 C 
HETATM   34  C17 UNL     1      45.212   2.910  36.425  1.00  0.00     0.014 C 
ENDBRANCH  26  28
ENDBRANCH  23  26
ENDBRANCH  22  23
ENDBRANCH   4  22
TORSDOF 12
ENDMDL
MODEL 3
REMARK VINA RESULT: -7.136193438      1.742      1.974
REMARK  12 active torsions:
REMARK  status: ('A' for Active; 'I' for Inactive)
REMARK    1  A    between atoms: N1_2  and  C2_4 
REMARK    2  A    between atoms: C2_4  and  N2_6 
REMARK    3  A    between atoms: N2_6  and  N3_8 
REMARK       I    between atoms: N3_8  and  C3_10 
REMARK    4  A    between atoms: C3_10  and  C4_12 
REMARK    5  A    between atoms: C4_12  and  C5_13 
REMARK    6  A    between atoms: C4_12  and  N4_17 
REMARK    7  A    between atoms: C5_13  and  C6_14 
REMARK       I    between atoms: N4_17  and  C9_18 
REMARK       I    between atoms: C9_18  and  N5_20 
REMARK    8  A    between atoms: N5_20  and  N6_22 
REMARK    9  A    between atoms: N6_22  and  C10_23 
REMARK   10  A    between atoms: C10_23  and  O3_24 
REMARK   11  A    between atoms: C10_23  and  C11_26 
REMARK   12  A    between atoms: C11_26  and  C12_28 
ROOT
HETATM    1  N4  UNL     1      42.370  -0.415  32.274  1.00  0.00    -0.380 NA
HETATM    2  C9  UNL     1      42.934   0.157  33.329  1.00  0.00     0.418 C 
HETATM    3  O2  UNL     1      42.502   0.190  34.541  1.00  0.00    -0.228 OA
HETATM    4  N5  UNL     1      44.276   0.797  33.159  1.00  0.00    -0.170 N 
ATOM      5  H5  UNL     1      44.561   1.110  32.230  1.00  0.00     0.208 HD
ENDROOT
BRANCH   1   6
HETATM    6  C4  UNL     1      41.754  -1.033  31.162  1.00  0.00     0.262 C 
BRANCH   6   7
HETATM    7  C3  UNL     1      43.062  -1.072  30.274  1.00  0.00     0.272 C 
HETATM    8  N3  UNL     1      42.886  -0.921  28.916  1.00  0.00    -0.265 N 
ATOM      9  H3  UNL     1      41.990  -0.740  28.462  1.00  0.00     0.190 HD
HETATM   10  O1  UNL     1      44.035  -1.218  30.904  1.00  0.00    -0.268 OA
BRANCH   8  11
HETATM   11  N2  UNL     1      44.164  -1.057  28.215  1.00  0.00    -0.274 N 
ATOM     12  H2  UNL     1      44.981  -0.470  28.384  1.00  0.00     0.189 HD
BRANCH  11  13
HETATM   13  C2  UNL     1      44.118  -2.111  27.270  1.00  0.00     0.186 C 
HETATM   14  S1  UNL     1      43.488  -3.610  27.714  1.00  0.00    -0.040 SA
BRANCH  13  15
HETATM   15  N1  UNL     1      44.587  -1.955  25.911  1.00  0.00    -0.370 N 
HETATM   16  C1  UNL     1      44.187  -2.892  24.959  1.00  0.00     0.148 C 
ATOM     17  H1  UNL     1      45.196  -1.178  25.655  1.00  0.00     0.161 HD
ENDBRANCH  13  15
ENDBRANCH  11  13
ENDBRANCH   8  11
ENDBRANCH   6   7
BRANCH   6  18
HETATM   18  C5  UNL     1      40.610  -0.543  30.465  1.00  0.00     0.053 C 
BRANCH  18  19
HETATM   19  C6  UNL     1      39.327  -0.642  31.320  1.00  0.00    -0.019 C 
HETATM   20  C7  UNL     1      38.253  -1.391  30.538  1.00  0.00     0.009 C 
HETATM   21  C8  UNL     1      38.781   0.610  31.850  1.00  0.00     0.009 C 
ENDBRANCH  18  19
ENDBRANCH   6  18
ENDBRANCH   1   6
BRANCH   4  22
HETATM   22  N6  UNL     1      45.136   0.977  34.212  1.00  0.00    -0.298 NA
BRANCH  22  23
HETATM   23  C10 UNL     1      45.788   1.024  35.323  1.00  0.00     0.233 C 
BRANCH  23  24
HETATM   24  O3  UNL     1      47.061   0.489  35.383  1.00  0.00    -0.336 OA
ATOM     25  H3  UNL     1      47.229  -0.354  34.980  1.00  0.00     0.220 HD
ENDBRANCH  23  24
BRANCH  23  26
HETATM   26  C11 UNL     1      45.350   1.563  36.601  1.00  0.00     0.178 C 
HETATM   27 CL1  UNL     1      46.533   1.150  37.987  1.00  0.00    -0.115 Cl
BRANCH  26  28
HETATM   28  C12 UNL     1      45.135   3.024  36.808  1.00  0.00     0.021 C 
HETATM   29  C13 UNL     1      45.143   3.233  38.308  1.00  0.00     0.015 C 
HETATM   30  C14 UNL     1      43.876   3.931  38.626  1.00  0.00     0.009 C 
HETATM   31  C15 UNL     1      42.747   2.986  38.340  1.00  0.00    -0.026 C 
HETATM   32  C18 UNL     1      43.802   4.802  37.343  1.00  0.00     0.017 C 
HETATM   33  C16 UNL     1      42.743   2.806  37.033  1.00  0.00    -0.025 C 
HETATM   34  C17 UNL     1      43.813   3.586  36.376  1.00  0.00     0.014 C 
ENDBRANCH  26  28
ENDBRANCH  23  26
ENDBRANCH  22  23
ENDBRANCH   4  22
TORSDOF 12
ENDMDL
MODEL 4
REMARK VINA RESULT: -6.907068410      1.947      2.412
REMARK  12 active torsions:
REMARK  status: ('A' for Active; 'I' for Inactive)
REMARK    1  A    between atoms: N1_2  and  C2_4 
REMARK    2  A    between atoms: C2_4  and  N2_6 
REMARK    3  A    between atoms: N2_6  and  N3_8 
REMARK       I    between atoms: N3_8  and  C3_10 
REMARK    4  A    between atoms: C3_10  and  C4_12 
REMARK    5  A    between atoms: C4_12  and  C5_13 
REMARK    6  A    between atoms: C4_12  and  N4_17 
REMARK    7  A    between atoms: C5_13  and  C6_14 
REMARK       I    between atoms: N4_17  and  C9_18 
REMARK       I    between atoms: C9_18  and  N5_20 
REMARK    8  A    between atoms: N5_20  and  N6_22 
REMARK    9  A    between atoms: N6_22  and  C10_23 
REMARK   10  A    between atoms: C10_23  and  O3_24 
REMARK   11  A    between atoms: C10_23  and  C11_26 
REMARK   12  A    between atoms: C11_26  and  C12_28 
ROOT
HETATM    1  N4  UNL     1      41.976  -0.349  32.714  1.00  0.00    -0.380 NA
HETATM    2  C9  UNL     1      42.554   0.153  33.796  1.00  0.00     0.418 C 
HETATM    3  O2  UNL     1      42.080   0.225  34.991  1.00  0.00    -0.228 OA
HETATM    4  N5  UNL     1      43.962   0.648  33.685  1.00  0.00    -0.170 N 
ATOM      5  H5  UNL     1      44.316   0.934  32.772  1.00  0.00     0.208 HD
ENDROOT
BRANCH   1   6
HETATM    6  C4  UNL     1      41.342  -0.891  31.572  1.00  0.00     0.262 C 
BRANCH   6   7
HETATM    7  C3  UNL     1      42.654  -0.945  30.691  1.00  0.00     0.272 C 
HETATM    8  N3  UNL     1      42.500  -0.689  29.346  1.00  0.00    -0.265 N 
ATOM      9  H3  UNL     1      41.621  -0.422  28.901  1.00  0.00     0.190 HD
HETATM   10  O1  UNL     1      43.611  -1.193  31.313  1.00  0.00    -0.268 OA
BRANCH   8  11
HETATM   11  N2  UNL     1      43.775  -0.851  28.643  1.00  0.00    -0.274 N 
ATOM     12  H2  UNL     1      44.599  -0.273  28.803  1.00  0.00     0.189 HD
BRANCH  11  13
HETATM   13  C2  UNL     1      43.711  -1.915  27.712  1.00  0.00     0.186 C 
HETATM   14  S1  UNL     1      44.522  -1.792  26.238  1.00  0.00    -0.040 SA
BRANCH  13  15
HETATM   15  N1  UNL     1      42.976  -3.133  27.975  1.00  0.00    -0.370 N 
HETATM   16  C1  UNL     1      43.554  -4.092  28.805  1.00  0.00     0.148 C 
ATOM     17  H1  UNL     1      42.056  -3.286  27.562  1.00  0.00     0.161 HD
ENDBRANCH  13  15
ENDBRANCH  11  13
ENDBRANCH   8  11
ENDBRANCH   6   7
BRANCH   6  18
HETATM   18  C5  UNL     1      40.225  -0.324  30.892  1.00  0.00     0.053 C 
BRANCH  18  19
HETATM   19  C6  UNL     1      38.939  -0.376  31.749  1.00  0.00    -0.019 C 
HETATM   20  C7  UNL     1      37.879  -1.196  31.022  1.00  0.00     0.009 C 
HETATM   21  C8  UNL     1      38.375   0.905  32.180  1.00  0.00     0.009 C 
ENDBRANCH  18  19
ENDBRANCH   6  18
ENDBRANCH   1   6
BRANCH   4  22
HETATM   22  N6  UNL     1      44.794   0.729  34.773  1.00  0.00    -0.298 NA
BRANCH  22  23
HETATM   23  C10 UNL     1      45.590   1.030  35.741  1.00  0.00     0.233 C 
BRANCH  23  24
HETATM   24  O3  UNL     1      46.935   0.730  35.627  1.00  0.00    -0.336 OA
ATOM     25  H3  UNL     1      47.576   1.421  35.742  1.00  0.00     0.220 HD
ENDBRANCH  23  24
BRANCH  23  26
HETATM   26  C11 UNL     1      45.263   1.650  37.015  1.00  0.00     0.178 C 
HETATM   27 CL1  UNL     1      46.540   1.283  38.330  1.00  0.00    -0.115 Cl
BRANCH  26  28
HETATM   28  C12 UNL     1      45.097   3.125  37.154  1.00  0.00     0.021 C 
HETATM   29  C13 UNL     1      44.982   3.389  38.641  1.00  0.00     0.015 C 
HETATM   30  C14 UNL     1      43.724   4.150  38.820  1.00  0.00     0.009 C 
HETATM   31  C15 UNL     1      42.583   3.243  38.464  1.00  0.00    -0.026 C 
HETATM   32  C18 UNL     1      43.803   4.975  37.509  1.00  0.00     0.017 C 
HETATM   33  C16 UNL     1      42.687   3.016  37.169  1.00  0.00    -0.025 C 
HETATM   34  C17 UNL     1      43.846   3.726  36.586  1.00  0.00     0.014 C 
ENDBRANCH  26  28
ENDBRANCH  23  26
ENDBRANCH  22  23
ENDBRANCH   4  22
TORSDOF 12
ENDMDL
MODEL 5
REMARK VINA RESULT: -6.776839697      2.837      3.635
REMARK  12 active torsions:
REMARK  status: ('A' for Active; 'I' for Inactive)
REMARK    1  A    between atoms: N1_2  and  C2_4 
REMARK    2  A    between atoms: C2_4  and  N2_6 
REMARK    3  A    between atoms: N2_6  and  N3_8 
REMARK       I    between atoms: N3_8  and  C3_10 
REMARK    4  A    between atoms: C3_10  and  C4_12 
REMARK    5  A    between atoms: C4_12  and  C5_13 
REMARK    6  A    between atoms: C4_12  and  N4_17 
REMARK    7  A    between atoms: C5_13  and  C6_14 
REMARK       I    between atoms: N4_17  and  C9_18 
REMARK       I    between atoms: C9_18  and  N5_20 
REMARK    8  A    between atoms: N5_20  and  N6_22 
REMARK    9  A    between atoms: N6_22  and  C10_23 
REMARK   10  A    between atoms: C10_23  and  O3_24 
REMARK   11  A    between atoms: C10_23  and  C11_26 
REMARK   12  A    between atoms: C11_26  and  C12_28 
ROOT
HETATM    1  N4  UNL     1      42.232  -0.341  32.657  1.00  0.00    -0.380 NA
HETATM    2  C9  UNL     1      42.788   0.277  33.690  1.00  0.00     0.418 C 
HETATM    3  O2  UNL     1      42.242   0.609  34.807  1.00  0.00    -0.228 OA
HETATM    4  N5  UNL     1      44.251   0.588  33.629  1.00  0.00    -0.170 N 
ATOM      5  H5  UNL     1      44.702   0.669  32.717  1.00  0.00     0.208 HD
ENDROOT
BRANCH   1   6
HETATM    6  C4  UNL     1      41.620  -1.002  31.567  1.00  0.00     0.262 C 
BRANCH   6   7
HETATM    7  C3  UNL     1      42.897  -0.958  30.635  1.00  0.00     0.272 C 
HETATM    8  N3  UNL     1      42.670  -0.738  29.294  1.00  0.00    -0.265 N 
ATOM      9  H3  UNL     1      41.755  -0.556  28.881  1.00  0.00     0.190 HD
HETATM   10  O1  UNL     1      43.895  -1.112  31.223  1.00  0.00    -0.268 OA
BRANCH   8  11
HETATM   11  N2  UNL     1      43.926  -0.801  28.544  1.00  0.00    -0.274 N 
ATOM     12  H2  UNL     1      44.724  -0.186  28.702  1.00  0.00     0.189 HD
BRANCH  11  13
HETATM   13  C2  UNL     1      43.887  -1.829  27.572  1.00  0.00     0.186 C 
HETATM   14  S1  UNL     1      43.311  -3.358  27.987  1.00  0.00    -0.040 SA
BRANCH  13  15
HETATM   15  N1  UNL     1      44.319  -1.622  26.206  1.00  0.00    -0.370 N 
HETATM   16  C1  UNL     1      44.250  -2.694  25.319  1.00  0.00     0.148 C 
ATOM     17  H1  UNL     1      44.665  -0.712  25.901  1.00  0.00     0.161 HD
ENDBRANCH  13  15
ENDBRANCH  11  13
ENDBRANCH   8  11
ENDBRANCH   6   7
BRANCH   6  18
HETATM   18  C5  UNL     1      40.424  -0.591  30.909  1.00  0.00     0.053 C 
BRANCH  18  19
HETATM   19  C6  UNL     1      39.356  -1.709  30.900  1.00  0.00    -0.019 C 
HETATM   20  C7  UNL     1      39.631  -2.663  29.742  1.00  0.00     0.009 C 
HETATM   21  C8  UNL     1      37.952  -1.289  30.883  1.00  0.00     0.009 C 
ENDBRANCH  18  19
ENDBRANCH   6  18
ENDBRANCH   1   6
BRANCH   4  22
HETATM   22  N6  UNL     1      45.005   0.767  34.760  1.00  0.00    -0.298 NA
BRANCH  22  23
HETATM   23  C10 UNL     1      45.717   1.158  35.761  1.00  0.00     0.233 C 
BRANCH  23  24
HETATM   24  O3  UNL     1      45.766   2.505  36.069  1.00  0.00    -0.336 OA
ATOM     25  H3  UNL     1      46.358   2.804  36.748  1.00  0.00     0.220 HD
ENDBRANCH  23  24
BRANCH  23  26
HETATM   26  C11 UNL     1      46.541   0.353  36.649  1.00  0.00     0.178 C 
HETATM   27 CL1  UNL     1      45.545  -0.937  37.563  1.00  0.00    -0.115 Cl
BRANCH  26  28
HETATM   28  C12 UNL     1      47.690  -0.450  36.144  1.00  0.00     0.021 C 
HETATM   29  C13 UNL     1      47.614  -1.779  36.867  1.00  0.00     0.015 C 
HETATM   30  C14 UNL     1      48.939  -1.970  37.501  1.00  0.00     0.009 C 
HETATM   31  C15 UNL     1      49.096  -0.923  38.563  1.00  0.00    -0.026 C 
HETATM   32  C18 UNL     1      49.792  -1.318  36.381  1.00  0.00     0.017 C 
HETATM   33  C16 UNL     1      49.162   0.233  37.930  1.00  0.00    -0.025 C 
HETATM   34  C17 UNL     1      49.067   0.053  36.465  1.00  0.00     0.014 C 
ENDBRANCH  26  28
ENDBRANCH  23  26
ENDBRANCH  22  23
ENDBRANCH   4  22
TORSDOF 12
ENDMDL
