MODEL 1
REMARK VINA RESULT: -7.883819994      0.000      0.000
REMARK  6 active torsions:
REMARK  status: ('A' for Active; 'I' for Inactive)
REMARK       I    between atoms: C1_4  and  N2_5 
REMARK       I    between atoms: C1_4  and  N3_16 
REMARK    1  A    between atoms: N2_5  and  C2_7 
REMARK    2  A    between atoms: C2_7  and  C3_8 
REMARK    3  A    between atoms: C3_8  and  C4_9 
REMARK    4  A    between atoms: N3_16  and  C10_18 
REMARK    5  A    between atoms: C10_18  and  C11_19 
REMARK    6  A    between atoms: C11_19  and  N4_20 
ROOT
HETATM    1  N4  UNL     1      43.527   0.754  34.754  1.00  0.00    -0.372 N 
HETATM    2  C12 UNL     1      43.563   2.123  34.909  1.00  0.00     0.063 C 
HETATM    3  C13 UNL     1      43.516   2.606  36.351  1.00  0.00     0.046 C 
HETATM    4  C14 UNL     1      44.134   3.982  36.448  1.00  0.00     0.024 C 
HETATM    5  C15 UNL     1      43.849   4.616  37.795  1.00  0.00     0.114 C 
HETATM    6  N5  UNL     1      44.482   3.964  38.900  1.00  0.00    -0.420 N 
ATOM      7  H5  UNL     1      45.492   3.994  39.043  1.00  0.00     0.153 HD
HETATM    8  C16 UNL     1      43.605   3.269  39.790  1.00  0.00     0.141 C 
HETATM    9  C17 UNL     1      44.417   2.593  40.867  1.00  0.00     0.251 C 
HETATM   10  N6  UNL     1      45.789   2.376  40.468  1.00  0.00    -0.074 N 
ATOM     11  H61 UNL     1      46.425   2.944  41.026  1.00  0.00     0.277 HD
ATOM     12  H62 UNL     1      45.969   2.779  39.548  1.00  0.00     0.277 HD
HETATM   13  C18 UNL     1      46.170   0.988  40.505  1.00  0.00     0.234 C 
HETATM   14  C19 UNL     1      46.132   0.334  39.139  1.00  0.00     0.046 C 
HETATM   15  C20 UNL     1      47.140   0.917  38.185  1.00  0.00     0.115 C 
HETATM   16  N7  UNL     1      47.567  -0.073  37.244  1.00  0.00    -0.421 N 
ATOM     17  H7  UNL     1      48.544  -0.351  37.150  1.00  0.00     0.153 HD
HETATM   18  C21 UNL     1      46.532  -0.646  36.447  1.00  0.00     0.115 C 
HETATM   19  C22 UNL     1      45.795   0.328  35.563  1.00  0.00     0.039 C 
HETATM   20  C23 UNL     1      44.328  -0.028  35.657  1.00  0.00     0.128 C 
ENDROOT
BRANCH   1  21
HETATM   21  C11 UNL     1      42.946   0.066  33.707  1.00  0.00     0.083 C 
BRANCH  21  22
HETATM   22  C10 UNL     1      41.469  -0.069  33.756  1.00  0.00     0.182 C 
BRANCH  22  23
HETATM   23  N3  UNL     1      40.961  -1.218  33.106  1.00  0.00    -0.222 N 
HETATM   24  C1  UNL     1      41.087  -1.272  31.659  1.00  0.00     0.667 C 
HETATM   25  N1  UNL     1      40.454  -0.373  31.025  1.00  0.00    -0.235 N 
HETATM   26  N2  UNL     1      41.887  -2.303  31.115  1.00  0.00    -0.227 N 
ATOM     27  H12 UNL     1      40.542  -0.411  30.010  1.00  0.00     0.174 HD
ATOM     28  H11 UNL     1      39.876   0.370  31.418  1.00  0.00     0.174 HD
ATOM     29  H2  UNL     1      41.501  -3.246  31.151  1.00  0.00     0.177 HD
ATOM     30  H3  UNL     1      40.526  -1.977  33.631  1.00  0.00     0.178 HD
BRANCH  26  31
HETATM   31  C2  UNL     1      43.179  -2.165  30.520  1.00  0.00     0.142 C 
BRANCH  31  32
HETATM   32  C3  UNL     1      43.517  -3.353  29.660  1.00  0.00     0.058 C 
BRANCH  32  33
HETATM   33  C4  UNL     1      43.777  -2.938  28.245  1.00  0.00    -0.054 A 
HETATM   34  C5  UNL     1      44.089  -1.632  27.948  1.00  0.00     0.007 A 
HETATM   35  C6  UNL     1      44.353  -1.223  26.636  1.00  0.00     0.003 A 
HETATM   36  C7  UNL     1      44.304  -2.139  25.602  1.00  0.00     0.042 A 
HETATM   37  C8  UNL     1      43.995  -3.430  25.890  1.00  0.00     0.116 A 
HETATM   38  F1  UNL     1      43.938  -4.354  24.903  1.00  0.00    -0.206 F 
HETATM   39  C9  UNL     1      43.735  -3.829  27.185  1.00  0.00     0.049 A 
ENDBRANCH  32  33
ENDBRANCH  31  32
ENDBRANCH  26  31
ENDBRANCH  22  23
ENDBRANCH  21  22
ENDBRANCH   1  21
TORSDOF 6
ENDMDL
MODEL 2
REMARK VINA RESULT: -7.811623156      1.868      2.877
REMARK  6 active torsions:
REMARK  status: ('A' for Active; 'I' for Inactive)
REMARK       I    between atoms: C1_4  and  N2_5 
REMARK       I    between atoms: C1_4  and  N3_16 
REMARK    1  A    between atoms: N2_5  and  C2_7 
REMARK    2  A    between atoms: C2_7  and  C3_8 
REMARK    3  A    between atoms: C3_8  and  C4_9 
REMARK    4  A    between atoms: N3_16  and  C10_18 
REMARK    5  A    between atoms: C10_18  and  C11_19 
REMARK    6  A    between atoms: C11_19  and  N4_20 
ROOT
HETATM    1  N4  UNL     1      40.796  -1.128  33.823  1.00  0.00    -0.372 N 
HETATM    2  C12 UNL     1      40.262   0.010  34.389  1.00  0.00     0.063 C 
HETATM    3  C13 UNL     1      40.971   0.494  35.645  1.00  0.00     0.046 C 
HETATM    4  C14 UNL     1      40.724   1.974  35.832  1.00  0.00     0.024 C 
HETATM    5  C15 UNL     1      41.163   2.432  37.208  1.00  0.00     0.114 C 
HETATM    6  N5  UNL     1      42.575   2.370  37.429  1.00  0.00    -0.420 N 
ATOM      7  H5  UNL     1      43.226   2.997  36.958  1.00  0.00     0.153 HD
HETATM    8  C16 UNL     1      43.011   1.371  38.355  1.00  0.00     0.141 C 
HETATM    9  C17 UNL     1      44.517   1.392  38.443  1.00  0.00     0.251 C 
HETATM   10  N6  UNL     1      45.128   1.986  37.276  1.00  0.00    -0.074 N 
ATOM     11  H61 UNL     1      45.589   2.865  37.513  1.00  0.00     0.277 HD
ATOM     12  H62 UNL     1      44.419   2.340  36.633  1.00  0.00     0.277 HD
HETATM   13  C18 UNL     1      46.035   1.093  36.603  1.00  0.00     0.234 C 
HETATM   14  C19 UNL     1      45.411   0.429  35.393  1.00  0.00     0.046 C 
HETATM   15  C20 UNL     1      45.060   1.409  34.306  1.00  0.00     0.115 C 
HETATM   16  N7  UNL     1      45.145   0.780  33.022  1.00  0.00    -0.421 N 
ATOM     17  H7  UNL     1      45.768   1.120  32.289  1.00  0.00     0.153 HD
HETATM   18  C21 UNL     1      44.301  -0.355  32.840  1.00  0.00     0.115 C 
HETATM   19  C22 UNL     1      42.824  -0.075  32.953  1.00  0.00     0.039 C 
HETATM   20  C23 UNL     1      42.230  -1.213  33.753  1.00  0.00     0.128 C 
ENDROOT
BRANCH   1  21
HETATM   21  C11 UNL     1      40.095  -2.111  33.152  1.00  0.00     0.083 C 
BRANCH  21  22
HETATM   22  C10 UNL     1      39.065  -1.638  32.194  1.00  0.00     0.182 C 
BRANCH  22  23
HETATM   23  N3  UNL     1      39.270  -2.051  30.858  1.00  0.00    -0.222 N 
HETATM   24  C1  UNL     1      40.483  -1.594  30.201  1.00  0.00     0.667 C 
HETATM   25  N1  UNL     1      40.580  -0.337  30.051  1.00  0.00    -0.235 N 
HETATM   26  N2  UNL     1      41.416  -2.579  29.802  1.00  0.00    -0.227 N 
ATOM     27  H12 UNL     1      41.431  -0.017  29.591  1.00  0.00     0.174 HD
ATOM     28  H11 UNL     1      39.907   0.373  30.339  1.00  0.00     0.174 HD
ATOM     29  H2  UNL     1      41.157  -3.153  28.999  1.00  0.00     0.177 HD
ATOM     30  H3  UNL     1      38.595  -2.645  30.375  1.00  0.00     0.178 HD
BRANCH  26  31
HETATM   31  C2  UNL     1      42.683  -2.857  30.402  1.00  0.00     0.142 C 
BRANCH  31  32
HETATM   32  C3  UNL     1      43.524  -3.742  29.522  1.00  0.00     0.058 C 
BRANCH  32  33
HETATM   33  C4  UNL     1      43.799  -3.087  28.204  1.00  0.00    -0.054 A 
HETATM   34  C5  UNL     1      44.137  -1.756  28.144  1.00  0.00     0.007 A 
HETATM   35  C6  UNL     1      44.415  -1.125  26.927  1.00  0.00     0.003 A 
HETATM   36  C7  UNL     1      44.355  -1.842  25.746  1.00  0.00     0.042 A 
HETATM   37  C8  UNL     1      44.021  -3.157  25.800  1.00  0.00     0.116 A 
HETATM   38  F1  UNL     1      43.953  -3.890  24.664  1.00  0.00    -0.206 F 
HETATM   39  C9  UNL     1      43.747  -3.775  27.002  1.00  0.00     0.049 A 
ENDBRANCH  32  33
ENDBRANCH  31  32
ENDBRANCH  26  31
ENDBRANCH  22  23
ENDBRANCH  21  22
ENDBRANCH   1  21
TORSDOF 6
ENDMDL
MODEL 3
REMARK VINA RESULT: -7.686810138      2.174      3.751
REMARK  6 active torsions:
REMARK  status: ('A' for Active; 'I' for Inactive)
REMARK       I    between atoms: C1_4  and  N2_5 
REMARK       I    between atoms: C1_4  and  N3_16 
REMARK    1  A    between atoms: N2_5  and  C2_7 
REMARK    2  A    between atoms: C2_7  and  C3_8 
REMARK    3  A    between atoms: C3_8  and  C4_9 
REMARK    4  A    between atoms: N3_16  and  C10_18 
REMARK    5  A    between atoms: C10_18  and  C11_19 
REMARK    6  A    between atoms: C11_19  and  N4_20 
ROOT
HETATM    1  N4  UNL     1      44.468   0.110  37.141  1.00  0.00    -0.372 N 
HETATM    2  C12 UNL     1      44.681   0.621  38.404  1.00  0.00     0.063 C 
HETATM    3  C13 UNL     1      45.588  -0.219  39.290  1.00  0.00     0.046 C 
HETATM    4  C14 UNL     1      46.214   0.655  40.354  1.00  0.00     0.024 C 
HETATM    5  C15 UNL     1      46.887  -0.182  41.423  1.00  0.00     0.114 C 
HETATM    6  N5  UNL     1      48.034  -0.907  40.970  1.00  0.00    -0.420 N 
ATOM      7  H5  UNL     1      48.905  -0.443  40.714  1.00  0.00     0.153 HD
HETATM    8  C16 UNL     1      47.877  -2.327  40.900  1.00  0.00     0.141 C 
HETATM    9  C17 UNL     1      49.143  -2.945  40.359  1.00  0.00     0.251 C 
HETATM   10  N6  UNL     1      49.934  -2.004  39.600  1.00  0.00    -0.074 N 
ATOM     11  H61 UNL     1      50.815  -1.802  40.074  1.00  0.00     0.277 HD
ATOM     12  H62 UNL     1      49.516  -1.073  39.624  1.00  0.00     0.277 HD
HETATM   13  C18 UNL     1      50.164  -2.431  38.245  1.00  0.00     0.234 C 
HETATM   14  C19 UNL     1      49.228  -1.766  37.256  1.00  0.00     0.046 C 
HETATM   15  C20 UNL     1      49.438  -0.279  37.164  1.00  0.00     0.115 C 
HETATM   16  N7  UNL     1      49.109   0.191  35.851  1.00  0.00    -0.421 N 
ATOM     17  H7  UNL     1      49.785   0.672  35.258  1.00  0.00     0.153 HD
HETATM   18  C21 UNL     1      47.769  -0.061  35.431  1.00  0.00     0.115 C 
HETATM   19  C22 UNL     1      46.703   0.592  36.273  1.00  0.00     0.039 C 
HETATM   20  C23 UNL     1      45.609  -0.436  36.457  1.00  0.00     0.128 C 
ENDROOT
BRANCH   1  21
HETATM   21  C11 UNL     1      43.313   0.235  36.394  1.00  0.00     0.083 C 
BRANCH  21  22
HETATM   22  C10 UNL     1      43.255  -0.567  35.146  1.00  0.00     0.182 C 
BRANCH  22  23
HETATM   23  N3  UNL     1      42.863   0.160  33.998  1.00  0.00    -0.222 N 
HETATM   24  C1  UNL     1      43.671  -0.005  32.801  1.00  0.00     0.667 C 
HETATM   25  N1  UNL     1      44.874   0.387  32.900  1.00  0.00    -0.235 N 
HETATM   26  N2  UNL     1      43.045  -0.574  31.669  1.00  0.00    -0.227 N 
ATOM     27  H12 UNL     1      45.441   0.272  32.060  1.00  0.00     0.174 HD
ATOM     28  H11 UNL     1      45.325   0.799  33.717  1.00  0.00     0.174 HD
ATOM     29  H2  UNL     1      42.373   0.014  31.175  1.00  0.00     0.177 HD
ATOM     30  H3  UNL     1      42.048   0.773  34.009  1.00  0.00     0.178 HD
BRANCH  26  31
HETATM   31  C2  UNL     1      43.253  -1.886  31.140  1.00  0.00     0.142 C 
BRANCH  31  32
HETATM   32  C3  UNL     1      42.349  -2.155  29.967  1.00  0.00     0.058 C 
BRANCH  32  33
HETATM   33  C4  UNL     1      43.120  -2.158  28.683  1.00  0.00    -0.054 A 
HETATM   34  C5  UNL     1      43.913  -1.089  28.343  1.00  0.00     0.007 A 
HETATM   35  C6  UNL     1      44.656  -1.077  27.157  1.00  0.00     0.003 A 
HETATM   36  C7  UNL     1      44.604  -2.157  26.296  1.00  0.00     0.042 A 
HETATM   37  C8  UNL     1      43.821  -3.216  26.627  1.00  0.00     0.116 A 
HETATM   38  F1  UNL     1      43.746  -4.291  25.808  1.00  0.00    -0.206 F 
HETATM   39  C9  UNL     1      43.090  -3.224  27.797  1.00  0.00     0.049 A 
ENDBRANCH  32  33
ENDBRANCH  31  32
ENDBRANCH  26  31
ENDBRANCH  22  23
ENDBRANCH  21  22
ENDBRANCH   1  21
TORSDOF 6
ENDMDL
MODEL 4
REMARK VINA RESULT: -7.620972761      5.174      9.299
REMARK  6 active torsions:
REMARK  status: ('A' for Active; 'I' for Inactive)
REMARK       I    between atoms: C1_4  and  N2_5 
REMARK       I    between atoms: C1_4  and  N3_16 
REMARK    1  A    between atoms: N2_5  and  C2_7 
REMARK    2  A    between atoms: C2_7  and  C3_8 
REMARK    3  A    between atoms: C3_8  and  C4_9 
REMARK    4  A    between atoms: N3_16  and  C10_18 
REMARK    5  A    between atoms: C10_18  and  C11_19 
REMARK    6  A    between atoms: C11_19  and  N4_20 
ROOT
HETATM    1  N4  UNL     1      39.387  -1.076  31.510  1.00  0.00    -0.372 N 
HETATM    2  C12 UNL     1      38.204  -0.666  32.088  1.00  0.00     0.063 C 
HETATM    3  C13 UNL     1      37.005  -0.652  31.153  1.00  0.00     0.046 C 
HETATM    4  C14 UNL     1      35.730  -0.776  31.955  1.00  0.00     0.024 C 
HETATM    5  C15 UNL     1      34.515  -0.477  31.101  1.00  0.00     0.114 C 
HETATM    6  N5  UNL     1      34.269  -1.434  30.067  1.00  0.00    -0.420 N 
ATOM      7  H5  UNL     1      33.956  -2.384  30.269  1.00  0.00     0.153 HD
HETATM    8  C16 UNL     1      34.492  -0.972  28.732  1.00  0.00     0.141 C 
HETATM    9  C17 UNL     1      34.244  -2.102  27.763  1.00  0.00     0.251 C 
HETATM   10  N6  UNL     1      34.363  -3.399  28.388  1.00  0.00    -0.074 N 
ATOM     11  H61 UNL     1      33.461  -3.874  28.415  1.00  0.00     0.277 HD
ATOM     12  H62 UNL     1      34.532  -3.307  29.390  1.00  0.00     0.277 HD
HETATM   13  C18 UNL     1      35.364  -4.229  27.770  1.00  0.00     0.234 C 
HETATM   14  C19 UNL     1      36.673  -4.232  28.533  1.00  0.00     0.046 C 
HETATM   15  C20 UNL     1      36.548  -4.845  29.902  1.00  0.00     0.115 C 
HETATM   16  N7  UNL     1      37.786  -5.452  30.290  1.00  0.00    -0.421 N 
ATOM     17  H7  UNL     1      37.859  -6.443  30.519  1.00  0.00     0.153 HD
HETATM   18  C21 UNL     1      38.909  -4.575  30.335  1.00  0.00     0.115 C 
HETATM   19  C22 UNL     1      38.795  -3.441  31.322  1.00  0.00     0.039 C 
HETATM   20  C23 UNL     1      39.325  -2.207  30.625  1.00  0.00     0.128 C 
ENDROOT
BRANCH   1  21
HETATM   21  C11 UNL     1      40.652  -0.627  31.835  1.00  0.00     0.083 C 
BRANCH  21  22
HETATM   22  C10 UNL     1      41.173  -1.052  33.159  1.00  0.00     0.182 C 
BRANCH  22  23
HETATM   23  N3  UNL     1      42.410  -1.736  33.112  1.00  0.00    -0.222 N 
HETATM   24  C1  UNL     1      42.393  -3.106  32.628  1.00  0.00     0.667 C 
HETATM   25  N1  UNL     1      41.725  -3.923  33.333  1.00  0.00    -0.235 N 
HETATM   26  N2  UNL     1      43.109  -3.384  31.441  1.00  0.00    -0.227 N 
ATOM     27  H12 UNL     1      41.713  -4.885  32.994  1.00  0.00     0.174 HD
ATOM     28  H11 UNL     1      41.209  -3.722  34.190  1.00  0.00     0.174 HD
ATOM     29  H2  UNL     1      44.126  -3.387  31.512  1.00  0.00     0.177 HD
ATOM     30  H3  UNL     1      43.278  -1.287  33.404  1.00  0.00     0.178 HD
BRANCH  26  31
HETATM   31  C2  UNL     1      42.560  -3.663  30.151  1.00  0.00     0.142 C 
BRANCH  31  32
HETATM   32  C3  UNL     1      43.612  -4.180  29.206  1.00  0.00     0.058 C 
BRANCH  32  33
HETATM   33  C4  UNL     1      43.841  -3.222  28.078  1.00  0.00    -0.054 A 
HETATM   34  C5  UNL     1      43.933  -1.872  28.318  1.00  0.00     0.007 A 
HETATM   35  C6  UNL     1      44.164  -0.959  27.284  1.00  0.00     0.003 A 
HETATM   36  C7  UNL     1      44.305  -1.407  25.984  1.00  0.00     0.042 A 
HETATM   37  C8  UNL     1      44.213  -2.740  25.741  1.00  0.00     0.116 A 
HETATM   38  F1  UNL     1      44.348  -3.214  24.480  1.00  0.00    -0.206 F 
HETATM   39  C9  UNL     1      43.986  -3.636  26.764  1.00  0.00     0.049 A 
ENDBRANCH  32  33
ENDBRANCH  31  32
ENDBRANCH  26  31
ENDBRANCH  22  23
ENDBRANCH  21  22
ENDBRANCH   1  21
TORSDOF 6
ENDMDL
MODEL 5
REMARK VINA RESULT: -7.619034418      1.525      1.974
REMARK  6 active torsions:
REMARK  status: ('A' for Active; 'I' for Inactive)
REMARK       I    between atoms: C1_4  and  N2_5 
REMARK       I    between atoms: C1_4  and  N3_16 
REMARK    1  A    between atoms: N2_5  and  C2_7 
REMARK    2  A    between atoms: C2_7  and  C3_8 
REMARK    3  A    between atoms: C3_8  and  C4_9 
REMARK    4  A    between atoms: N3_16  and  C10_18 
REMARK    5  A    between atoms: C10_18  and  C11_19 
REMARK    6  A    between atoms: C11_19  and  N4_20 
ROOT
HETATM    1  N4  UNL     1      45.205   0.933  35.365  1.00  0.00    -0.372 N 
HETATM    2  C12 UNL     1      45.060   2.034  36.182  1.00  0.00     0.063 C 
HETATM    3  C13 UNL     1      44.971   1.722  37.668  1.00  0.00     0.046 C 
HETATM    4  C14 UNL     1      45.401   2.929  38.470  1.00  0.00     0.024 C 
HETATM    5  C15 UNL     1      45.055   2.764  39.936  1.00  0.00     0.114 C 
HETATM    6  N5  UNL     1      45.787   1.731  40.603  1.00  0.00    -0.420 N 
ATOM      7  H5  UNL     1      46.785   1.810  40.795  1.00  0.00     0.153 HD
HETATM    8  C16 UNL     1      45.025   0.581  40.981  1.00  0.00     0.141 C 
HETATM    9  C17 UNL     1      45.937  -0.436  41.621  1.00  0.00     0.251 C 
HETATM   10  N6  UNL     1      47.319  -0.253  41.241  1.00  0.00    -0.074 N 
ATOM     11  H61 UNL     1      47.882   0.035  42.041  1.00  0.00     0.277 HD
ATOM     12  H62 UNL     1      47.429   0.575  40.655  1.00  0.00     0.277 HD
HETATM   13  C18 UNL     1      47.883  -1.414  40.603  1.00  0.00     0.234 C 
HETATM   14  C19 UNL     1      47.911  -1.296  39.093  1.00  0.00     0.046 C 
HETATM   15  C20 UNL     1      48.817  -0.195  38.611  1.00  0.00     0.115 C 
HETATM   16  N7  UNL     1      49.358  -0.521  37.326  1.00  0.00    -0.421 N 
ATOM     17  H7  UNL     1      50.362  -0.591  37.159  1.00  0.00     0.153 HD
HETATM   18  C21 UNL     1      48.397  -0.741  36.296  1.00  0.00     0.115 C 
HETATM   19  C22 UNL     1      47.523   0.445  35.975  1.00  0.00     0.039 C 
HETATM   20  C23 UNL     1      46.118  -0.089  35.802  1.00  0.00     0.128 C 
ENDROOT
BRANCH   1  21
HETATM   21  C11 UNL     1      44.706   0.795  34.085  1.00  0.00     0.083 C 
BRANCH  21  22
HETATM   22  C10 UNL     1      43.245   0.555  33.979  1.00  0.00     0.182 C 
BRANCH  22  23
HETATM   23  N3  UNL     1      42.877  -0.808  33.897  1.00  0.00    -0.222 N 
HETATM   24  C1  UNL     1      42.152  -1.229  32.710  1.00  0.00     0.667 C 
HETATM   25  N1  UNL     1      41.013  -0.692  32.550  1.00  0.00    -0.235 N 
HETATM   26  N2  UNL     1      42.778  -2.178  31.869  1.00  0.00    -0.227 N 
ATOM     27  H12 UNL     1      40.504  -0.988  31.717  1.00  0.00     0.174 HD
ATOM     28  H11 UNL     1      40.561  -0.008  33.157  1.00  0.00     0.174 HD
ATOM     29  H2  UNL     1      42.828  -3.134  32.219  1.00  0.00     0.177 HD
ATOM     30  H3  UNL     1      43.112  -1.468  34.638  1.00  0.00     0.178 HD
BRANCH  26  31
HETATM   31  C2  UNL     1      43.348  -1.940  30.580  1.00  0.00     0.142 C 
BRANCH  31  32
HETATM   32  C3  UNL     1      43.235  -3.154  29.697  1.00  0.00     0.058 C 
BRANCH  32  33
HETATM   33  C4  UNL     1      43.604  -2.828  28.283  1.00  0.00    -0.054 A 
HETATM   34  C5  UNL     1      43.975  -1.551  27.936  1.00  0.00     0.007 A 
HETATM   35  C6  UNL     1      44.341  -1.225  26.625  1.00  0.00     0.003 A 
HETATM   36  C7  UNL     1      44.336  -2.198  25.643  1.00  0.00     0.042 A 
HETATM   37  C8  UNL     1      43.969  -3.462  25.981  1.00  0.00     0.116 A 
HETATM   38  F1  UNL     1      43.953  -4.440  25.045  1.00  0.00    -0.206 F 
HETATM   39  C9  UNL     1      43.609  -3.778  27.274  1.00  0.00     0.049 A 
ENDBRANCH  32  33
ENDBRANCH  31  32
ENDBRANCH  26  31
ENDBRANCH  22  23
ENDBRANCH  21  22
ENDBRANCH   1  21
TORSDOF 6
ENDMDL
