MODEL 1
REMARK VINA RESULT: -8.559750418      0.000      0.000
REMARK  9 active torsions:
REMARK  status: ('A' for Active; 'I' for Inactive)
REMARK       I    between atoms: C1_2  and  N1_3 
REMARK    1  A    between atoms: C1_2  and  C15_23 
REMARK       I    between atoms: N1_3  and  C2_5 
REMARK       I    between atoms: C2_5  and  N2_6 
REMARK       I    between atoms: C2_5  and  N3_13 
REMARK    2  A    between atoms: N2_6  and  C3_7 
REMARK    3  A    between atoms: N3_13  and  C9_15 
REMARK    4  A    between atoms: C14_20  and  O2_21 
REMARK    5  A    between atoms: C18_26  and  N4_27 
REMARK    6  A    between atoms: N4_27  and  S1_29 
REMARK    7  A    between atoms: S1_29  and  N5_32 
REMARK    8  A    between atoms: N5_32  and  C19_34 
REMARK    9  A    between atoms: C19_34  and  C20_35 
ROOT
HETATM    1  O1  UNL     1      44.117   1.555  33.937  1.00  0.00    -0.266 OA
HETATM    2  C1  UNL     1      44.471   0.382  33.768  1.00  0.00     0.275 C 
HETATM    3  N1  UNL     1      45.525  -0.231  34.475  1.00  0.00    -0.282 N 
ATOM      4  H1  UNL     1      45.742  -1.205  34.260  1.00  0.00     0.173 HD
HETATM    5  C2  UNL     1      46.312   0.429  35.477  1.00  0.00     0.253 C 
HETATM    6  N2  UNL     1      47.213  -0.180  36.011  1.00  0.00    -0.410 NA
HETATM    7  N3  UNL     1      46.010   1.782  35.810  1.00  0.00    -0.344 N 
ATOM      8  H3  UNL     1      46.401   2.515  35.218  1.00  0.00     0.164 HD
ENDROOT
BRANCH   2   9
HETATM    9  C15 UNL     1      43.719  -0.391  32.754  1.00  0.00     0.102 A 
HETATM   10  C16 UNL     1      42.398  -0.767  32.853  1.00  0.00     0.039 A 
HETATM   11  C17 UNL     1      42.036  -1.489  31.716  1.00  0.00     0.051 A 
HETATM   12  C18 UNL     1      43.164  -1.538  30.934  1.00  0.00     0.116 A 
HETATM   13  N6  UNL     1      44.152  -0.865  31.594  1.00  0.00    -0.338 N 
ATOM     14  H6  UNL     1      45.102  -0.744  31.241  1.00  0.00     0.167 HD
BRANCH  12  15
HETATM   15  N4  UNL     1      43.260  -2.179  29.681  1.00  0.00    -0.253 N 
ATOM     16  H4  UNL     1      44.031  -1.928  29.062  1.00  0.00     0.182 HD
BRANCH  15  17
HETATM   17  S1  UNL     1      42.142  -3.357  29.156  1.00  0.00     0.320 S 
HETATM   18  O3  UNL     1      41.894  -4.318  30.307  1.00  0.00    -0.182 OA
HETATM   19  O4  UNL     1      40.824  -2.830  28.736  1.00  0.00    -0.182 OA
BRANCH  17  20
HETATM   20  N5  UNL     1      42.789  -4.325  27.876  1.00  0.00    -0.302 N 
ATOM     21  H5  UNL     1      42.357  -5.177  27.520  1.00  0.00     0.173 HD
BRANCH  20  22
HETATM   22  C19 UNL     1      44.030  -3.757  27.376  1.00  0.00     0.138 C 
BRANCH  22  23
HETATM   23  C20 UNL     1      43.815  -2.745  26.304  1.00  0.00     0.004 A 
HETATM   24  C21 UNL     1      44.548  -2.811  25.019  1.00  0.00     0.007 A 
HETATM   25  C22 UNL     1      45.020  -1.821  26.015  1.00  0.00     0.007 A 
ENDBRANCH  22  23
ENDBRANCH  20  22
ENDBRANCH  17  20
ENDBRANCH  15  17
ENDBRANCH  12  15
ENDBRANCH   2   9
BRANCH   6  26
HETATM   26  C3  UNL     1      48.199  -0.812  36.611  1.00  0.00     0.167 C 
HETATM   27  C4  UNL     1      48.393  -0.619  38.112  1.00  0.00     0.039 C 
HETATM   28  C5  UNL     1      49.461  -1.583  38.556  1.00  0.00     0.003 C 
HETATM   29  C6  UNL     1      50.761  -1.402  37.852  1.00  0.00     0.000 C 
HETATM   30  C7  UNL     1      50.535  -1.544  36.344  1.00  0.00     0.003 C 
HETATM   31  C8  UNL     1      49.559  -0.463  35.950  1.00  0.00     0.039 C 
ENDBRANCH   6  26
BRANCH   7  32
HETATM   32  C9  UNL     1      45.186   2.189  36.931  1.00  0.00     0.114 C 
HETATM   33  C10 UNL     1      45.997   2.073  38.181  1.00  0.00     0.028 C 
HETATM   34  C11 UNL     1      45.575   2.888  39.341  1.00  0.00     0.002 C 
HETATM   35  C12 UNL     1      44.111   3.239  39.167  1.00  0.00     0.003 C 
HETATM   36  C13 UNL     1      44.079   4.186  37.985  1.00  0.00     0.034 C 
HETATM   37  C14 UNL     1      44.570   3.540  36.727  1.00  0.00     0.140 C 
BRANCH  37  38
HETATM   38  O2  UNL     1      43.509   3.537  35.832  1.00  0.00    -0.394 OA
ATOM     39  H2  UNL     1      43.711   3.951  35.002  1.00  0.00     0.210 HD
ENDBRANCH  37  38
ENDBRANCH   7  32
TORSDOF 9
ENDMDL
MODEL 2
REMARK VINA RESULT: -8.280104320      1.842      2.384
REMARK  9 active torsions:
REMARK  status: ('A' for Active; 'I' for Inactive)
REMARK       I    between atoms: C1_2  and  N1_3 
REMARK    1  A    between atoms: C1_2  and  C15_23 
REMARK       I    between atoms: N1_3  and  C2_5 
REMARK       I    between atoms: C2_5  and  N2_6 
REMARK       I    between atoms: C2_5  and  N3_13 
REMARK    2  A    between atoms: N2_6  and  C3_7 
REMARK    3  A    between atoms: N3_13  and  C9_15 
REMARK    4  A    between atoms: C14_20  and  O2_21 
REMARK    5  A    between atoms: C18_26  and  N4_27 
REMARK    6  A    between atoms: N4_27  and  S1_29 
REMARK    7  A    between atoms: S1_29  and  N5_32 
REMARK    8  A    between atoms: N5_32  and  C19_34 
REMARK    9  A    between atoms: C19_34  and  C20_35 
ROOT
HETATM    1  O1  UNL     1      44.119   1.321  33.711  1.00  0.00    -0.266 OA
HETATM    2  C1  UNL     1      44.470   0.138  33.629  1.00  0.00     0.275 C 
HETATM    3  N1  UNL     1      45.519  -0.425  34.385  1.00  0.00    -0.282 N 
ATOM      4  H1  UNL     1      45.734  -1.412  34.243  1.00  0.00     0.173 HD
HETATM    5  C2  UNL     1      46.302   0.304  35.341  1.00  0.00     0.253 C 
HETATM    6  N2  UNL     1      47.199  -0.267  35.923  1.00  0.00    -0.410 NA
HETATM    7  N3  UNL     1      46.002   1.679  35.574  1.00  0.00    -0.344 N 
ATOM      8  H3  UNL     1      46.399   2.366  34.932  1.00  0.00     0.164 HD
ENDROOT
BRANCH   2   9
HETATM    9  C15 UNL     1      43.722  -0.704  32.670  1.00  0.00     0.102 A 
HETATM   10  C16 UNL     1      42.819  -1.689  33.005  1.00  0.00     0.039 A 
HETATM   11  C17 UNL     1      42.321  -2.275  31.842  1.00  0.00     0.051 A 
HETATM   12  C18 UNL     1      42.941  -1.624  30.804  1.00  0.00     0.116 A 
HETATM   13  N6  UNL     1      43.775  -0.687  31.346  1.00  0.00    -0.338 N 
ATOM     14  H6  UNL     1      44.363  -0.055  30.801  1.00  0.00     0.167 HD
BRANCH  12  15
HETATM   15  N4  UNL     1      42.741  -1.896  29.434  1.00  0.00    -0.253 N 
ATOM     16  H4  UNL     1      42.384  -1.151  28.836  1.00  0.00     0.182 HD
BRANCH  15  17
HETATM   17  S1  UNL     1      43.069  -3.418  28.736  1.00  0.00     0.320 S 
HETATM   18  O3  UNL     1      43.000  -3.269  27.225  1.00  0.00    -0.182 OA
HETATM   19  O4  UNL     1      44.400  -3.983  29.057  1.00  0.00    -0.182 OA
BRANCH  17  20
HETATM   20  N5  UNL     1      41.856  -4.582  29.143  1.00  0.00    -0.302 N 
ATOM     21  H5  UNL     1      40.882  -4.357  29.345  1.00  0.00     0.173 HD
BRANCH  20  22
HETATM   22  C19 UNL     1      42.414  -5.925  29.156  1.00  0.00     0.138 C 
BRANCH  22  23
HETATM   23  C20 UNL     1      42.408  -6.541  30.513  1.00  0.00     0.004 A 
HETATM   24  C21 UNL     1      43.077  -5.888  31.662  1.00  0.00     0.007 A 
HETATM   25  C22 UNL     1      43.784  -7.024  31.025  1.00  0.00     0.007 A 
ENDBRANCH  22  23
ENDBRANCH  20  22
ENDBRANCH  17  20
ENDBRANCH  15  17
ENDBRANCH  12  15
ENDBRANCH   2   9
BRANCH   6  26
HETATM   26  C3  UNL     1      48.180  -0.855  36.573  1.00  0.00     0.167 C 
HETATM   27  C4  UNL     1      48.330  -0.599  38.070  1.00  0.00     0.039 C 
HETATM   28  C5  UNL     1      49.403  -1.525  38.579  1.00  0.00     0.003 C 
HETATM   29  C6  UNL     1      50.718  -1.348  37.901  1.00  0.00     0.000 C 
HETATM   30  C7  UNL     1      50.534  -1.554  36.395  1.00  0.00     0.003 C 
HETATM   31  C8  UNL     1      49.550  -0.508  35.934  1.00  0.00     0.039 C 
ENDBRANCH   6  26
BRANCH   7  32
HETATM   32  C9  UNL     1      45.173   2.168  36.657  1.00  0.00     0.114 C 
HETATM   33  C10 UNL     1      45.980   2.150  37.916  1.00  0.00     0.028 C 
HETATM   34  C11 UNL     1      45.552   3.051  39.009  1.00  0.00     0.002 C 
HETATM   35  C12 UNL     1      44.087   3.383  38.803  1.00  0.00     0.003 C 
HETATM   36  C13 UNL     1      44.057   4.237  37.552  1.00  0.00     0.034 C 
HETATM   37  C14 UNL     1      44.554   3.498  36.349  1.00  0.00     0.140 C 
BRANCH  37  38
HETATM   38  O2  UNL     1      43.496   3.423  35.453  1.00  0.00    -0.394 OA
ATOM     39  H2  UNL     1      42.961   4.208  35.430  1.00  0.00     0.210 HD
ENDBRANCH  37  38
ENDBRANCH   7  32
TORSDOF 9
ENDMDL
MODEL 3
REMARK VINA RESULT: -8.210471961      3.450     10.243
REMARK  9 active torsions:
REMARK  status: ('A' for Active; 'I' for Inactive)
REMARK       I    between atoms: C1_2  and  N1_3 
REMARK    1  A    between atoms: C1_2  and  C15_23 
REMARK       I    between atoms: N1_3  and  C2_5 
REMARK       I    between atoms: C2_5  and  N2_6 
REMARK       I    between atoms: C2_5  and  N3_13 
REMARK    2  A    between atoms: N2_6  and  C3_7 
REMARK    3  A    between atoms: N3_13  and  C9_15 
REMARK    4  A    between atoms: C14_20  and  O2_21 
REMARK    5  A    between atoms: C18_26  and  N4_27 
REMARK    6  A    between atoms: N4_27  and  S1_29 
REMARK    7  A    between atoms: S1_29  and  N5_32 
REMARK    8  A    between atoms: N5_32  and  C19_34 
REMARK    9  A    between atoms: C19_34  and  C20_35 
ROOT
HETATM    1  O1  UNL     1      44.149  -0.321  31.766  1.00  0.00    -0.266 OA
HETATM    2  C1  UNL     1      43.184  -0.585  32.492  1.00  0.00     0.275 C 
HETATM    3  N1  UNL     1      41.901  -0.910  32.007  1.00  0.00    -0.282 N 
ATOM      4  H1  UNL     1      41.168  -1.110  32.688  1.00  0.00     0.173 HD
HETATM    5  C2  UNL     1      41.561  -0.978  30.614  1.00  0.00     0.253 C 
HETATM    6  N2  UNL     1      40.421  -1.244  30.300  1.00  0.00    -0.410 NA
HETATM    7  N3  UNL     1      42.575  -0.727  29.644  1.00  0.00    -0.344 N 
ATOM      8  H3  UNL     1      42.774   0.246  29.406  1.00  0.00     0.164 HD
ENDROOT
BRANCH   2   9
HETATM    9  C15 UNL     1      43.429  -0.546  33.951  1.00  0.00     0.102 A 
HETATM   10  C16 UNL     1      42.607  -1.086  34.914  1.00  0.00     0.039 A 
HETATM   11  C17 UNL     1      43.154  -0.848  36.175  1.00  0.00     0.051 A 
HETATM   12  C18 UNL     1      44.318  -0.157  35.949  1.00  0.00     0.116 A 
HETATM   13  N6  UNL     1      44.446   0.004  34.599  1.00  0.00    -0.338 N 
ATOM     14  H6  UNL     1      45.224   0.485  34.147  1.00  0.00     0.167 HD
BRANCH  12  15
HETATM   15  N4  UNL     1      45.203   0.300  36.949  1.00  0.00    -0.253 N 
ATOM     16  H4  UNL     1      44.893   1.048  37.570  1.00  0.00     0.182 HD
BRANCH  15  17
HETATM   17  S1  UNL     1      46.768  -0.345  37.166  1.00  0.00     0.320 S 
HETATM   18  O3  UNL     1      47.372   0.289  38.408  1.00  0.00    -0.182 OA
HETATM   19  O4  UNL     1      46.822  -1.813  37.355  1.00  0.00    -0.182 OA
BRANCH  17  20
HETATM   20  N5  UNL     1      47.822   0.090  35.866  1.00  0.00    -0.302 N 
ATOM     21  H5  UNL     1      47.739   0.943  35.313  1.00  0.00     0.173 HD
BRANCH  20  22
HETATM   22  C19 UNL     1      48.844  -0.926  35.668  1.00  0.00     0.138 C 
BRANCH  22  23
HETATM   23  C20 UNL     1      49.983  -0.796  36.619  1.00  0.00     0.004 A 
HETATM   24  C21 UNL     1      51.307  -1.394  36.327  1.00  0.00     0.007 A 
HETATM   25  C22 UNL     1      50.438  -2.113  37.289  1.00  0.00     0.007 A 
ENDBRANCH  22  23
ENDBRANCH  20  22
ENDBRANCH  17  20
ENDBRANCH  15  17
ENDBRANCH  12  15
ENDBRANCH   2   9
BRANCH   6  26
HETATM   26  C3  UNL     1      39.193  -1.530  29.924  1.00  0.00     0.167 C 
HETATM   27  C4  UNL     1      38.036  -1.178  30.854  1.00  0.00     0.039 C 
HETATM   28  C5  UNL     1      36.758  -1.447  30.105  1.00  0.00     0.003 C 
HETATM   29  C6  UNL     1      36.622  -2.856  29.640  1.00  0.00     0.000 C 
HETATM   30  C7  UNL     1      37.820  -3.206  28.754  1.00  0.00     0.003 C 
HETATM   31  C8  UNL     1      39.052  -3.043  29.609  1.00  0.00     0.039 C 
ENDBRANCH   6  26
BRANCH   7  32
HETATM   32  C9  UNL     1      43.345  -1.755  28.973  1.00  0.00     0.114 C 
HETATM   33  C10 UNL     1      42.452  -2.929  28.728  1.00  0.00     0.028 C 
HETATM   34  C11 UNL     1      42.836  -3.858  27.642  1.00  0.00     0.002 C 
HETATM   35  C12 UNL     1      44.322  -3.703  27.389  1.00  0.00     0.003 C 
HETATM   36  C13 UNL     1      44.471  -2.318  26.795  1.00  0.00     0.034 C 
HETATM   37  C14 UNL     1      44.032  -1.245  27.743  1.00  0.00     0.140 C 
BRANCH  37  38
HETATM   38  O2  UNL     1      45.146  -0.463  28.014  1.00  0.00    -0.394 OA
ATOM     39  H2  UNL     1      45.957  -0.829  27.682  1.00  0.00     0.210 HD
ENDBRANCH  37  38
ENDBRANCH   7  32
TORSDOF 9
ENDMDL
MODEL 4
REMARK VINA RESULT: -8.198457484      2.868      9.431
REMARK  9 active torsions:
REMARK  status: ('A' for Active; 'I' for Inactive)
REMARK       I    between atoms: C1_2  and  N1_3 
REMARK    1  A    between atoms: C1_2  and  C15_23 
REMARK       I    between atoms: N1_3  and  C2_5 
REMARK       I    between atoms: C2_5  and  N2_6 
REMARK       I    between atoms: C2_5  and  N3_13 
REMARK    2  A    between atoms: N2_6  and  C3_7 
REMARK    3  A    between atoms: N3_13  and  C9_15 
REMARK    4  A    between atoms: C14_20  and  O2_21 
REMARK    5  A    between atoms: C18_26  and  N4_27 
REMARK    6  A    between atoms: N4_27  and  S1_29 
REMARK    7  A    between atoms: S1_29  and  N5_32 
REMARK    8  A    between atoms: N5_32  and  C19_34 
REMARK    9  A    between atoms: C19_34  and  C20_35 
ROOT
HETATM    1  O1  UNL     1      42.253  -1.443  33.471  1.00  0.00    -0.266 OA
HETATM    2  C1  UNL     1      43.250  -0.870  33.018  1.00  0.00     0.275 C 
HETATM    3  N1  UNL     1      43.739  -1.059  31.709  1.00  0.00    -0.282 N 
ATOM      4  H1  UNL     1      44.572  -0.540  31.430  1.00  0.00     0.173 HD
HETATM    5  C2  UNL     1      43.136  -1.934  30.745  1.00  0.00     0.253 C 
HETATM    6  N2  UNL     1      43.648  -2.044  29.651  1.00  0.00    -0.410 NA
HETATM    7  N3  UNL     1      41.957  -2.650  31.105  1.00  0.00    -0.344 N 
ATOM      8  H3  UNL     1      42.071  -3.523  31.621  1.00  0.00     0.164 HD
ENDROOT
BRANCH   2   9
HETATM    9  C15 UNL     1      43.946   0.061  33.934  1.00  0.00     0.102 A 
HETATM   10  C16 UNL     1      43.440   1.255  34.396  1.00  0.00     0.039 A 
HETATM   11  C17 UNL     1      44.379   1.863  35.230  1.00  0.00     0.051 A 
HETATM   12  C18 UNL     1      45.455   1.012  35.259  1.00  0.00     0.116 A 
HETATM   13  N6  UNL     1      45.154  -0.060  34.467  1.00  0.00    -0.338 N 
ATOM     14  H6  UNL     1      45.778  -0.851  34.306  1.00  0.00     0.167 HD
BRANCH  12  15
HETATM   15  N4  UNL     1      46.649   1.230  35.979  1.00  0.00    -0.253 N 
ATOM     16  H4  UNL     1      46.997   2.184  36.069  1.00  0.00     0.182 HD
BRANCH  15  17
HETATM   17  S1  UNL     1      47.534  -0.034  36.707  1.00  0.00     0.320 S 
HETATM   18  O3  UNL     1      47.915   0.405  38.112  1.00  0.00    -0.182 OA
HETATM   19  O4  UNL     1      46.809  -1.319  36.833  1.00  0.00    -0.182 OA
BRANCH  17  20
HETATM   20  N5  UNL     1      49.032  -0.317  35.889  1.00  0.00    -0.302 N 
ATOM     21  H5  UNL     1      49.485   0.349  35.264  1.00  0.00     0.173 HD
BRANCH  20  22
HETATM   22  C19 UNL     1      49.557  -1.633  36.215  1.00  0.00     0.138 C 
BRANCH  22  23
HETATM   23  C20 UNL     1      50.791  -1.576  37.048  1.00  0.00     0.004 A 
HETATM   24  C21 UNL     1      51.305  -2.773  37.752  1.00  0.00     0.007 A 
HETATM   25  C22 UNL     1      50.573  -1.774  38.566  1.00  0.00     0.007 A 
ENDBRANCH  22  23
ENDBRANCH  20  22
ENDBRANCH  17  20
ENDBRANCH  15  17
ENDBRANCH  12  15
ENDBRANCH   2   9
BRANCH   6  26
HETATM   26  C3  UNL     1      44.176  -2.187  28.455  1.00  0.00     0.167 C 
HETATM   27  C4  UNL     1      44.407  -0.946  27.598  1.00  0.00     0.039 C 
HETATM   28  C5  UNL     1      45.176  -1.379  26.378  1.00  0.00     0.003 C 
HETATM   29  C6  UNL     1      44.485  -2.426  25.574  1.00  0.00     0.000 C 
HETATM   30  C7  UNL     1      44.212  -3.640  26.467  1.00  0.00     0.003 C 
HETATM   31  C8  UNL     1      43.330  -3.159  27.591  1.00  0.00     0.039 C 
ENDBRANCH   6  26
BRANCH   7  32
HETATM   32  C9  UNL     1      40.607  -2.224  30.790  1.00  0.00     0.114 C 
HETATM   33  C10 UNL     1      39.654  -3.029  31.613  1.00  0.00     0.028 C 
HETATM   34  C11 UNL     1      38.312  -2.453  31.852  1.00  0.00     0.002 C 
HETATM   35  C12 UNL     1      38.031  -1.435  30.764  1.00  0.00     0.003 C 
HETATM   36  C13 UNL     1      39.001  -0.304  31.034  1.00  0.00     0.034 C 
HETATM   37  C14 UNL     1      40.429  -0.742  30.924  1.00  0.00     0.140 C 
BRANCH  37  38
HETATM   38  O2  UNL     1      40.996  -0.019  29.884  1.00  0.00    -0.394 OA
ATOM     39  H2  UNL     1      40.623   0.848  29.776  1.00  0.00     0.210 HD
ENDBRANCH  37  38
ENDBRANCH   7  32
TORSDOF 9
ENDMDL
MODEL 5
REMARK VINA RESULT: -8.182785636      1.974      2.385
REMARK  9 active torsions:
REMARK  status: ('A' for Active; 'I' for Inactive)
REMARK       I    between atoms: C1_2  and  N1_3 
REMARK    1  A    between atoms: C1_2  and  C15_23 
REMARK       I    between atoms: N1_3  and  C2_5 
REMARK       I    between atoms: C2_5  and  N2_6 
REMARK       I    between atoms: C2_5  and  N3_13 
REMARK    2  A    between atoms: N2_6  and  C3_7 
REMARK    3  A    between atoms: N3_13  and  C9_15 
REMARK    4  A    between atoms: C14_20  and  O2_21 
REMARK    5  A    between atoms: C18_26  and  N4_27 
REMARK    6  A    between atoms: N4_27  and  S1_29 
REMARK    7  A    between atoms: S1_29  and  N5_32 
REMARK    8  A    between atoms: N5_32  and  C19_34 
REMARK    9  A    between atoms: C19_34  and  C20_35 
ROOT
HETATM    1  O1  UNL     1      44.139   1.647  34.244  1.00  0.00    -0.266 OA
HETATM    2  C1  UNL     1      44.503   0.486  34.028  1.00  0.00     0.275 C 
HETATM    3  N1  UNL     1      45.566  -0.144  34.707  1.00  0.00    -0.282 N 
ATOM      4  H1  UNL     1      45.791  -1.107  34.454  1.00  0.00     0.173 HD
HETATM    5  C2  UNL     1      46.351   0.484  35.731  1.00  0.00     0.253 C 
HETATM    6  N2  UNL     1      47.260  -0.137  36.237  1.00  0.00    -0.410 NA
HETATM    7  N3  UNL     1      46.038   1.820  36.117  1.00  0.00    -0.344 N 
ATOM      8  H3  UNL     1      46.420   2.579  35.552  1.00  0.00     0.164 HD
ENDROOT
BRANCH   2   9
HETATM    9  C15 UNL     1      43.754  -0.255  32.988  1.00  0.00     0.102 A 
HETATM   10  C16 UNL     1      42.455  -0.697  33.102  1.00  0.00     0.039 A 
HETATM   11  C17 UNL     1      42.089  -1.361  31.931  1.00  0.00     0.051 A 
HETATM   12  C18 UNL     1      43.192  -1.307  31.114  1.00  0.00     0.116 A 
HETATM   13  N6  UNL     1      44.171  -0.634  31.788  1.00  0.00    -0.338 N 
ATOM     14  H6  UNL     1      45.102  -0.446  31.416  1.00  0.00     0.167 HD
BRANCH  12  15
HETATM   15  N4  UNL     1      43.276  -1.862  29.820  1.00  0.00    -0.253 N 
ATOM     16  H4  UNL     1      43.341  -1.230  29.022  1.00  0.00     0.182 HD
BRANCH  15  17
HETATM   17  S1  UNL     1      43.275  -3.544  29.532  1.00  0.00     0.320 S 
HETATM   18  O3  UNL     1      44.375  -3.852  28.529  1.00  0.00    -0.182 OA
HETATM   19  O4  UNL     1      43.523  -4.386  30.724  1.00  0.00    -0.182 OA
BRANCH  17  20
HETATM   20  N5  UNL     1      41.806  -4.061  28.780  1.00  0.00    -0.302 N 
ATOM     21  H5  UNL     1      41.741  -4.440  27.835  1.00  0.00     0.173 HD
BRANCH  20  22
HETATM   22  C19 UNL     1      40.676  -3.884  29.678  1.00  0.00     0.138 C 
BRANCH  22  23
HETATM   23  C20 UNL     1      39.791  -2.753  29.281  1.00  0.00     0.004 A 
HETATM   24  C21 UNL     1      38.800  -2.179  30.220  1.00  0.00     0.007 A 
HETATM   25  C22 UNL     1      38.287  -3.096  29.175  1.00  0.00     0.007 A 
ENDBRANCH  22  23
ENDBRANCH  20  22
ENDBRANCH  17  20
ENDBRANCH  15  17
ENDBRANCH  12  15
ENDBRANCH   2   9
BRANCH   6  26
HETATM   26  C3  UNL     1      48.255  -0.782  36.809  1.00  0.00     0.167 C 
HETATM   27  C4  UNL     1      48.490  -0.597  38.305  1.00  0.00     0.039 C 
HETATM   28  C5  UNL     1      49.559  -1.575  38.717  1.00  0.00     0.003 C 
HETATM   29  C6  UNL     1      50.842  -1.405  37.979  1.00  0.00     0.000 C 
HETATM   30  C7  UNL     1      50.575  -1.538  36.478  1.00  0.00     0.003 C 
HETATM   31  C8  UNL     1      49.601  -0.446  36.114  1.00  0.00     0.039 C 
ENDBRANCH   6  26
BRANCH   7  32
HETATM   32  C9  UNL     1      45.215   2.176  37.256  1.00  0.00     0.114 C 
HETATM   33  C10 UNL     1      46.027   2.001  38.499  1.00  0.00     0.028 C 
HETATM   34  C11 UNL     1      45.607   2.762  39.696  1.00  0.00     0.002 C 
HETATM   35  C12 UNL     1      44.143   3.123  39.539  1.00  0.00     0.003 C 
HETATM   36  C13 UNL     1      44.112   4.124  38.402  1.00  0.00     0.034 C 
HETATM   37  C14 UNL     1      44.601   3.536  37.115  1.00  0.00     0.140 C 
BRANCH  37  38
HETATM   38  O2  UNL     1      43.540   3.576  36.222  1.00  0.00    -0.394 OA
ATOM     39  H2  UNL     1      43.213   4.453  36.058  1.00  0.00     0.210 HD
ENDBRANCH  37  38
ENDBRANCH   7  32
TORSDOF 9
ENDMDL
