MODEL 1
REMARK VINA RESULT: -6.823203106      0.000      0.000
REMARK  9 active torsions:
REMARK  status: ('A' for Active; 'I' for Inactive)
REMARK    1  A    between atoms: C1_2  and  C2_3 
REMARK       I    between atoms: C1_2  and  N5_33 
REMARK    2  A    between atoms: C2_3  and  C3_4 
REMARK    3  A    between atoms: C3_4  and  N1_5 
REMARK       I    between atoms: N1_5  and  C4_7 
REMARK       I    between atoms: C4_7  and  N2_9 
REMARK    4  A    between atoms: N2_9  and  C5_11 
REMARK    5  A    between atoms: C11_19  and  C12_20 
REMARK    6  A    between atoms: C11_19  and  C13_22 
REMARK       I    between atoms: C13_22  and  N4_24 
REMARK    7  A    between atoms: N4_24  and  C14_26 
REMARK    8  A    between atoms: N5_33  and  C21_35 
REMARK    9  A    between atoms: C21_35  and  C22_36 
ROOT
HETATM    1  C5  UNL     1      41.736   3.953  37.682  1.00  0.00     0.109 A 
HETATM    2  C6  UNL     1      42.037   2.631  37.445  1.00  0.00     0.056 A 
HETATM    3  C7  UNL     1      43.350   2.179  37.248  1.00  0.00    -0.046 A 
HETATM    4  C8  UNL     1      44.378   3.093  37.294  1.00  0.00    -0.035 A 
HETATM    5  C9  UNL     1      44.042   4.411  37.534  1.00  0.00     0.097 A 
HETATM    6  N3  UNL     1      42.766   4.817  37.721  1.00  0.00    -0.352 N 
ATOM      7  H3  UNL     1      42.580   5.805  37.896  1.00  0.00     0.166 HD
HETATM    8  C10 UNL     1      45.698   2.429  37.060  1.00  0.00     0.060 C 
HETATM    9  C11 UNL     1      45.260   1.142  36.382  1.00  0.00     0.058 C 
HETATM   10  C20 UNL     1      43.932   0.847  36.986  1.00  0.00     0.059 C 
ENDROOT
BRANCH   1  11
HETATM   11  N2  UNL     1      40.502   4.300  37.855  1.00  0.00    -0.295 N 
HETATM   12  C4  UNL     1      39.418   3.452  37.476  1.00  0.00     0.321 C 
HETATM   13  N1  UNL     1      38.967   3.443  36.137  1.00  0.00    -0.342 N 
HETATM   14  O2  UNL     1      38.862   2.709  38.336  1.00  0.00    -0.247 OA
ATOM     15  H1  UNL     1      39.439   4.051  35.467  1.00  0.00     0.164 HD
ATOM     16  H2  UNL     1      40.298   5.207  38.275  1.00  0.00     0.172 HD
BRANCH  13  17
HETATM   17  C3  UNL     1      37.881   2.627  35.663  1.00  0.00     0.133 C 
BRANCH  17  18
HETATM   18  C2  UNL     1      36.705   3.399  35.159  1.00  0.00     0.122 C 
BRANCH  18  19
HETATM   19  C1  UNL     1      36.325   4.504  36.078  1.00  0.00     0.219 C 
HETATM   20  O1  UNL     1      35.995   4.209  37.249  1.00  0.00    -0.274 OA
HETATM   21  N5  UNL     1      36.325   5.844  35.670  1.00  0.00    -0.360 N 
ATOM     22  H5  UNL     1      36.594   6.075  34.714  1.00  0.00     0.162 HD
BRANCH  21  23
HETATM   23  C21 UNL     1      35.953   6.902  36.574  1.00  0.00     0.133 C 
BRANCH  23  24
HETATM   24  C22 UNL     1      36.982   8.016  36.578  1.00  0.00     0.105 C 
HETATM   25  S2  UNL     1      38.591   7.417  37.170  1.00  0.00    -0.096 SA
ENDBRANCH  23  24
ENDBRANCH  21  23
ENDBRANCH  18  19
ENDBRANCH  17  18
ENDBRANCH  13  17
ENDBRANCH   1  11
BRANCH   9  26
HETATM   26  C12 UNL     1      45.105   1.319  34.897  1.00  0.00     0.106 C 
HETATM   27  S1  UNL     1      43.937   0.032  34.329  1.00  0.00    -0.096 SA
ENDBRANCH   9  26
BRANCH   9  28
HETATM   28  C13 UNL     1      46.285   0.135  36.644  1.00  0.00     0.228 C 
HETATM   29  O3  UNL     1      45.955  -1.032  36.946  1.00  0.00    -0.273 OA
HETATM   30  N4  UNL     1      47.651   0.470  36.558  1.00  0.00    -0.356 N 
ATOM     31  H4  UNL     1      47.894   1.429  36.309  1.00  0.00     0.162 HD
BRANCH  30  32
HETATM   32  C14 UNL     1      48.729  -0.462  36.800  1.00  0.00     0.084 C 
HETATM   33  C15 UNL     1      49.886  -0.290  35.852  1.00  0.00     0.025 C 
HETATM   34  C16 UNL     1      50.761  -1.522  35.986  1.00  0.00     0.002 C 
HETATM   35  C17 UNL     1      50.434  -2.333  37.208  1.00  0.00     0.000 C 
HETATM   36  C18 UNL     1      50.333  -1.406  38.397  1.00  0.00     0.002 C 
HETATM   37  C19 UNL     1      49.183  -0.445  38.226  1.00  0.00     0.025 C 
ENDBRANCH  30  32
ENDBRANCH   9  28
TORSDOF 9
ENDMDL
MODEL 2
REMARK VINA RESULT: -6.817820953      6.150      9.901
REMARK  9 active torsions:
REMARK  status: ('A' for Active; 'I' for Inactive)
REMARK    1  A    between atoms: C1_2  and  C2_3 
REMARK       I    between atoms: C1_2  and  N5_33 
REMARK    2  A    between atoms: C2_3  and  C3_4 
REMARK    3  A    between atoms: C3_4  and  N1_5 
REMARK       I    between atoms: N1_5  and  C4_7 
REMARK       I    between atoms: C4_7  and  N2_9 
REMARK    4  A    between atoms: N2_9  and  C5_11 
REMARK    5  A    between atoms: C11_19  and  C12_20 
REMARK    6  A    between atoms: C11_19  and  C13_22 
REMARK       I    between atoms: C13_22  and  N4_24 
REMARK    7  A    between atoms: N4_24  and  C14_26 
REMARK    8  A    between atoms: N5_33  and  C21_35 
REMARK    9  A    between atoms: C21_35  and  C22_36 
ROOT
HETATM    1  C5  UNL     1      41.543  -0.065  34.789  1.00  0.00     0.109 A 
HETATM    2  C6  UNL     1      42.386  -0.761  33.953  1.00  0.00     0.056 A 
HETATM    3  C7  UNL     1      42.006  -1.166  32.664  1.00  0.00    -0.046 A 
HETATM    4  C8  UNL     1      40.742  -0.855  32.219  1.00  0.00    -0.035 A 
HETATM    5  C9  UNL     1      39.921  -0.156  33.083  1.00  0.00     0.097 A 
HETATM    6  N3  UNL     1      40.316   0.221  34.320  1.00  0.00    -0.352 N 
ATOM      7  H3  UNL     1      39.665   0.737  34.913  1.00  0.00     0.166 HD
HETATM    8  C10 UNL     1      40.519  -1.369  30.832  1.00  0.00     0.060 C 
HETATM    9  C11 UNL     1      41.602  -2.430  30.738  1.00  0.00     0.058 C 
HETATM   10  C20 UNL     1      42.703  -1.903  31.590  1.00  0.00     0.059 C 
ENDROOT
BRANCH   1  11
HETATM   11  N2  UNL     1      41.959   0.278  35.965  1.00  0.00    -0.295 N 
HETATM   12  C4  UNL     1      43.014   1.221  36.148  1.00  0.00     0.321 C 
HETATM   13  N1  UNL     1      44.360   0.796  36.069  1.00  0.00    -0.342 N 
HETATM   14  O2  UNL     1      42.747   2.436  36.379  1.00  0.00    -0.247 OA
ATOM     15  H1  UNL     1      44.541  -0.190  35.877  1.00  0.00     0.164 HD
ATOM     16  H2  UNL     1      41.520  -0.139  36.785  1.00  0.00     0.172 HD
BRANCH  13  17
HETATM   17  C3  UNL     1      45.488   1.671  36.243  1.00  0.00     0.133 C 
BRANCH  17  18
HETATM   18  C2  UNL     1      46.532   1.151  37.178  1.00  0.00     0.122 C 
BRANCH  18  19
HETATM   19  C1  UNL     1      47.198  -0.069  36.652  1.00  0.00     0.219 C 
HETATM   20  O1  UNL     1      46.590  -1.159  36.741  1.00  0.00    -0.274 OA
HETATM   21  N5  UNL     1      48.472  -0.028  36.068  1.00  0.00    -0.360 N 
ATOM     22  H5  UNL     1      48.961   0.864  36.000  1.00  0.00     0.162 HD
BRANCH  21  23
HETATM   23  C21 UNL     1      49.103  -1.220  35.563  1.00  0.00     0.133 C 
BRANCH  23  24
HETATM   24  C22 UNL     1      50.337  -1.578  36.370  1.00  0.00     0.105 C 
HETATM   25  S2  UNL     1      49.916  -2.666  37.761  1.00  0.00    -0.096 SA
ENDBRANCH  23  24
ENDBRANCH  21  23
ENDBRANCH  18  19
ENDBRANCH  17  18
ENDBRANCH  13  17
ENDBRANCH   1  11
BRANCH   9  26
HETATM   26  C12 UNL     1      41.139  -3.752  31.283  1.00  0.00     0.106 C 
HETATM   27  S1  UNL     1      42.639  -4.730  31.650  1.00  0.00    -0.096 SA
ENDBRANCH   9  26
BRANCH   9  28
HETATM   28  C13 UNL     1      41.947  -2.585  29.326  1.00  0.00     0.228 C 
HETATM   29  O3  UNL     1      41.084  -2.975  28.510  1.00  0.00    -0.273 OA
HETATM   30  N4  UNL     1      43.250  -2.297  28.876  1.00  0.00    -0.356 N 
ATOM     31  H4  UNL     1      43.935  -1.981  29.562  1.00  0.00     0.162 HD
BRANCH  30  32
HETATM   32  C14 UNL     1      43.676  -2.423  27.500  1.00  0.00     0.084 C 
HETATM   33  C15 UNL     1      44.730  -1.419  27.112  1.00  0.00     0.025 C 
HETATM   34  C16 UNL     1      44.823  -1.431  25.598  1.00  0.00     0.002 C 
HETATM   35  C17 UNL     1      44.141  -2.622  24.987  1.00  0.00     0.000 C 
HETATM   36  C18 UNL     1      44.569  -3.866  25.730  1.00  0.00     0.002 C 
HETATM   37  C19 UNL     1      44.099  -3.818  27.163  1.00  0.00     0.025 C 
ENDBRANCH  30  32
ENDBRANCH   9  28
TORSDOF 9
ENDMDL
MODEL 3
REMARK VINA RESULT: -6.728027380      2.153      3.029
REMARK  9 active torsions:
REMARK  status: ('A' for Active; 'I' for Inactive)
REMARK    1  A    between atoms: C1_2  and  C2_3 
REMARK       I    between atoms: C1_2  and  N5_33 
REMARK    2  A    between atoms: C2_3  and  C3_4 
REMARK    3  A    between atoms: C3_4  and  N1_5 
REMARK       I    between atoms: N1_5  and  C4_7 
REMARK       I    between atoms: C4_7  and  N2_9 
REMARK    4  A    between atoms: N2_9  and  C5_11 
REMARK    5  A    between atoms: C11_19  and  C12_20 
REMARK    6  A    between atoms: C11_19  and  C13_22 
REMARK       I    between atoms: C13_22  and  N4_24 
REMARK    7  A    between atoms: N4_24  and  C14_26 
REMARK    8  A    between atoms: N5_33  and  C21_35 
REMARK    9  A    between atoms: C21_35  and  C22_36 
ROOT
HETATM    1  C5  UNL     1      42.676   4.583  39.053  1.00  0.00     0.109 A 
HETATM    2  C6  UNL     1      43.292   3.502  39.640  1.00  0.00     0.056 A 
HETATM    3  C7  UNL     1      44.304   2.770  39.000  1.00  0.00    -0.046 A 
HETATM    4  C8  UNL     1      44.696   3.148  37.737  1.00  0.00    -0.035 A 
HETATM    5  C9  UNL     1      44.057   4.237  37.176  1.00  0.00     0.097 A 
HETATM    6  N3  UNL     1      43.086   4.924  37.818  1.00  0.00    -0.352 N 
ATOM      7  H3  UNL     1      42.651   5.722  37.353  1.00  0.00     0.166 HD
HETATM    8  C10 UNL     1      45.776   2.253  37.219  1.00  0.00     0.060 C 
HETATM    9  C11 UNL     1      45.599   1.037  38.111  1.00  0.00     0.058 C 
HETATM   10  C20 UNL     1      45.112   1.599  39.400  1.00  0.00     0.059 C 
ENDROOT
BRANCH   1  11
HETATM   11  N2  UNL     1      41.751   5.213  39.701  1.00  0.00    -0.295 N 
HETATM   12  C4  UNL     1      40.364   5.007  39.429  1.00  0.00     0.321 C 
HETATM   13  N1  UNL     1      39.745   5.702  38.366  1.00  0.00    -0.342 N 
HETATM   14  O2  UNL     1      39.691   4.204  40.138  1.00  0.00    -0.247 OA
ATOM     15  H1  UNL     1      40.317   6.339  37.811  1.00  0.00     0.164 HD
ATOM     16  H2  UNL     1      42.020   5.876  40.427  1.00  0.00     0.172 HD
BRANCH  13  17
HETATM   17  C3  UNL     1      38.355   5.563  38.020  1.00  0.00     0.133 C 
BRANCH  17  18
HETATM   18  C2  UNL     1      38.063   5.737  36.565  1.00  0.00     0.122 C 
BRANCH  18  19
HETATM   19  C1  UNL     1      37.959   4.435  35.855  1.00  0.00     0.219 C 
HETATM   20  O1  UNL     1      36.969   4.245  35.113  1.00  0.00    -0.274 OA
HETATM   21  N5  UNL     1      38.927   3.432  35.995  1.00  0.00    -0.360 N 
ATOM     22  H5  UNL     1      39.731   3.595  36.602  1.00  0.00     0.162 HD
BRANCH  21  23
HETATM   23  C21 UNL     1      38.810   2.176  35.300  1.00  0.00     0.133 C 
BRANCH  23  24
HETATM   24  C22 UNL     1      40.064   1.337  35.457  1.00  0.00     0.105 C 
HETATM   25  S2  UNL     1      41.024   1.859  36.907  1.00  0.00    -0.096 SA
ENDBRANCH  23  24
ENDBRANCH  21  23
ENDBRANCH  18  19
ENDBRANCH  17  18
ENDBRANCH  13  17
ENDBRANCH   1  11
BRANCH   9  26
HETATM   26  C12 UNL     1      44.573   0.086  37.562  1.00  0.00     0.106 C 
HETATM   27  S1  UNL     1      44.091  -1.024  38.932  1.00  0.00    -0.096 SA
ENDBRANCH   9  26
BRANCH   9  28
HETATM   28  C13 UNL     1      46.891   0.358  38.193  1.00  0.00     0.228 C 
HETATM   29  O3  UNL     1      47.410   0.132  39.308  1.00  0.00    -0.273 OA
HETATM   30  N4  UNL     1      47.558  -0.045  37.020  1.00  0.00    -0.356 N 
ATOM     31  H4  UNL     1      47.113   0.151  36.124  1.00  0.00     0.162 HD
BRANCH  30  32
HETATM   32  C14 UNL     1      48.837  -0.721  37.009  1.00  0.00     0.084 C 
HETATM   33  C15 UNL     1      48.720  -2.213  37.179  1.00  0.00     0.025 C 
HETATM   34  C16 UNL     1      50.108  -2.737  37.496  1.00  0.00     0.002 C 
HETATM   35  C17 UNL     1      51.185  -1.729  37.209  1.00  0.00     0.000 C 
HETATM   36  C18 UNL     1      50.950  -1.139  35.838  1.00  0.00     0.002 C 
HETATM   37  C19 UNL     1      49.654  -0.368  35.806  1.00  0.00     0.025 C 
ENDBRANCH  30  32
ENDBRANCH   9  28
TORSDOF 9
ENDMDL
MODEL 4
REMARK VINA RESULT: -6.715909642      5.670      8.208
REMARK  9 active torsions:
REMARK  status: ('A' for Active; 'I' for Inactive)
REMARK    1  A    between atoms: C1_2  and  C2_3 
REMARK       I    between atoms: C1_2  and  N5_33 
REMARK    2  A    between atoms: C2_3  and  C3_4 
REMARK    3  A    between atoms: C3_4  and  N1_5 
REMARK       I    between atoms: N1_5  and  C4_7 
REMARK       I    between atoms: C4_7  and  N2_9 
REMARK    4  A    between atoms: N2_9  and  C5_11 
REMARK    5  A    between atoms: C11_19  and  C12_20 
REMARK    6  A    between atoms: C11_19  and  C13_22 
REMARK       I    between atoms: C13_22  and  N4_24 
REMARK    7  A    between atoms: N4_24  and  C14_26 
REMARK    8  A    between atoms: N5_33  and  C21_35 
REMARK    9  A    between atoms: C21_35  and  C22_36 
ROOT
HETATM    1  C5  UNL     1      41.996  -0.700  32.490  1.00  0.00     0.109 A 
HETATM    2  C6  UNL     1      43.333  -0.375  32.522  1.00  0.00     0.056 A 
HETATM    3  C7  UNL     1      44.054  -0.265  33.720  1.00  0.00    -0.046 A 
HETATM    4  C8  UNL     1      43.400  -0.491  34.909  1.00  0.00    -0.035 A 
HETATM    5  C9  UNL     1      42.059  -0.815  34.842  1.00  0.00     0.097 A 
HETATM    6  N3  UNL     1      41.390  -0.915  33.671  1.00  0.00    -0.352 N 
ATOM      7  H3  UNL     1      40.400  -1.159  33.684  1.00  0.00     0.166 HD
HETATM    8  C10 UNL     1      44.326  -0.325  36.072  1.00  0.00     0.060 C 
HETATM    9  C11 UNL     1      45.434   0.504  35.446  1.00  0.00     0.058 C 
HETATM   10  C20 UNL     1      45.463   0.059  34.026  1.00  0.00     0.059 C 
ENDROOT
BRANCH   1  11
HETATM   11  N2  UNL     1      41.393  -0.785  31.349  1.00  0.00    -0.295 N 
HETATM   12  C4  UNL     1      40.766  -1.991  30.913  1.00  0.00     0.321 C 
HETATM   13  N1  UNL     1      41.538  -3.003  30.298  1.00  0.00    -0.342 N 
HETATM   14  O2  UNL     1      39.523  -2.156  31.076  1.00  0.00    -0.247 OA
ATOM     15  H1  UNL     1      42.539  -2.840  30.184  1.00  0.00     0.164 HD
ATOM     16  H2  UNL     1      41.365   0.035  30.743  1.00  0.00     0.172 HD
BRANCH  13  17
HETATM   17  C3  UNL     1      40.996  -4.247  29.823  1.00  0.00     0.133 C 
BRANCH  17  18
HETATM   18  C2  UNL     1      42.024  -5.243  29.393  1.00  0.00     0.122 C 
BRANCH  18  19
HETATM   19  C1  UNL     1      43.162  -4.603  28.683  1.00  0.00     0.219 C 
HETATM   20  O1  UNL     1      44.182  -4.311  29.347  1.00  0.00    -0.274 OA
HETATM   21  N5  UNL     1      43.119  -4.322  27.311  1.00  0.00    -0.360 N 
ATOM     22  H5  UNL     1      42.284  -4.563  26.778  1.00  0.00     0.162 HD
BRANCH  21  23
HETATM   23  C21 UNL     1      44.232  -3.701  26.640  1.00  0.00     0.133 C 
BRANCH  23  24
HETATM   24  C22 UNL     1      43.942  -2.247  26.315  1.00  0.00     0.105 C 
HETATM   25  S2  UNL     1      44.556  -1.150  27.625  1.00  0.00    -0.096 SA
ENDBRANCH  23  24
ENDBRANCH  21  23
ENDBRANCH  18  19
ENDBRANCH  17  18
ENDBRANCH  13  17
ENDBRANCH   1  11
BRANCH   9  26
HETATM   26  C12 UNL     1      45.130   1.975  35.501  1.00  0.00     0.106 C 
HETATM   27  S1  UNL     1      43.930   2.217  36.860  1.00  0.00    -0.096 SA
ENDBRANCH   9  26
BRANCH   9  28
HETATM   28  C13 UNL     1      46.662   0.237  36.193  1.00  0.00     0.228 C 
HETATM   29  O3  UNL     1      46.867   0.807  37.286  1.00  0.00    -0.273 OA
HETATM   30  N4  UNL     1      47.620  -0.663  35.687  1.00  0.00    -0.356 N 
ATOM     31  H4  UNL     1      47.429  -1.115  34.793  1.00  0.00     0.162 HD
BRANCH  30  32
HETATM   32  C14 UNL     1      48.860  -0.985  36.358  1.00  0.00     0.084 C 
HETATM   33  C15 UNL     1      48.894  -2.391  36.898  1.00  0.00     0.025 C 
HETATM   34  C16 UNL     1      50.068  -2.474  37.855  1.00  0.00     0.002 C 
HETATM   35  C17 UNL     1      51.009  -1.311  37.717  1.00  0.00     0.000 C 
HETATM   36  C18 UNL     1      51.307  -1.094  36.251  1.00  0.00     0.002 C 
HETATM   37  C19 UNL     1      50.057  -0.695  35.508  1.00  0.00     0.025 C 
ENDBRANCH  30  32
ENDBRANCH   9  28
TORSDOF 9
ENDMDL
MODEL 5
REMARK VINA RESULT: -6.711309441      6.055      9.240
REMARK  9 active torsions:
REMARK  status: ('A' for Active; 'I' for Inactive)
REMARK    1  A    between atoms: C1_2  and  C2_3 
REMARK       I    between atoms: C1_2  and  N5_33 
REMARK    2  A    between atoms: C2_3  and  C3_4 
REMARK    3  A    between atoms: C3_4  and  N1_5 
REMARK       I    between atoms: N1_5  and  C4_7 
REMARK       I    between atoms: C4_7  and  N2_9 
REMARK    4  A    between atoms: N2_9  and  C5_11 
REMARK    5  A    between atoms: C11_19  and  C12_20 
REMARK    6  A    between atoms: C11_19  and  C13_22 
REMARK       I    between atoms: C13_22  and  N4_24 
REMARK    7  A    between atoms: N4_24  and  C14_26 
REMARK    8  A    between atoms: N5_33  and  C21_35 
REMARK    9  A    between atoms: C21_35  and  C22_36 
ROOT
HETATM    1  C5  UNL     1      40.474   0.095  34.723  1.00  0.00     0.109 A 
HETATM    2  C6  UNL     1      41.309  -0.758  34.037  1.00  0.00     0.056 A 
HETATM    3  C7  UNL     1      41.116  -1.075  32.684  1.00  0.00    -0.046 A 
HETATM    4  C8  UNL     1      40.052  -0.513  32.017  1.00  0.00    -0.035 A 
HETATM    5  C9  UNL     1      39.234   0.337  32.735  1.00  0.00     0.097 A 
HETATM    6  N3  UNL     1      39.445   0.626  34.039  1.00  0.00    -0.352 N 
ATOM      7  H3  UNL     1      38.807   1.263  34.517  1.00  0.00     0.166 HD
HETATM    8  C10 UNL     1      40.007  -0.970  30.594  1.00  0.00     0.060 C 
HETATM    9  C11 UNL     1      40.855  -2.229  30.666  1.00  0.00     0.058 C 
HETATM   10  C20 UNL     1      41.849  -1.938  31.734  1.00  0.00     0.059 C 
ENDROOT
BRANCH   1  11
HETATM   11  N2  UNL     1      40.711   0.344  35.970  1.00  0.00    -0.295 N 
HETATM   12  C4  UNL     1      41.344   1.552  36.392  1.00  0.00     0.321 C 
HETATM   13  N1  UNL     1      42.753   1.656  36.361  1.00  0.00    -0.342 N 
HETATM   14  O2  UNL     1      40.646   2.528  36.792  1.00  0.00    -0.247 OA
ATOM     15  H1  UNL     1      43.287   0.852  36.030  1.00  0.00     0.164 HD
ATOM     16  H2  UNL     1      40.438  -0.343  36.672  1.00  0.00     0.172 HD
BRANCH  13  17
HETATM   17  C3  UNL     1      43.479   2.829  36.770  1.00  0.00     0.133 C 
BRANCH  17  18
HETATM   18  C2  UNL     1      44.908   2.853  36.333  1.00  0.00     0.122 C 
BRANCH  18  19
HETATM   19  C1  UNL     1      45.683   1.714  36.891  1.00  0.00     0.219 C 
HETATM   20  O1  UNL     1      45.325   1.240  37.993  1.00  0.00    -0.274 OA
HETATM   21  N5  UNL     1      46.788   1.168  36.224  1.00  0.00    -0.360 N 
ATOM     22  H5  UNL     1      47.074   1.561  35.327  1.00  0.00     0.162 HD
BRANCH  21  23
HETATM   23  C21 UNL     1      47.528   0.065  36.780  1.00  0.00     0.133 C 
BRANCH  23  24
HETATM   24  C22 UNL     1      48.273  -0.702  35.703  1.00  0.00     0.105 C 
HETATM   25  S2  UNL     1      50.061  -0.699  36.017  1.00  0.00    -0.096 SA
ENDBRANCH  23  24
ENDBRANCH  21  23
ENDBRANCH  18  19
ENDBRANCH  17  18
ENDBRANCH  13  17
ENDBRANCH   1  11
BRANCH   9  26
HETATM   26  C12 UNL     1      40.039  -3.429  31.057  1.00  0.00     0.106 C 
HETATM   27  S1  UNL     1      41.219  -4.736  31.548  1.00  0.00    -0.096 SA
ENDBRANCH   9  26
BRANCH   9  28
HETATM   28  C13 UNL     1      41.431  -2.449  29.341  1.00  0.00     0.228 C 
HETATM   29  O3  UNL     1      40.738  -2.954  28.432  1.00  0.00    -0.273 OA
HETATM   30  N4  UNL     1      42.769  -2.095  29.080  1.00  0.00    -0.356 N 
ATOM     31  H4  UNL     1      43.314  -1.685  29.839  1.00  0.00     0.162 HD
BRANCH  30  32
HETATM   32  C14 UNL     1      43.419  -2.278  27.801  1.00  0.00     0.084 C 
HETATM   33  C15 UNL     1      44.597  -1.362  27.599  1.00  0.00     0.025 C 
HETATM   34  C16 UNL     1      44.953  -1.410  26.125  1.00  0.00     0.002 C 
HETATM   35  C17 UNL     1      44.300  -2.559  25.410  1.00  0.00     0.000 C 
HETATM   36  C18 UNL     1      44.497  -3.817  26.225  1.00  0.00     0.002 C 
HETATM   37  C19 UNL     1      43.788  -3.707  27.552  1.00  0.00     0.025 C 
ENDBRANCH  30  32
ENDBRANCH   9  28
TORSDOF 9
ENDMDL
