MODEL 1
REMARK VINA RESULT: -8.204421556      0.000      0.000
REMARK  8 active torsions:
REMARK  status: ('A' for Active; 'I' for Inactive)
REMARK    1  A    between atoms: C3_5  and  C4_6 
REMARK       I    between atoms: C4_6  and  N2_8 
REMARK    2  A    between atoms: N2_8  and  C5_10 
REMARK    3  A    between atoms: C5_10  and  C6_11 
REMARK    4  A    between atoms: C5_10  and  C12_23 
REMARK       I    between atoms: C6_11  and  N3_13 
REMARK    5  A    between atoms: N3_13  and  C7_15 
REMARK    6  A    between atoms: C12_23  and  N5_24 
REMARK    7  A    between atoms: C12_23  and  C20_36 
REMARK       I    between atoms: N5_24  and  C13_26 
REMARK       I    between atoms: C13_26  and  N6_28 
REMARK    8  A    between atoms: N6_28  and  C14_30 
ROOT
HETATM    1  C5  UNL     1      41.345  -2.715  30.333  1.00  0.00     0.200 C 
ENDROOT
BRANCH   1   2
HETATM    2  N2  UNL     1      41.911  -2.571  29.025  1.00  0.00    -0.340 N 
HETATM    3  C4  UNL     1      43.277  -2.818  28.738  1.00  0.00     0.271 C 
HETATM    4  O1  UNL     1      44.024  -3.176  29.678  1.00  0.00    -0.266 OA
ATOM      5  H2  UNL     1      41.300  -2.278  28.263  1.00  0.00     0.163 HD
BRANCH   3   6
HETATM    6  C3  UNL     1      43.808  -2.660  27.380  1.00  0.00     0.124 A 
HETATM    7  N1  UNL     1      43.622  -3.500  26.349  1.00  0.00    -0.340 N 
HETATM    8  C2  UNL     1      44.270  -3.015  25.255  1.00  0.00     0.077 A 
ATOM      9  H1  UNL     1      43.080  -4.364  26.380  1.00  0.00     0.167 HD
HETATM   10  C1  UNL     1      44.283  -3.684  23.937  1.00  0.00     0.089 C 
HETATM   11  N7  UNL     1      44.873  -1.862  25.592  1.00  0.00    -0.348 N 
HETATM   12  C23 UNL     1      44.592  -1.634  26.902  1.00  0.00     0.039 A 
ATOM     13  H7  UNL     1      45.435  -1.269  24.980  1.00  0.00     0.167 HD
HETATM   14  C24 UNL     1      45.065  -0.461  27.683  1.00  0.00     0.071 C 
ENDBRANCH   3   6
ENDBRANCH   1   2
BRANCH   1  15
HETATM   15  C6  UNL     1      40.815  -1.399  30.835  1.00  0.00     0.242 C 
HETATM   16  O2  UNL     1      41.231  -0.345  30.286  1.00  0.00    -0.271 OA
HETATM   17  N3  UNL     1      39.884  -1.396  31.887  1.00  0.00    -0.355 N 
ATOM     18  H3  UNL     1      39.596  -2.293  32.278  1.00  0.00     0.162 HD
BRANCH  17  19
HETATM   19  C7  UNL     1      39.309  -0.188  32.447  1.00  0.00     0.087 C 
HETATM   20  C8  UNL     1      39.385  -0.152  33.938  1.00  0.00     0.052 C 
HETATM   21  C9  UNL     1      39.022   1.263  34.384  1.00  0.00     0.234 C 
HETATM   22  N4  UNL     1      37.686   1.553  33.938  1.00  0.00    -0.075 N 
HETATM   23  C10 UNL     1      37.078   0.506  33.178  1.00  0.00     0.234 C 
ATOM     24  H42 UNL     1      37.095   1.808  34.729  1.00  0.00     0.277 HD
ATOM     25  H41 UNL     1      37.668   2.429  33.416  1.00  0.00     0.277 HD
HETATM   26  C11 UNL     1      37.888   0.018  32.011  1.00  0.00     0.052 C 
ENDBRANCH  17  19
ENDBRANCH   1  15
BRANCH   1  27
HETATM   27  C12 UNL     1      40.288  -3.782  30.403  1.00  0.00     0.121 C 
BRANCH  27  28
HETATM   28  N5  UNL     1      39.291  -3.652  29.388  1.00  0.00    -0.336 N 
HETATM   29  C13 UNL     1      37.911  -3.487  29.591  1.00  0.00     0.316 C 
HETATM   30  O3  UNL     1      37.506  -3.453  30.797  1.00  0.00    -0.247 OA
HETATM   31  N6  UNL     1      37.005  -3.364  28.505  1.00  0.00    -0.339 N 
ATOM     32  H6  UNL     1      37.366  -3.395  27.551  1.00  0.00     0.164 HD
ATOM     33  H5  UNL     1      39.613  -3.681  28.421  1.00  0.00     0.164 HD
BRANCH  31  34
HETATM   34  C14 UNL     1      35.580  -3.197  28.715  1.00  0.00     0.086 C 
HETATM   35  C15 UNL     1      35.236  -1.771  29.093  1.00  0.00     0.025 C 
HETATM   36  C16 UNL     1      35.470  -0.925  27.860  1.00  0.00     0.002 C 
HETATM   37  C17 UNL     1      34.348  -1.218  26.899  1.00  0.00     0.000 C 
HETATM   38  C18 UNL     1      33.839  -2.627  26.996  1.00  0.00     0.002 C 
HETATM   39  C19 UNL     1      34.881  -3.606  27.457  1.00  0.00     0.025 C 
ENDBRANCH  31  34
ENDBRANCH  27  28
BRANCH  27  40
HETATM   40  C20 UNL     1      40.945  -5.142  30.427  1.00  0.00     0.003 C 
HETATM   41  C21 UNL     1      41.942  -5.222  31.548  1.00  0.00     0.011 C 
HETATM   42  C22 UNL     1      39.900  -6.231  30.651  1.00  0.00     0.011 C 
ENDBRANCH  27  40
ENDBRANCH   1  27
TORSDOF 8
ENDMDL
MODEL 2
REMARK VINA RESULT: -7.975097028      3.348      6.930
REMARK  8 active torsions:
REMARK  status: ('A' for Active; 'I' for Inactive)
REMARK    1  A    between atoms: C3_5  and  C4_6 
REMARK       I    between atoms: C4_6  and  N2_8 
REMARK    2  A    between atoms: N2_8  and  C5_10 
REMARK    3  A    between atoms: C5_10  and  C6_11 
REMARK    4  A    between atoms: C5_10  and  C12_23 
REMARK       I    between atoms: C6_11  and  N3_13 
REMARK    5  A    between atoms: N3_13  and  C7_15 
REMARK    6  A    between atoms: C12_23  and  N5_24 
REMARK    7  A    between atoms: C12_23  and  C20_36 
REMARK       I    between atoms: N5_24  and  C13_26 
REMARK       I    between atoms: C13_26  and  N6_28 
REMARK    8  A    between atoms: N6_28  and  C14_30 
ROOT
HETATM    1  C5  UNL     1      42.135  -1.144  30.731  1.00  0.00     0.200 C 
ENDROOT
BRANCH   1   2
HETATM    2  N2  UNL     1      42.334  -1.901  29.531  1.00  0.00    -0.340 N 
HETATM    3  C4  UNL     1      43.542  -1.877  28.789  1.00  0.00     0.271 C 
HETATM    4  O1  UNL     1      44.478  -1.156  29.205  1.00  0.00    -0.266 OA
ATOM      5  H2  UNL     1      41.569  -2.485  29.195  1.00  0.00     0.163 HD
BRANCH   3   6
HETATM    6  C3  UNL     1      43.699  -2.674  27.568  1.00  0.00     0.124 A 
HETATM    7  N1  UNL     1      44.103  -2.225  26.369  1.00  0.00    -0.340 N 
HETATM    8  C2  UNL     1      44.121  -3.259  25.487  1.00  0.00     0.077 A 
ATOM      9  H1  UNL     1      44.356  -1.260  26.154  1.00  0.00     0.167 HD
HETATM   10  C1  UNL     1      44.516  -3.130  24.067  1.00  0.00     0.089 C 
HETATM   11  N7  UNL     1      43.725  -4.374  26.126  1.00  0.00    -0.348 N 
HETATM   12  C23 UNL     1      43.463  -4.022  27.413  1.00  0.00     0.039 A 
ATOM     13  H7  UNL     1      43.638  -5.307  25.723  1.00  0.00     0.167 HD
HETATM   14  C24 UNL     1      42.995  -4.953  28.472  1.00  0.00     0.071 C 
ENDBRANCH   3   6
ENDBRANCH   1   2
BRANCH   1  15
HETATM   15  C6  UNL     1      40.673  -0.860  30.948  1.00  0.00     0.242 C 
HETATM   16  O2  UNL     1      40.361   0.074  31.734  1.00  0.00    -0.271 OA
HETATM   17  N3  UNL     1      39.720  -1.642  30.275  1.00  0.00    -0.355 N 
ATOM     18  H3  UNL     1      40.053  -2.380  29.655  1.00  0.00     0.162 HD
BRANCH  17  19
HETATM   19  C7  UNL     1      38.287  -1.457  30.412  1.00  0.00     0.087 C 
HETATM   20  C8  UNL     1      37.755  -2.007  31.694  1.00  0.00     0.052 C 
HETATM   21  C9  UNL     1      36.321  -1.505  31.851  1.00  0.00     0.234 C 
HETATM   22  N4  UNL     1      35.547  -1.980  30.736  1.00  0.00    -0.075 N 
HETATM   23  C10 UNL     1      36.295  -2.729  29.775  1.00  0.00     0.234 C 
ATOM     24  H42 UNL     1      34.747  -2.520  31.064  1.00  0.00     0.277 HD
ATOM     25  H41 UNL     1      35.062  -1.205  30.284  1.00  0.00     0.277 HD
HETATM   26  C11 UNL     1      37.528  -2.044  29.258  1.00  0.00     0.052 C 
ENDBRANCH  17  19
ENDBRANCH   1  15
BRANCH   1  27
HETATM   27  C12 UNL     1      42.742  -1.793  31.944  1.00  0.00     0.121 C 
BRANCH  27  28
HETATM   28  N5  UNL     1      42.758  -0.939  33.089  1.00  0.00    -0.336 N 
HETATM   29  C13 UNL     1      43.755  -0.006  33.420  1.00  0.00     0.316 C 
HETATM   30  O3  UNL     1      44.742   0.089  32.623  1.00  0.00    -0.247 OA
HETATM   31  N6  UNL     1      43.669   0.797  34.587  1.00  0.00    -0.339 N 
ATOM     32  H6  UNL     1      42.861   0.695  35.202  1.00  0.00     0.164 HD
ATOM     33  H5  UNL     1      41.968  -1.015  33.730  1.00  0.00     0.164 HD
BRANCH  31  34
HETATM   34  C14 UNL     1      44.699   1.759  34.929  1.00  0.00     0.086 C 
HETATM   35  C15 UNL     1      44.109   3.019  35.527  1.00  0.00     0.025 C 
HETATM   36  C16 UNL     1      43.569   2.643  36.891  1.00  0.00     0.002 C 
HETATM   37  C17 UNL     1      44.753   2.452  37.801  1.00  0.00     0.000 C 
HETATM   38  C18 UNL     1      45.969   1.933  37.089  1.00  0.00     0.002 C 
HETATM   39  C19 UNL     1      45.642   1.098  35.884  1.00  0.00     0.025 C 
ENDBRANCH  31  34
ENDBRANCH  27  28
BRANCH  27  40
HETATM   40  C20 UNL     1      42.068  -3.121  32.195  1.00  0.00     0.003 C 
HETATM   41  C21 UNL     1      43.065  -4.240  32.100  1.00  0.00     0.011 C 
HETATM   42  C22 UNL     1      41.462  -3.150  33.595  1.00  0.00     0.011 C 
ENDBRANCH  27  40
ENDBRANCH   1  27
TORSDOF 8
ENDMDL
MODEL 3
REMARK VINA RESULT: -7.862207960      2.309      2.769
REMARK  8 active torsions:
REMARK  status: ('A' for Active; 'I' for Inactive)
REMARK    1  A    between atoms: C3_5  and  C4_6 
REMARK       I    between atoms: C4_6  and  N2_8 
REMARK    2  A    between atoms: N2_8  and  C5_10 
REMARK    3  A    between atoms: C5_10  and  C6_11 
REMARK    4  A    between atoms: C5_10  and  C12_23 
REMARK       I    between atoms: C6_11  and  N3_13 
REMARK    5  A    between atoms: N3_13  and  C7_15 
REMARK    6  A    between atoms: C12_23  and  N5_24 
REMARK    7  A    between atoms: C12_23  and  C20_36 
REMARK       I    between atoms: N5_24  and  C13_26 
REMARK       I    between atoms: C13_26  and  N6_28 
REMARK    8  A    between atoms: N6_28  and  C14_30 
ROOT
HETATM    1  C5  UNL     1      42.366  -2.941  30.682  1.00  0.00     0.200 C 
ENDROOT
BRANCH   1   2
HETATM    2  N2  UNL     1      42.634  -2.745  29.289  1.00  0.00    -0.340 N 
HETATM    3  C4  UNL     1      43.710  -3.370  28.609  1.00  0.00     0.271 C 
HETATM    4  O1  UNL     1      44.462  -4.129  29.263  1.00  0.00    -0.266 OA
ATOM      5  H2  UNL     1      42.021  -2.125  28.761  1.00  0.00     0.163 HD
BRANCH   3   6
HETATM    6  C3  UNL     1      43.942  -3.139  27.180  1.00  0.00     0.124 A 
HETATM    7  N1  UNL     1      43.692  -4.003  26.182  1.00  0.00    -0.340 N 
HETATM    8  C2  UNL     1      44.038  -3.430  24.998  1.00  0.00     0.077 A 
ATOM      9  H1  UNL     1      43.304  -4.940  26.294  1.00  0.00     0.167 HD
HETATM   10  C1  UNL     1      43.900  -4.096  23.685  1.00  0.00     0.089 C 
HETATM   11  N7  UNL     1      44.512  -2.196  25.242  1.00  0.00    -0.348 N 
HETATM   12  C23 UNL     1      44.456  -2.008  26.587  1.00  0.00     0.039 A 
ATOM     13  H7  UNL     1      44.851  -1.527  24.550  1.00  0.00     0.167 HD
HETATM   14  C24 UNL     1      44.885  -0.772  27.293  1.00  0.00     0.071 C 
ENDBRANCH   3   6
ENDBRANCH   1   2
BRANCH   1  15
HETATM   15  C6  UNL     1      42.445  -1.639  31.432  1.00  0.00     0.242 C 
HETATM   16  O2  UNL     1      41.751  -0.673  31.016  1.00  0.00    -0.271 OA
HETATM   17  N3  UNL     1      43.282  -1.549  32.556  1.00  0.00    -0.355 N 
ATOM     18  H3  UNL     1      43.812  -2.377  32.829  1.00  0.00     0.162 HD
BRANCH  17  19
HETATM   19  C7  UNL     1      43.435  -0.345  33.350  1.00  0.00     0.087 C 
HETATM   20  C8  UNL     1      44.823   0.204  33.303  1.00  0.00     0.052 C 
HETATM   21  C9  UNL     1      44.788   1.599  33.925  1.00  0.00     0.234 C 
HETATM   22  N4  UNL     1      44.336   1.480  35.285  1.00  0.00    -0.075 N 
HETATM   23  C10 UNL     1      43.999   0.149  35.681  1.00  0.00     0.234 C 
ATOM     24  H42 UNL     1      45.025   1.878  35.924  1.00  0.00     0.277 HD
ATOM     25  H41 UNL     1      43.554   2.111  35.455  1.00  0.00     0.277 HD
HETATM   26  C11 UNL     1      43.024  -0.553  34.778  1.00  0.00     0.052 C 
ENDBRANCH  17  19
ENDBRANCH   1  15
BRANCH   1  27
HETATM   27  C12 UNL     1      41.052  -3.629  30.937  1.00  0.00     0.121 C 
BRANCH  27  28
HETATM   28  N5  UNL     1      40.059  -3.321  29.957  1.00  0.00    -0.336 N 
HETATM   29  C13 UNL     1      38.667  -3.420  30.121  1.00  0.00     0.316 C 
HETATM   30  O3  UNL     1      38.248  -3.825  31.252  1.00  0.00    -0.247 OA
HETATM   31  N6  UNL     1      37.766  -3.084  29.077  1.00  0.00    -0.339 N 
ATOM     32  H6  UNL     1      38.139  -2.761  28.184  1.00  0.00     0.164 HD
ATOM     33  H5  UNL     1      40.393  -2.997  29.049  1.00  0.00     0.164 HD
BRANCH  31  34
HETATM   34  C14 UNL     1      36.329  -3.189  29.246  1.00  0.00     0.086 C 
HETATM   35  C15 UNL     1      35.698  -1.835  29.492  1.00  0.00     0.025 C 
HETATM   36  C16 UNL     1      35.802  -1.063  28.194  1.00  0.00     0.002 C 
HETATM   37  C17 UNL     1      34.795  -1.652  27.243  1.00  0.00     0.000 C 
HETATM   38  C18 UNL     1      34.572  -3.122  27.453  1.00  0.00     0.002 C 
HETATM   39  C19 UNL     1      35.770  -3.831  28.016  1.00  0.00     0.025 C 
ENDBRANCH  31  34
ENDBRANCH  27  28
BRANCH  27  40
HETATM   40  C20 UNL     1      41.285  -5.111  31.111  1.00  0.00     0.003 C 
HETATM   41  C21 UNL     1      41.346  -5.792  29.774  1.00  0.00     0.011 C 
HETATM   42  C22 UNL     1      42.611  -5.357  31.824  1.00  0.00     0.011 C 
ENDBRANCH  27  40
ENDBRANCH   1  27
TORSDOF 8
ENDMDL
MODEL 4
REMARK VINA RESULT: -7.487264116      2.492      4.508
REMARK  8 active torsions:
REMARK  status: ('A' for Active; 'I' for Inactive)
REMARK    1  A    between atoms: C3_5  and  C4_6 
REMARK       I    between atoms: C4_6  and  N2_8 
REMARK    2  A    between atoms: N2_8  and  C5_10 
REMARK    3  A    between atoms: C5_10  and  C6_11 
REMARK    4  A    between atoms: C5_10  and  C12_23 
REMARK       I    between atoms: C6_11  and  N3_13 
REMARK    5  A    between atoms: N3_13  and  C7_15 
REMARK    6  A    between atoms: C12_23  and  N5_24 
REMARK    7  A    between atoms: C12_23  and  C20_36 
REMARK       I    between atoms: N5_24  and  C13_26 
REMARK       I    between atoms: C13_26  and  N6_28 
REMARK    8  A    between atoms: N6_28  and  C14_30 
ROOT
HETATM    1  C5  UNL     1      42.121  -2.600  30.702  1.00  0.00     0.200 C 
ENDROOT
BRANCH   1   2
HETATM    2  N2  UNL     1      42.477  -2.517  29.317  1.00  0.00    -0.340 N 
HETATM    3  C4  UNL     1      43.567  -3.226  28.752  1.00  0.00     0.271 C 
HETATM    4  O1  UNL     1      44.251  -3.958  29.504  1.00  0.00    -0.266 OA
ATOM      5  H2  UNL     1      41.919  -1.918  28.709  1.00  0.00     0.163 HD
BRANCH   3   6
HETATM    6  C3  UNL     1      43.890  -3.110  27.326  1.00  0.00     0.124 A 
HETATM    7  N1  UNL     1      43.656  -4.033  26.378  1.00  0.00    -0.340 N 
HETATM    8  C2  UNL     1      44.096  -3.563  25.180  1.00  0.00     0.077 A 
ATOM      9  H1  UNL     1      43.219  -4.941  26.533  1.00  0.00     0.167 HD
HETATM   10  C1  UNL     1      44.001  -4.316  23.910  1.00  0.00     0.089 C 
HETATM   11  N7  UNL     1      44.613  -2.336  25.365  1.00  0.00    -0.348 N 
HETATM   12  C23 UNL     1      44.490  -2.048  26.687  1.00  0.00     0.039 A 
ATOM     13  H7  UNL     1      45.022  -1.735  24.648  1.00  0.00     0.167 HD
HETATM   14  C24 UNL     1      44.936  -0.784  27.329  1.00  0.00     0.071 C 
ENDBRANCH   3   6
ENDBRANCH   1   2
BRANCH   1  15
HETATM   15  C6  UNL     1      42.530  -1.351  31.436  1.00  0.00     0.242 C 
HETATM   16  O2  UNL     1      42.488  -0.257  30.813  1.00  0.00    -0.271 OA
HETATM   17  N3  UNL     1      42.939  -1.452  32.776  1.00  0.00    -0.355 N 
ATOM     18  H3  UNL     1      42.945  -2.374  33.210  1.00  0.00     0.162 HD
BRANCH  17  19
HETATM   19  C7  UNL     1      43.354  -0.315  33.576  1.00  0.00     0.087 C 
HETATM   20  C8  UNL     1      44.746   0.129  33.268  1.00  0.00     0.052 C 
HETATM   21  C9  UNL     1      44.960   1.480  33.948  1.00  0.00     0.234 C 
HETATM   22  N4  UNL     1      44.785   1.310  35.365  1.00  0.00    -0.075 N 
HETATM   23  C10 UNL     1      44.421  -0.015  35.760  1.00  0.00     0.234 C 
ATOM     24  H42 UNL     1      45.621   1.613  35.865  1.00  0.00     0.277 HD
ATOM     25  H41 UNL     1      44.111   1.986  35.724  1.00  0.00     0.277 HD
HETATM   26  C11 UNL     1      43.226  -0.582  35.047  1.00  0.00     0.052 C 
ENDBRANCH  17  19
ENDBRANCH   1  15
BRANCH   1  27
HETATM   27  C12 UNL     1      40.662  -2.896  30.917  1.00  0.00     0.121 C 
BRANCH  27  28
HETATM   28  N5  UNL     1      39.886  -1.727  31.188  1.00  0.00    -0.336 N 
HETATM   29  C13 UNL     1      39.003  -1.543  32.265  1.00  0.00     0.316 C 
HETATM   30  O3  UNL     1      38.880  -2.512  33.080  1.00  0.00    -0.247 OA
HETATM   31  N6  UNL     1      38.280  -0.334  32.441  1.00  0.00    -0.339 N 
ATOM     32  H6  UNL     1      38.407   0.422  31.767  1.00  0.00     0.164 HD
ATOM     33  H5  UNL     1      39.982  -0.950  30.534  1.00  0.00     0.164 HD
BRANCH  31  34
HETATM   34  C14 UNL     1      37.368  -0.145  33.552  1.00  0.00     0.086 C 
HETATM   35  C15 UNL     1      38.101   0.263  34.812  1.00  0.00     0.025 C 
HETATM   36  C16 UNL     1      38.609   1.671  34.585  1.00  0.00     0.002 C 
HETATM   37  C17 UNL     1      37.420   2.591  34.665  1.00  0.00     0.000 C 
HETATM   38  C18 UNL     1      36.147   1.956  34.185  1.00  0.00     0.002 C 
HETATM   39  C19 UNL     1      36.366   0.891  33.149  1.00  0.00     0.025 C 
ENDBRANCH  31  34
ENDBRANCH  27  28
BRANCH  27  40
HETATM   40  C20 UNL     1      40.137  -3.710  29.758  1.00  0.00     0.003 C 
HETATM   41  C21 UNL     1      39.773  -5.094  30.213  1.00  0.00     0.011 C 
HETATM   42  C22 UNL     1      38.883  -3.060  29.181  1.00  0.00     0.011 C 
ENDBRANCH  27  40
ENDBRANCH   1  27
TORSDOF 8
ENDMDL
MODEL 5
REMARK VINA RESULT: -7.388064321      1.815      2.399
REMARK  8 active torsions:
REMARK  status: ('A' for Active; 'I' for Inactive)
REMARK    1  A    between atoms: C3_5  and  C4_6 
REMARK       I    between atoms: C4_6  and  N2_8 
REMARK    2  A    between atoms: N2_8  and  C5_10 
REMARK    3  A    between atoms: C5_10  and  C6_11 
REMARK    4  A    between atoms: C5_10  and  C12_23 
REMARK       I    between atoms: C6_11  and  N3_13 
REMARK    5  A    between atoms: N3_13  and  C7_15 
REMARK    6  A    between atoms: C12_23  and  N5_24 
REMARK    7  A    between atoms: C12_23  and  C20_36 
REMARK       I    between atoms: N5_24  and  C13_26 
REMARK       I    between atoms: C13_26  and  N6_28 
REMARK    8  A    between atoms: N6_28  and  C14_30 
ROOT
HETATM    1  C5  UNL     1      40.780  -5.253  30.407  1.00  0.00     0.200 C 
ENDROOT
BRANCH   1   2
HETATM    2  N2  UNL     1      41.388  -4.507  29.346  1.00  0.00    -0.340 N 
HETATM    3  C4  UNL     1      42.725  -4.713  28.918  1.00  0.00     0.271 C 
HETATM    4  O1  UNL     1      43.403  -5.591  29.500  1.00  0.00    -0.266 OA
ATOM      5  H2  UNL     1      40.833  -3.792  28.877  1.00  0.00     0.163 HD
BRANCH   3   6
HETATM    6  C3  UNL     1      43.302  -3.925  27.825  1.00  0.00     0.124 A 
HETATM    7  N1  UNL     1      43.483  -4.332  26.558  1.00  0.00    -0.340 N 
HETATM    8  C2  UNL     1      44.045  -3.322  25.840  1.00  0.00     0.077 A 
ATOM      9  H1  UNL     1      43.238  -5.252  26.192  1.00  0.00     0.167 HD
HETATM   10  C1  UNL     1      44.387  -3.418  24.405  1.00  0.00     0.089 C 
HETATM   11  N7  UNL     1      44.224  -2.267  26.654  1.00  0.00    -0.348 N 
HETATM   12  C23 UNL     1      43.767  -2.630  27.882  1.00  0.00     0.039 A 
ATOM     13  H7  UNL     1      44.627  -1.365  26.399  1.00  0.00     0.167 HD
HETATM   14  C24 UNL     1      43.776  -1.759  29.086  1.00  0.00     0.071 C 
ENDBRANCH   3   6
ENDBRANCH   1   2
BRANCH   1  15
HETATM   15  C6  UNL     1      40.658  -4.415  31.650  1.00  0.00     0.242 C 
HETATM   16  O2  UNL     1      40.331  -4.990  32.723  1.00  0.00    -0.271 OA
HETATM   17  N3  UNL     1      40.911  -3.036  31.570  1.00  0.00    -0.355 N 
ATOM     18  H3  UNL     1      41.172  -2.645  30.664  1.00  0.00     0.162 HD
BRANCH  17  19
HETATM   19  C7  UNL     1      40.823  -2.135  32.704  1.00  0.00     0.087 C 
HETATM   20  C8  UNL     1      40.330  -0.777  32.325  1.00  0.00     0.052 C 
HETATM   21  C9  UNL     1      40.009  -0.026  33.615  1.00  0.00     0.234 C 
HETATM   22  N4  UNL     1      41.212   0.072  34.396  1.00  0.00    -0.075 N 
HETATM   23  C10 UNL     1      42.347  -0.576  33.817  1.00  0.00     0.234 C 
ATOM     24  H42 UNL     1      41.425   1.048  34.600  1.00  0.00     0.277 HD
ATOM     25  H41 UNL     1      41.051  -0.273  35.342  1.00  0.00     0.277 HD
HETATM   26  C11 UNL     1      42.129  -2.011  33.432  1.00  0.00     0.052 C 
ENDBRANCH  17  19
ENDBRANCH   1  15
BRANCH   1  27
HETATM   27  C12 UNL     1      39.449  -5.841  30.023  1.00  0.00     0.121 C 
BRANCH  27  28
HETATM   28  N5  UNL     1      38.681  -4.986  29.174  1.00  0.00    -0.336 N 
HETATM   29  C13 UNL     1      37.334  -4.629  29.348  1.00  0.00     0.316 C 
HETATM   30  O3  UNL     1      36.736  -5.115  30.360  1.00  0.00    -0.247 OA
HETATM   31  N6  UNL     1      36.666  -3.766  28.441  1.00  0.00    -0.339 N 
ATOM     32  H6  UNL     1      37.179  -3.393  27.641  1.00  0.00     0.164 HD
ATOM     33  H5  UNL     1      39.159  -4.596  28.361  1.00  0.00     0.164 HD
BRANCH  31  34
HETATM   34  C14 UNL     1      35.274  -3.399  28.620  1.00  0.00     0.086 C 
HETATM   35  C15 UNL     1      35.133  -1.978  29.122  1.00  0.00     0.025 C 
HETATM   36  C16 UNL     1      35.549  -1.070  27.984  1.00  0.00     0.002 C 
HETATM   37  C17 UNL     1      34.442  -1.098  26.964  1.00  0.00     0.000 C 
HETATM   38  C18 UNL     1      33.722  -2.414  26.909  1.00  0.00     0.002 C 
HETATM   39  C19 UNL     1      34.581  -3.580  27.307  1.00  0.00     0.025 C 
ENDBRANCH  31  34
ENDBRANCH  27  28
BRANCH  27  40
HETATM   40  C20 UNL     1      39.655  -7.224  29.453  1.00  0.00     0.003 C 
HETATM   41  C21 UNL     1      40.705  -7.961  30.234  1.00  0.00     0.011 C 
HETATM   42  C22 UNL     1      38.360  -8.027  29.535  1.00  0.00     0.011 C 
ENDBRANCH  27  40
ENDBRANCH   1  27
TORSDOF 8
ENDMDL
