MODEL 1
REMARK VINA RESULT: -8.420296604      0.000      0.000
REMARK  9 active torsions:
REMARK  status: ('A' for Active; 'I' for Inactive)
REMARK       I    between atoms: C1_4  and  N3_6 
REMARK    1  A    between atoms: N3_6  and  C2_8 
REMARK    2  A    between atoms: C2_8  and  C3_9 
REMARK    3  A    between atoms: C3_9  and  C4_10 
REMARK    4  A    between atoms: C4_10  and  C5_11 
REMARK    5  A    between atoms: C7_14  and  C8_15 
REMARK    6  A    between atoms: C8_15  and  N4_16 
REMARK       I    between atoms: N4_16  and  C9_18 
REMARK    7  A    between atoms: C9_18  and  C10_20 
REMARK    8  A    between atoms: C17_30  and  C18_31 
REMARK    9  A    between atoms: C18_31  and  C19_32 
ROOT
HETATM    1  C5  UNL     1      42.281  -2.592  28.578  1.00  0.00     0.108 C 
HETATM    2  C6  UNL     1      41.995  -3.805  29.477  1.00  0.00     0.195 C 
HETATM    3  O1  UNL     1      40.747  -3.621  29.999  1.00  0.00    -0.356 OA
HETATM    4  C7  UNL     1      40.605  -3.772  31.360  1.00  0.00     0.339 C 
HETATM    5  N5  UNL     1      40.991  -2.581  32.101  1.00  0.00    -0.034 N 
ATOM      6  H51 UNL     1      41.971  -2.608  32.382  1.00  0.00     0.281 HD
ATOM      7  H52 UNL     1      40.569  -2.556  33.029  1.00  0.00     0.281 HD
HETATM    8  C17 UNL     1      40.675  -1.373  31.318  1.00  0.00     0.280 C 
HETATM    9  C25 UNL     1      41.967  -1.034  30.685  1.00  0.00     0.249 C 
HETATM   10  O3  UNL     1      42.767  -0.302  31.298  1.00  0.00    -0.271 OA
HETATM   11  N6  UNL     1      42.528  -1.412  29.411  1.00  0.00    -0.353 N 
ATOM     12  H6  UNL     1      43.205  -0.752  29.029  1.00  0.00     0.163 HD
ENDROOT
BRANCH   4  13
HETATM   13  C8  UNL     1      39.162  -4.134  31.597  1.00  0.00     0.184 C 
BRANCH  13  14
HETATM   14  N4  UNL     1      38.341  -3.467  30.640  1.00  0.00    -0.357 N 
HETATM   15  C9  UNL     1      37.332  -4.089  29.893  1.00  0.00     0.221 C 
HETATM   16  O2  UNL     1      37.026  -5.304  29.976  1.00  0.00    -0.273 OA
ATOM     17  H4  UNL     1      38.499  -2.470  30.490  1.00  0.00     0.162 HD
BRANCH  15  18
HETATM   18  C10 UNL     1      36.531  -3.273  28.901  1.00  0.00     0.078 C 
HETATM   19  C11 UNL     1      36.493  -1.870  29.469  1.00  0.00     0.014 C 
HETATM   20  C12 UNL     1      35.321  -1.061  29.017  1.00  0.00     0.001 C 
HETATM   21  C13 UNL     1      35.152  -1.153  27.518  1.00  0.00     0.000 C 
HETATM   22  C14 UNL     1      34.032  -2.167  27.260  1.00  0.00     0.000 C 
HETATM   23  C15 UNL     1      34.685  -3.551  27.295  1.00  0.00     0.001 C 
HETATM   24  C16 UNL     1      35.163  -3.840  28.685  1.00  0.00     0.014 C 
ENDBRANCH  15  18
ENDBRANCH  13  14
ENDBRANCH   4  13
BRANCH   8  25
HETATM   25  C18 UNL     1      40.143  -0.353  32.238  1.00  0.00     0.047 C 
BRANCH  25  26
HETATM   26  C19 UNL     1      38.689  -0.252  32.454  1.00  0.00    -0.012 C 
HETATM   27  C20 UNL     1      38.183   1.182  32.509  1.00  0.00     0.005 C 
HETATM   28  C21 UNL     1      36.794   1.179  33.126  1.00  0.00     0.000 C 
HETATM   29  C22 UNL     1      36.034   0.034  32.492  1.00  0.00     0.000 C 
HETATM   30  C23 UNL     1      36.550  -1.252  33.095  1.00  0.00     0.000 C 
HETATM   31  C24 UNL     1      38.042  -1.138  33.470  1.00  0.00     0.005 C 
ENDBRANCH  25  26
ENDBRANCH   8  25
BRANCH   1  32
HETATM   32  C4  UNL     1      43.414  -2.806  27.641  1.00  0.00     0.029 C 
BRANCH  32  33
HETATM   33  C3  UNL     1      44.173  -1.559  27.261  1.00  0.00     0.022 C 
BRANCH  33  34
HETATM   34  C2  UNL     1      44.955  -1.916  25.992  1.00  0.00     0.122 C 
BRANCH  34  35
HETATM   35  N3  UNL     1      44.084  -2.427  24.957  1.00  0.00    -0.365 N 
HETATM   36  C1  UNL     1      44.184  -3.747  24.462  1.00  0.00     0.181 C 
HETATM   37  N1  UNL     1      44.890  -4.634  25.068  1.00  0.00    -0.374 N 
HETATM   38  N2  UNL     1      43.499  -4.109  23.284  1.00  0.00    -0.064 NA
ATOM     39  H12 UNL     1      44.961  -5.587  24.711  1.00  0.00     0.158 HD
ATOM     40  H11 UNL     1      45.385  -4.372  25.921  1.00  0.00     0.158 HD
ATOM     41  H3  UNL     1      43.371  -1.810  24.567  1.00  0.00     0.162 HD
ENDBRANCH  34  35
ENDBRANCH  33  34
ENDBRANCH  32  33
ENDBRANCH   1  32
TORSDOF 9
ENDMDL
MODEL 2
REMARK VINA RESULT: -8.203018374      0.908      1.252
REMARK  9 active torsions:
REMARK  status: ('A' for Active; 'I' for Inactive)
REMARK       I    between atoms: C1_4  and  N3_6 
REMARK    1  A    between atoms: N3_6  and  C2_8 
REMARK    2  A    between atoms: C2_8  and  C3_9 
REMARK    3  A    between atoms: C3_9  and  C4_10 
REMARK    4  A    between atoms: C4_10  and  C5_11 
REMARK    5  A    between atoms: C7_14  and  C8_15 
REMARK    6  A    between atoms: C8_15  and  N4_16 
REMARK       I    between atoms: N4_16  and  C9_18 
REMARK    7  A    between atoms: C9_18  and  C10_20 
REMARK    8  A    between atoms: C17_30  and  C18_31 
REMARK    9  A    between atoms: C18_31  and  C19_32 
ROOT
HETATM    1  C5  UNL     1      42.920  -2.377  28.891  1.00  0.00     0.108 C 
HETATM    2  C6  UNL     1      42.605  -3.678  29.644  1.00  0.00     0.195 C 
HETATM    3  O1  UNL     1      41.406  -3.490  30.269  1.00  0.00    -0.356 OA
HETATM    4  C7  UNL     1      41.335  -3.811  31.606  1.00  0.00     0.339 C 
HETATM    5  N5  UNL     1      41.845  -2.754  32.466  1.00  0.00    -0.034 N 
ATOM      6  H51 UNL     1      42.836  -2.877  32.674  1.00  0.00     0.281 HD
ATOM      7  H52 UNL     1      41.481  -2.826  33.416  1.00  0.00     0.281 HD
HETATM    8  C17 UNL     1      41.567  -1.436  31.867  1.00  0.00     0.280 C 
HETATM    9  C25 UNL     1      42.839  -1.094  31.197  1.00  0.00     0.249 C 
HETATM   10  O3  UNL     1      43.722  -0.499  31.842  1.00  0.00    -0.271 OA
HETATM   11  N6  UNL     1      43.296  -1.334  29.850  1.00  0.00    -0.353 N 
ATOM     12  H6  UNL     1      43.993  -0.671  29.510  1.00  0.00     0.163 HD
ENDROOT
BRANCH   4  13
HETATM   13  C8  UNL     1      39.887  -4.113  31.892  1.00  0.00     0.184 C 
BRANCH  13  14
HETATM   14  N4  UNL     1      39.074  -3.573  30.853  1.00  0.00    -0.357 N 
HETATM   15  C9  UNL     1      37.673  -3.537  30.881  1.00  0.00     0.221 C 
HETATM   16  O2  UNL     1      36.966  -3.970  31.824  1.00  0.00    -0.273 OA
ATOM     17  H4  UNL     1      39.544  -3.186  30.033  1.00  0.00     0.162 HD
BRANCH  15  18
HETATM   18  C10 UNL     1      36.921  -2.942  29.711  1.00  0.00     0.078 C 
HETATM   19  C11 UNL     1      36.444  -1.585  30.184  1.00  0.00     0.014 C 
HETATM   20  C12 UNL     1      35.232  -1.081  29.470  1.00  0.00     0.001 C 
HETATM   21  C13 UNL     1      35.394  -1.221  27.974  1.00  0.00     0.000 C 
HETATM   22  C14 UNL     1      34.615  -2.475  27.560  1.00  0.00     0.000 C 
HETATM   23  C15 UNL     1      35.551  -3.663  27.796  1.00  0.00     0.001 C 
HETATM   24  C16 UNL     1      35.793  -3.820  29.265  1.00  0.00     0.014 C 
ENDBRANCH  15  18
ENDBRANCH  13  14
ENDBRANCH   4  13
BRANCH   8  25
HETATM   25  C18 UNL     1      41.161  -0.516  32.945  1.00  0.00     0.047 C 
BRANCH  25  26
HETATM   26  C19 UNL     1      39.739  -0.178  33.119  1.00  0.00    -0.012 C 
HETATM   27  C20 UNL     1      38.960  -1.222  33.906  1.00  0.00     0.005 C 
HETATM   28  C21 UNL     1      37.476  -0.990  33.679  1.00  0.00     0.000 C 
HETATM   29  C22 UNL     1      37.244   0.502  33.786  1.00  0.00     0.000 C 
HETATM   30  C23 UNL     1      37.767   1.142  32.522  1.00  0.00     0.000 C 
HETATM   31  C24 UNL     1      38.972   0.364  31.955  1.00  0.00     0.005 C 
ENDBRANCH  25  26
ENDBRANCH   8  25
BRANCH   1  32
HETATM   32  C4  UNL     1      43.978  -2.533  27.860  1.00  0.00     0.029 C 
BRANCH  32  33
HETATM   33  C3  UNL     1      44.279  -1.290  27.060  1.00  0.00     0.022 C 
BRANCH  33  34
HETATM   34  C2  UNL     1      45.086  -1.760  25.846  1.00  0.00     0.122 C 
BRANCH  34  35
HETATM   35  N3  UNL     1      44.225  -2.225  24.781  1.00  0.00    -0.365 N 
HETATM   36  C1  UNL     1      44.206  -3.571  24.352  1.00  0.00     0.181 C 
HETATM   37  N1  UNL     1      44.774  -4.498  25.039  1.00  0.00    -0.374 N 
HETATM   38  N2  UNL     1      43.553  -3.916  23.151  1.00  0.00    -0.064 NA
ATOM     39  H12 UNL     1      44.760  -5.469  24.729  1.00  0.00     0.158 HD
ATOM     40  H11 UNL     1      45.246  -4.249  25.908  1.00  0.00     0.158 HD
ATOM     41  H3  UNL     1      43.607  -1.555  24.322  1.00  0.00     0.162 HD
ENDBRANCH  34  35
ENDBRANCH  33  34
ENDBRANCH  32  33
ENDBRANCH   1  32
TORSDOF 9
ENDMDL
MODEL 3
REMARK VINA RESULT: -8.053346923      0.599      1.187
REMARK  9 active torsions:
REMARK  status: ('A' for Active; 'I' for Inactive)
REMARK       I    between atoms: C1_4  and  N3_6 
REMARK    1  A    between atoms: N3_6  and  C2_8 
REMARK    2  A    between atoms: C2_8  and  C3_9 
REMARK    3  A    between atoms: C3_9  and  C4_10 
REMARK    4  A    between atoms: C4_10  and  C5_11 
REMARK    5  A    between atoms: C7_14  and  C8_15 
REMARK    6  A    between atoms: C8_15  and  N4_16 
REMARK       I    between atoms: N4_16  and  C9_18 
REMARK    7  A    between atoms: C9_18  and  C10_20 
REMARK    8  A    between atoms: C17_30  and  C18_31 
REMARK    9  A    between atoms: C18_31  and  C19_32 
ROOT
HETATM    1  C5  UNL     1      42.178  -2.753  28.659  1.00  0.00     0.108 C 
HETATM    2  C6  UNL     1      42.075  -3.925  29.647  1.00  0.00     0.195 C 
HETATM    3  O1  UNL     1      40.868  -3.804  30.275  1.00  0.00    -0.356 OA
HETATM    4  C7  UNL     1      40.862  -3.879  31.649  1.00  0.00     0.339 C 
HETATM    5  N5  UNL     1      41.214  -2.618  32.282  1.00  0.00    -0.034 N 
ATOM      6  H51 UNL     1      42.214  -2.552  32.471  1.00  0.00     0.281 HD
ATOM      7  H52 UNL     1      40.876  -2.566  33.243  1.00  0.00     0.281 HD
HETATM    8  C17 UNL     1      40.731  -1.489  31.466  1.00  0.00     0.280 C 
HETATM    9  C25 UNL     1      41.928  -1.093  30.695  1.00  0.00     0.249 C 
HETATM   10  O3  UNL     1      42.717  -0.265  31.188  1.00  0.00    -0.271 OA
HETATM   11  N6  UNL     1      42.401  -1.507  29.397  1.00  0.00    -0.353 N 
ATOM     12  H6  UNL     1      42.985  -0.823  28.916  1.00  0.00     0.163 HD
ENDROOT
BRANCH   4  13
HETATM   13  C8  UNL     1      39.480  -4.334  32.041  1.00  0.00     0.184 C 
BRANCH  13  14
HETATM   14  N4  UNL     1      38.523  -3.781  31.141  1.00  0.00    -0.357 N 
HETATM   15  C9  UNL     1      37.175  -4.160  31.088  1.00  0.00     0.221 C 
HETATM   16  O2  UNL     1      36.645  -5.026  31.827  1.00  0.00    -0.273 OA
ATOM     17  H4  UNL     1      38.841  -3.061  30.491  1.00  0.00     0.162 HD
BRANCH  15  18
HETATM   18  C10 UNL     1      36.257  -3.502  30.080  1.00  0.00     0.078 C 
HETATM   19  C11 UNL     1      35.998  -4.554  29.022  1.00  0.00     0.014 C 
HETATM   20  C12 UNL     1      35.636  -3.997  27.685  1.00  0.00     0.001 C 
HETATM   21  C13 UNL     1      34.565  -2.939  27.816  1.00  0.00     0.000 C 
HETATM   22  C14 UNL     1      35.272  -1.581  27.735  1.00  0.00     0.000 C 
HETATM   23  C15 UNL     1      35.781  -1.274  29.146  1.00  0.00     0.001 C 
HETATM   24  C16 UNL     1      36.854  -2.254  29.510  1.00  0.00     0.014 C 
ENDBRANCH  15  18
ENDBRANCH  13  14
ENDBRANCH   4  13
BRANCH   8  25
HETATM   25  C18 UNL     1      40.202  -0.456  32.374  1.00  0.00     0.047 C 
BRANCH  25  26
HETATM   26  C19 UNL     1      38.746  -0.306  32.539  1.00  0.00    -0.012 C 
HETATM   27  C20 UNL     1      38.282   1.143  32.540  1.00  0.00     0.005 C 
HETATM   28  C21 UNL     1      36.876   1.199  33.110  1.00  0.00     0.000 C 
HETATM   29  C22 UNL     1      36.101   0.061  32.481  1.00  0.00     0.000 C 
HETATM   30  C23 UNL     1      36.557  -1.223  33.135  1.00  0.00     0.000 C 
HETATM   31  C24 UNL     1      38.039  -1.144  33.555  1.00  0.00     0.005 C 
ENDBRANCH  25  26
ENDBRANCH   8  25
BRANCH   1  32
HETATM   32  C4  UNL     1      43.236  -2.939  27.632  1.00  0.00     0.029 C 
BRANCH  32  33
HETATM   33  C3  UNL     1      44.077  -1.719  27.353  1.00  0.00     0.022 C 
BRANCH  33  34
HETATM   34  C2  UNL     1      44.916  -2.063  26.119  1.00  0.00     0.122 C 
BRANCH  34  35
HETATM   35  N3  UNL     1      44.085  -2.446  24.999  1.00  0.00    -0.365 N 
HETATM   36  C1  UNL     1      44.169  -3.719  24.389  1.00  0.00     0.181 C 
HETATM   37  N1  UNL     1      44.816  -4.682  24.944  1.00  0.00    -0.374 N 
HETATM   38  N2  UNL     1      43.535  -3.948  23.151  1.00  0.00    -0.064 NA
ATOM     39  H12 UNL     1      44.877  -5.599  24.504  1.00  0.00     0.158 HD
ATOM     40  H11 UNL     1      45.275  -4.516  25.840  1.00  0.00     0.158 HD
ATOM     41  H3  UNL     1      43.411  -1.772  24.635  1.00  0.00     0.162 HD
ENDBRANCH  34  35
ENDBRANCH  33  34
ENDBRANCH  32  33
ENDBRANCH   1  32
TORSDOF 9
ENDMDL
MODEL 4
REMARK VINA RESULT: -7.960540317      1.013      1.413
REMARK  9 active torsions:
REMARK  status: ('A' for Active; 'I' for Inactive)
REMARK       I    between atoms: C1_4  and  N3_6 
REMARK    1  A    between atoms: N3_6  and  C2_8 
REMARK    2  A    between atoms: C2_8  and  C3_9 
REMARK    3  A    between atoms: C3_9  and  C4_10 
REMARK    4  A    between atoms: C4_10  and  C5_11 
REMARK    5  A    between atoms: C7_14  and  C8_15 
REMARK    6  A    between atoms: C8_15  and  N4_16 
REMARK       I    between atoms: N4_16  and  C9_18 
REMARK    7  A    between atoms: C9_18  and  C10_20 
REMARK    8  A    between atoms: C17_30  and  C18_31 
REMARK    9  A    between atoms: C18_31  and  C19_32 
ROOT
HETATM    1  C5  UNL     1      41.636  -1.866  29.354  1.00  0.00     0.108 C 
HETATM    2  C6  UNL     1      41.231  -3.273  29.819  1.00  0.00     0.195 C 
HETATM    3  O1  UNL     1      39.989  -3.161  30.375  1.00  0.00    -0.356 OA
HETATM    4  C7  UNL     1      39.800  -3.724  31.617  1.00  0.00     0.339 C 
HETATM    5  N5  UNL     1      40.261  -2.868  32.698  1.00  0.00    -0.034 N 
ATOM      6  H51 UNL     1      41.229  -3.066  32.955  1.00  0.00     0.281 HD
ATOM      7  H52 UNL     1      39.819  -3.104  33.587  1.00  0.00     0.281 HD
HETATM    8  C17 UNL     1      40.064  -1.452  32.343  1.00  0.00     0.280 C 
HETATM    9  C25 UNL     1      41.395  -1.039  31.849  1.00  0.00     0.249 C 
HETATM   10  O3  UNL     1      42.235  -0.610  32.663  1.00  0.00    -0.271 OA
HETATM   11  N6  UNL     1      41.956  -1.038  30.521  1.00  0.00    -0.353 N 
ATOM     12  H6  UNL     1      42.693  -0.350  30.368  1.00  0.00     0.163 HD
ENDROOT
BRANCH   4  13
HETATM   13  C8  UNL     1      38.327  -4.019  31.727  1.00  0.00     0.184 C 
BRANCH  13  14
HETATM   14  N4  UNL     1      37.622  -3.316  30.707  1.00  0.00    -0.357 N 
HETATM   15  C9  UNL     1      36.643  -3.887  29.883  1.00  0.00     0.221 C 
HETATM   16  O2  UNL     1      36.265  -5.083  29.945  1.00  0.00    -0.273 OA
ATOM     17  H4  UNL     1      37.846  -2.330  30.567  1.00  0.00     0.162 HD
BRANCH  15  18
HETATM   18  C10 UNL     1      35.970  -3.035  28.828  1.00  0.00     0.078 C 
HETATM   19  C11 UNL     1      35.902  -1.642  29.416  1.00  0.00     0.014 C 
HETATM   20  C12 UNL     1      34.802  -0.798  28.859  1.00  0.00     0.001 C 
HETATM   21  C13 UNL     1      34.791  -0.861  27.349  1.00  0.00     0.000 C 
HETATM   22  C14 UNL     1      33.683  -1.844  26.955  1.00  0.00     0.000 C 
HETATM   23  C15 UNL     1      34.299  -3.243  27.032  1.00  0.00     0.001 C 
HETATM   24  C16 UNL     1      34.620  -3.566  28.458  1.00  0.00     0.014 C 
ENDBRANCH  15  18
ENDBRANCH  13  14
ENDBRANCH   4  13
BRANCH   8  25
HETATM   25  C18 UNL     1      39.592  -0.736  33.542  1.00  0.00     0.047 C 
BRANCH  25  26
HETATM   26  C19 UNL     1      38.308  -0.016  33.503  1.00  0.00    -0.012 C 
HETATM   27  C20 UNL     1      37.117  -0.915  33.205  1.00  0.00     0.005 C 
HETATM   28  C21 UNL     1      35.945  -0.042  32.792  1.00  0.00     0.000 C 
HETATM   29  C22 UNL     1      35.907   1.126  33.754  1.00  0.00     0.000 C 
HETATM   30  C23 UNL     1      37.029   2.067  33.381  1.00  0.00     0.000 C 
HETATM   31  C24 UNL     1      38.234   1.300  32.797  1.00  0.00     0.005 C 
ENDBRANCH  25  26
ENDBRANCH   8  25
BRANCH   1  32
HETATM   32  C4  UNL     1      42.772  -1.865  28.397  1.00  0.00     0.029 C 
BRANCH  32  33
HETATM   33  C3  UNL     1      43.891  -2.820  28.732  1.00  0.00     0.022 C 
BRANCH  33  34
HETATM   34  C2  UNL     1      44.065  -3.709  27.496  1.00  0.00     0.122 C 
BRANCH  34  35
HETATM   35  N3  UNL     1      44.041  -2.935  26.275  1.00  0.00    -0.365 N 
HETATM   36  C1  UNL     1      44.423  -3.473  25.025  1.00  0.00     0.181 C 
HETATM   37  N1  UNL     1      44.583  -4.739  24.866  1.00  0.00    -0.374 N 
HETATM   38  N2  UNL     1      44.633  -2.617  23.926  1.00  0.00    -0.064 NA
ATOM     39  H12 UNL     1      44.858  -5.128  23.965  1.00  0.00     0.158 HD
ATOM     40  H11 UNL     1      44.430  -5.360  25.662  1.00  0.00     0.158 HD
ATOM     41  H3  UNL     1      43.737  -1.962  26.317  1.00  0.00     0.162 HD
ENDBRANCH  34  35
ENDBRANCH  33  34
ENDBRANCH  32  33
ENDBRANCH   1  32
TORSDOF 9
ENDMDL
MODEL 5
REMARK VINA RESULT: -7.926128555      1.051      1.365
REMARK  9 active torsions:
REMARK  status: ('A' for Active; 'I' for Inactive)
REMARK       I    between atoms: C1_4  and  N3_6 
REMARK    1  A    between atoms: N3_6  and  C2_8 
REMARK    2  A    between atoms: C2_8  and  C3_9 
REMARK    3  A    between atoms: C3_9  and  C4_10 
REMARK    4  A    between atoms: C4_10  and  C5_11 
REMARK    5  A    between atoms: C7_14  and  C8_15 
REMARK    6  A    between atoms: C8_15  and  N4_16 
REMARK       I    between atoms: N4_16  and  C9_18 
REMARK    7  A    between atoms: C9_18  and  C10_20 
REMARK    8  A    between atoms: C17_30  and  C18_31 
REMARK    9  A    between atoms: C18_31  and  C19_32 
ROOT
HETATM    1  C5  UNL     1      41.793  -2.078  29.235  1.00  0.00     0.108 C 
HETATM    2  C6  UNL     1      41.273  -3.375  29.875  1.00  0.00     0.195 C 
HETATM    3  O1  UNL     1      40.077  -3.073  30.459  1.00  0.00    -0.356 OA
HETATM    4  C7  UNL     1      39.894  -3.472  31.764  1.00  0.00     0.339 C 
HETATM    5  N5  UNL     1      40.491  -2.554  32.722  1.00  0.00    -0.034 N 
ATOM      6  H51 UNL     1      41.445  -2.822  32.963  1.00  0.00     0.281 HD
ATOM      7  H52 UNL     1      40.071  -2.642  33.648  1.00  0.00     0.281 HD
HETATM    8  C17 UNL     1      40.418  -1.173  32.212  1.00  0.00     0.280 C 
HETATM    9  C25 UNL     1      41.757  -0.958  31.625  1.00  0.00     0.249 C 
HETATM   10  O3  UNL     1      42.675  -0.532  32.351  1.00  0.00    -0.271 OA
HETATM   11  N6  UNL     1      42.250  -1.163  30.285  1.00  0.00    -0.353 N 
ATOM     12  H6  UNL     1      43.044  -0.578  30.026  1.00  0.00     0.163 HD
ENDROOT
BRANCH   4  13
HETATM   13  C8  UNL     1      38.406  -3.597  31.964  1.00  0.00     0.184 C 
BRANCH  13  14
HETATM   14  N4  UNL     1      37.727  -3.015  30.854  1.00  0.00    -0.357 N 
HETATM   15  C9  UNL     1      36.576  -3.551  30.261  1.00  0.00     0.221 C 
HETATM   16  O2  UNL     1      36.002  -4.604  30.636  1.00  0.00    -0.273 OA
ATOM     17  H4  UNL     1      38.104  -2.150  30.465  1.00  0.00     0.162 HD
BRANCH  15  18
HETATM   18  C10 UNL     1      35.948  -2.842  29.080  1.00  0.00     0.078 C 
HETATM   19  C11 UNL     1      35.730  -1.415  29.534  1.00  0.00     0.014 C 
HETATM   20  C12 UNL     1      34.634  -0.705  28.810  1.00  0.00     0.001 C 
HETATM   21  C13 UNL     1      34.769  -0.891  27.317  1.00  0.00     0.000 C 
HETATM   22  C14 UNL     1      33.773  -1.984  26.914  1.00  0.00     0.000 C 
HETATM   23  C15 UNL     1      34.472  -3.322  27.168  1.00  0.00     0.001 C 
HETATM   24  C16 UNL     1      34.679  -3.502  28.640  1.00  0.00     0.014 C 
ENDBRANCH  15  18
ENDBRANCH  13  14
ENDBRANCH   4  13
BRANCH   8  25
HETATM   25  C18 UNL     1      40.079  -0.283  33.337  1.00  0.00     0.047 C 
BRANCH  25  26
HETATM   26  C19 UNL     1      38.780   0.410  33.353  1.00  0.00    -0.012 C 
HETATM   27  C20 UNL     1      38.693   1.512  34.398  1.00  0.00     0.005 C 
HETATM   28  C21 UNL     1      37.231   1.869  34.605  1.00  0.00     0.000 C 
HETATM   29  C22 UNL     1      36.602   1.951  33.230  1.00  0.00     0.000 C 
HETATM   30  C23 UNL     1      36.419   0.539  32.722  1.00  0.00     0.000 C 
HETATM   31  C24 UNL     1      37.525  -0.397  33.253  1.00  0.00     0.005 C 
ENDBRANCH  25  26
ENDBRANCH   8  25
BRANCH   1  32
HETATM   32  C4  UNL     1      42.874  -2.303  28.242  1.00  0.00     0.029 C 
BRANCH  32  33
HETATM   33  C3  UNL     1      44.190  -1.641  28.569  1.00  0.00     0.022 C 
BRANCH  33  34
HETATM   34  C2  UNL     1      44.706  -1.062  27.248  1.00  0.00     0.122 C 
BRANCH  34  35
HETATM   35  N3  UNL     1      44.906  -2.094  26.256  1.00  0.00    -0.365 N 
HETATM   36  C1  UNL     1      44.559  -1.921  24.896  1.00  0.00     0.181 C 
HETATM   37  N1  UNL     1      44.271  -0.759  24.426  1.00  0.00    -0.374 N 
HETATM   38  N2  UNL     1      44.528  -3.034  24.032  1.00  0.00    -0.064 NA
ATOM     39  H12 UNL     1      44.021  -0.634  23.446  1.00  0.00     0.158 HD
ATOM     40  H11 UNL     1      44.294   0.046  25.051  1.00  0.00     0.158 HD
ATOM     41  H3  UNL     1      45.314  -2.983  26.548  1.00  0.00     0.162 HD
ENDBRANCH  34  35
ENDBRANCH  33  34
ENDBRANCH  32  33
ENDBRANCH   1  32
TORSDOF 9
ENDMDL
