MODEL 1
REMARK VINA RESULT: -8.355834674      0.000      0.000
REMARK  11 active torsions:
REMARK  status: ('A' for Active; 'I' for Inactive)
REMARK    1  A    between atoms: C1_4  and  C2_6 
REMARK    2  A    between atoms: C2_6  and  C3_7 
REMARK    3  A    between atoms: C3_7  and  N3_8 
REMARK       I    between atoms: N3_8  and  C4_10 
REMARK    4  A    between atoms: C4_10  and  C5_12 
REMARK    5  A    between atoms: C8_15  and  N4_16 
REMARK       I    between atoms: N4_16  and  C9_18 
REMARK       I    between atoms: C9_18  and  N6_23 
REMARK    6  A    between atoms: N5_19  and  O2_21 
REMARK    7  A    between atoms: N7_29  and  C15_30 
REMARK    8  A    between atoms: C15_30  and  C16_31 
REMARK    9  A    between atoms: C16_31  and  C17_32 
REMARK   10  A    between atoms: C17_32  and  C18_33 
REMARK   11  A    between atoms: N8_38  and  O3_40 
ROOT
HETATM    1  C5  UNL     1      42.130  -2.139  29.678  1.00  0.00     0.096 C 
HETATM    2  C6  UNL     1      41.636  -0.682  29.635  1.00  0.00     0.019 C 
HETATM    3  C7  UNL     1      40.701  -0.564  30.816  1.00  0.00     0.048 C 
HETATM    4  C8  UNL     1      39.640  -1.586  30.780  1.00  0.00     0.202 C 
HETATM    5  N7  UNL     1      39.763  -2.628  29.780  1.00  0.00    -0.347 N 
HETATM    6  C23 UNL     1      40.969  -2.931  29.083  1.00  0.00     0.140 C 
ENDROOT
BRANCH   4   7
HETATM    7  N4  UNL     1      39.494  -2.140  32.124  1.00  0.00    -0.203 N 
HETATM    8  C9  UNL     1      39.249  -1.252  33.195  1.00  0.00     0.697 C 
HETATM    9  N5  UNL     1      40.022  -1.103  34.217  1.00  0.00    -0.099 N 
HETATM   10  N6  UNL     1      38.062  -0.447  33.169  1.00  0.00    -0.216 N 
ATOM     11  H5  UNL     1      39.738  -0.430  34.929  1.00  0.00     0.213 HD
HETATM   12  C10 UNL     1      38.238   0.993  33.153  1.00  0.00     0.141 C 
HETATM   13  C14 UNL     1      36.751  -1.021  33.158  1.00  0.00     0.141 C 
HETATM   14  C11 UNL     1      37.427   1.542  34.319  1.00  0.00     0.020 C 
HETATM   15  C12 UNL     1      35.988   1.197  34.065  1.00  0.00     0.003 C 
HETATM   16  C13 UNL     1      35.722  -0.254  33.910  1.00  0.00     0.020 C 
ATOM     17  H4  UNL     1      39.569  -3.144  32.286  1.00  0.00     0.180 HD
BRANCH   9  18
HETATM   18  O2  UNL     1      41.181  -1.774  34.416  1.00  0.00    -0.276 OA
ATOM     19  H2  UNL     1      41.460  -2.145  35.245  1.00  0.00     0.245 HD
ENDBRANCH   9  18
ENDBRANCH   4   7
BRANCH   5  20
HETATM   20  C15 UNL     1      38.587  -3.359  29.519  1.00  0.00     0.101 C 
HETATM   21  N8  UNL     1      38.704  -4.568  29.079  1.00  0.00    -0.257 N 
ATOM     22  H8  UNL     1      39.649  -4.929  28.945  1.00  0.00     0.195 HD
BRANCH  20  23
HETATM   23  C16 UNL     1      37.234  -2.837  29.713  1.00  0.00     0.078 C 
BRANCH  23  24
HETATM   24  C17 UNL     1      36.900  -1.770  28.737  1.00  0.00     0.012 C 
BRANCH  24  25
HETATM   25  C18 UNL     1      35.450  -1.790  28.306  1.00  0.00    -0.014 C 
HETATM   26  C19 UNL     1      35.068  -0.673  27.406  1.00  0.00     0.004 C 
HETATM   27  C20 UNL     1      33.713  -1.129  26.859  1.00  0.00     0.000 C 
HETATM   28  C21 UNL     1      33.684  -2.625  27.004  1.00  0.00     0.000 C 
HETATM   29  C22 UNL     1      35.048  -3.025  27.580  1.00  0.00     0.004 C 
ENDBRANCH  24  25
ENDBRANCH  23  24
ENDBRANCH  20  23
BRANCH  21  30
HETATM   30  O3  UNL     1      37.676  -5.395  28.782  1.00  0.00    -0.288 OA
ATOM     31  H3  UNL     1      37.675  -6.044  28.087  1.00  0.00     0.244 HD
ENDBRANCH  21  30
ENDBRANCH   5  20
BRANCH   1  32
HETATM   32  C4  UNL     1      43.362  -2.313  28.931  1.00  0.00     0.223 C 
HETATM   33  N3  UNL     1      43.695  -1.426  27.876  1.00  0.00    -0.360 N 
ATOM     34  H3  UNL     1      43.047  -0.669  27.659  1.00  0.00     0.162 HD
HETATM   35  O1  UNL     1      44.150  -3.243  29.202  1.00  0.00    -0.273 OA
BRANCH  33  36
HETATM   36  C3  UNL     1      44.898  -1.540  27.095  1.00  0.00     0.129 C 
BRANCH  36  37
HETATM   37  C2  UNL     1      44.545  -1.496  25.629  1.00  0.00     0.092 C 
BRANCH  37  38
HETATM   38  C1  UNL     1      44.440  -2.862  25.071  1.00  0.00     0.088 C 
HETATM   39  N1  UNL     1      44.889  -3.106  23.887  1.00  0.00    -0.391 N 
ATOM     40  H12 UNL     1      44.816  -4.048  23.503  1.00  0.00     0.157 HD
ATOM     41  H11 UNL     1      45.316  -2.369  23.327  1.00  0.00     0.157 HD
HETATM   42  N2  UNL     1      43.848  -3.883  25.847  1.00  0.00    -0.088 NA
ENDBRANCH  37  38
ENDBRANCH  36  37
ENDBRANCH  33  36
ENDBRANCH   1  32
TORSDOF 11
ENDMDL
MODEL 2
REMARK VINA RESULT: -8.312073174      0.867      1.115
REMARK  11 active torsions:
REMARK  status: ('A' for Active; 'I' for Inactive)
REMARK    1  A    between atoms: C1_4  and  C2_6 
REMARK    2  A    between atoms: C2_6  and  C3_7 
REMARK    3  A    between atoms: C3_7  and  N3_8 
REMARK       I    between atoms: N3_8  and  C4_10 
REMARK    4  A    between atoms: C4_10  and  C5_12 
REMARK    5  A    between atoms: C8_15  and  N4_16 
REMARK       I    between atoms: N4_16  and  C9_18 
REMARK       I    between atoms: C9_18  and  N6_23 
REMARK    6  A    between atoms: N5_19  and  O2_21 
REMARK    7  A    between atoms: N7_29  and  C15_30 
REMARK    8  A    between atoms: C15_30  and  C16_31 
REMARK    9  A    between atoms: C16_31  and  C17_32 
REMARK   10  A    between atoms: C17_32  and  C18_33 
REMARK   11  A    between atoms: N8_38  and  O3_40 
ROOT
HETATM    1  C5  UNL     1      42.040  -2.144  29.721  1.00  0.00     0.096 C 
HETATM    2  C6  UNL     1      41.539  -0.688  29.726  1.00  0.00     0.019 C 
HETATM    3  C7  UNL     1      40.581  -0.622  30.893  1.00  0.00     0.048 C 
HETATM    4  C8  UNL     1      39.525  -1.645  30.794  1.00  0.00     0.202 C 
HETATM    5  N7  UNL     1      39.674  -2.646  29.756  1.00  0.00    -0.347 N 
HETATM    6  C23 UNL     1      40.896  -2.916  29.072  1.00  0.00     0.140 C 
ENDROOT
BRANCH   4   7
HETATM    7  N4  UNL     1      39.356  -2.254  32.112  1.00  0.00    -0.203 N 
HETATM    8  C9  UNL     1      38.478  -1.636  33.031  1.00  0.00     0.697 C 
HETATM    9  N5  UNL     1      38.828  -1.174  34.183  1.00  0.00    -0.099 N 
HETATM   10  N6  UNL     1      37.094  -1.500  32.681  1.00  0.00    -0.216 N 
ATOM     11  H5  UNL     1      38.103  -0.749  34.761  1.00  0.00     0.213 HD
HETATM   12  C10 UNL     1      36.562  -0.153  32.593  1.00  0.00     0.141 C 
HETATM   13  C14 UNL     1      36.257  -2.632  32.426  1.00  0.00     0.141 C 
HETATM   14  C11 UNL     1      35.343  -0.108  33.505  1.00  0.00     0.020 C 
HETATM   15  C12 UNL     1      34.345  -1.091  32.968  1.00  0.00     0.003 C 
HETATM   16  C13 UNL     1      34.845  -2.484  32.870  1.00  0.00     0.020 C 
ATOM     17  H4  UNL     1      39.860  -3.104  32.363  1.00  0.00     0.180 HD
BRANCH   9  18
HETATM   18  O2  UNL     1      40.085  -1.212  34.684  1.00  0.00    -0.276 OA
ATOM     19  H2  UNL     1      40.574  -0.455  34.986  1.00  0.00     0.245 HD
ENDBRANCH   9  18
ENDBRANCH   4   7
BRANCH   5  20
HETATM   20  C15 UNL     1      38.507  -3.371  29.443  1.00  0.00     0.101 C 
HETATM   21  N8  UNL     1      38.295  -4.486  30.061  1.00  0.00    -0.257 N 
ATOM     22  H8  UNL     1      38.990  -4.780  30.748  1.00  0.00     0.195 HD
BRANCH  20  23
HETATM   23  C16 UNL     1      37.513  -2.945  28.457  1.00  0.00     0.078 C 
BRANCH  23  24
HETATM   24  C17 UNL     1      36.644  -1.858  28.973  1.00  0.00     0.012 C 
BRANCH  24  25
HETATM   25  C18 UNL     1      35.267  -1.848  28.346  1.00  0.00    -0.014 C 
HETATM   26  C19 UNL     1      35.034  -0.721  27.409  1.00  0.00     0.004 C 
HETATM   27  C20 UNL     1      33.758  -1.149  26.679  1.00  0.00     0.000 C 
HETATM   28  C21 UNL     1      33.683  -2.645  26.809  1.00  0.00     0.000 C 
HETATM   29  C22 UNL     1      34.946  -3.073  27.566  1.00  0.00     0.004 C 
ENDBRANCH  24  25
ENDBRANCH  23  24
ENDBRANCH  20  23
BRANCH  21  30
HETATM   30  O3  UNL     1      37.228  -5.294  29.873  1.00  0.00    -0.288 OA
ATOM     31  H3  UNL     1      36.994  -6.033  30.422  1.00  0.00     0.244 HD
ENDBRANCH  21  30
ENDBRANCH   5  20
BRANCH   1  32
HETATM   32  C4  UNL     1      43.288  -2.282  28.993  1.00  0.00     0.223 C 
HETATM   33  N3  UNL     1      43.595  -1.409  27.919  1.00  0.00    -0.360 N 
ATOM     34  H3  UNL     1      42.918  -0.686  27.676  1.00  0.00     0.162 HD
HETATM   35  O1  UNL     1      44.111  -3.170  29.297  1.00  0.00    -0.273 OA
BRANCH  33  36
HETATM   36  C3  UNL     1      44.811  -1.489  27.156  1.00  0.00     0.129 C 
BRANCH  36  37
HETATM   37  C2  UNL     1      44.475  -1.490  25.684  1.00  0.00     0.092 C 
BRANCH  37  38
HETATM   38  C1  UNL     1      44.394  -2.872  25.164  1.00  0.00     0.088 C 
HETATM   39  N1  UNL     1      44.902  -3.154  24.014  1.00  0.00    -0.391 N 
ATOM     40  H12 UNL     1      44.846  -4.107  23.655  1.00  0.00     0.157 HD
ATOM     41  H11 UNL     1      45.361  -2.435  23.454  1.00  0.00     0.157 HD
HETATM   42  N2  UNL     1      43.758  -3.867  25.939  1.00  0.00    -0.088 NA
ENDBRANCH  37  38
ENDBRANCH  36  37
ENDBRANCH  33  36
ENDBRANCH   1  32
TORSDOF 11
ENDMDL
MODEL 3
REMARK VINA RESULT: -7.872354798      0.853      1.140
REMARK  11 active torsions:
REMARK  status: ('A' for Active; 'I' for Inactive)
REMARK    1  A    between atoms: C1_4  and  C2_6 
REMARK    2  A    between atoms: C2_6  and  C3_7 
REMARK    3  A    between atoms: C3_7  and  N3_8 
REMARK       I    between atoms: N3_8  and  C4_10 
REMARK    4  A    between atoms: C4_10  and  C5_12 
REMARK    5  A    between atoms: C8_15  and  N4_16 
REMARK       I    between atoms: N4_16  and  C9_18 
REMARK       I    between atoms: C9_18  and  N6_23 
REMARK    6  A    between atoms: N5_19  and  O2_21 
REMARK    7  A    between atoms: N7_29  and  C15_30 
REMARK    8  A    between atoms: C15_30  and  C16_31 
REMARK    9  A    between atoms: C16_31  and  C17_32 
REMARK   10  A    between atoms: C17_32  and  C18_33 
REMARK   11  A    between atoms: N8_38  and  O3_40 
ROOT
HETATM    1  C5  UNL     1      42.226  -2.155  29.824  1.00  0.00     0.096 C 
HETATM    2  C6  UNL     1      41.456  -0.858  29.514  1.00  0.00     0.019 C 
HETATM    3  C7  UNL     1      40.594  -0.628  30.734  1.00  0.00     0.048 C 
HETATM    4  C8  UNL     1      39.751  -1.798  31.037  1.00  0.00     0.202 C 
HETATM    5  N7  UNL     1      40.010  -3.009  30.284  1.00  0.00    -0.347 N 
HETATM    6  C23 UNL     1      41.205  -3.254  29.546  1.00  0.00     0.140 C 
ENDROOT
BRANCH   4   7
HETATM    7  N4  UNL     1      39.802  -2.036  32.478  1.00  0.00    -0.203 N 
HETATM    8  C9  UNL     1      39.529  -0.956  33.348  1.00  0.00     0.697 C 
HETATM    9  N5  UNL     1      40.359  -0.484  34.214  1.00  0.00    -0.099 N 
HETATM   10  N6  UNL     1      38.244  -0.323  33.283  1.00  0.00    -0.216 N 
ATOM     11  H5  UNL     1      40.048   0.300  34.788  1.00  0.00     0.213 HD
HETATM   12  C10 UNL     1      38.215   1.084  32.929  1.00  0.00     0.141 C 
HETATM   13  C14 UNL     1      37.030  -1.031  33.552  1.00  0.00     0.141 C 
HETATM   14  C11 UNL     1      37.440   1.793  34.032  1.00  0.00     0.020 C 
HETATM   15  C12 UNL     1      36.047   1.234  34.030  1.00  0.00     0.003 C 
HETATM   16  C13 UNL     1      35.973  -0.234  34.231  1.00  0.00     0.020 C 
ATOM     17  H4  UNL     1      40.029  -2.958  32.847  1.00  0.00     0.180 HD
BRANCH   9  18
HETATM   18  O2  UNL     1      41.614  -0.950  34.419  1.00  0.00    -0.276 OA
ATOM     19  H2  UNL     1      41.946  -1.271  35.250  1.00  0.00     0.245 HD
ENDBRANCH   9  18
ENDBRANCH   4   7
BRANCH   5  20
HETATM   20  C15 UNL     1      38.984  -3.974  30.317  1.00  0.00     0.101 C 
HETATM   21  N8  UNL     1      39.291  -5.183  30.657  1.00  0.00    -0.257 N 
ATOM     22  H8  UNL     1      40.268  -5.371  30.884  1.00  0.00     0.195 HD
BRANCH  20  23
HETATM   23  C16 UNL     1      37.584  -3.699  29.991  1.00  0.00     0.078 C 
BRANCH  23  24
HETATM   24  C17 UNL     1      37.442  -2.956  28.715  1.00  0.00     0.012 C 
BRANCH  24  25
HETATM   25  C18 UNL     1      36.502  -1.775  28.813  1.00  0.00    -0.014 C 
HETATM   26  C19 UNL     1      35.384  -1.805  27.837  1.00  0.00     0.004 C 
HETATM   27  C20 UNL     1      34.432  -0.738  28.383  1.00  0.00     0.000 C 
HETATM   28  C21 UNL     1      34.753  -0.598  29.845  1.00  0.00     0.000 C 
HETATM   29  C22 UNL     1      35.850  -1.627  30.143  1.00  0.00     0.004 C 
ENDBRANCH  24  25
ENDBRANCH  23  24
ENDBRANCH  20  23
BRANCH  21  30
HETATM   30  O3  UNL     1      38.425  -6.218  30.736  1.00  0.00    -0.288 OA
ATOM     31  H3  UNL     1      38.649  -7.133  30.613  1.00  0.00     0.244 HD
ENDBRANCH  21  30
ENDBRANCH   5  20
BRANCH   1  32
HETATM   32  C4  UNL     1      43.418  -2.283  29.006  1.00  0.00     0.223 C 
HETATM   33  N3  UNL     1      43.703  -1.331  27.996  1.00  0.00    -0.360 N 
ATOM     34  H3  UNL     1      43.050  -0.559  27.862  1.00  0.00     0.162 HD
HETATM   35  O1  UNL     1      44.212  -3.231  29.177  1.00  0.00    -0.273 OA
BRANCH  33  36
HETATM   36  C3  UNL     1      44.864  -1.397  27.150  1.00  0.00     0.129 C 
BRANCH  36  37
HETATM   37  C2  UNL     1      44.430  -1.371  25.705  1.00  0.00     0.092 C 
BRANCH  37  38
HETATM   38  C1  UNL     1      44.401  -2.737  25.140  1.00  0.00     0.088 C 
HETATM   39  N1  UNL     1      44.925  -2.963  23.984  1.00  0.00    -0.391 N 
ATOM     40  H12 UNL     1      44.905  -3.905  23.594  1.00  0.00     0.157 HD
ATOM     41  H11 UNL     1      45.361  -2.210  23.451  1.00  0.00     0.157 HD
HETATM   42  N2  UNL     1      43.797  -3.779  25.877  1.00  0.00    -0.088 NA
ENDBRANCH  37  38
ENDBRANCH  36  37
ENDBRANCH  33  36
ENDBRANCH   1  32
TORSDOF 11
ENDMDL
MODEL 4
REMARK VINA RESULT: -7.560770301      1.189      1.537
REMARK  11 active torsions:
REMARK  status: ('A' for Active; 'I' for Inactive)
REMARK    1  A    between atoms: C1_4  and  C2_6 
REMARK    2  A    between atoms: C2_6  and  C3_7 
REMARK    3  A    between atoms: C3_7  and  N3_8 
REMARK       I    between atoms: N3_8  and  C4_10 
REMARK    4  A    between atoms: C4_10  and  C5_12 
REMARK    5  A    between atoms: C8_15  and  N4_16 
REMARK       I    between atoms: N4_16  and  C9_18 
REMARK       I    between atoms: C9_18  and  N6_23 
REMARK    6  A    between atoms: N5_19  and  O2_21 
REMARK    7  A    between atoms: N7_29  and  C15_30 
REMARK    8  A    between atoms: C15_30  and  C16_31 
REMARK    9  A    between atoms: C16_31  and  C17_32 
REMARK   10  A    between atoms: C17_32  and  C18_33 
REMARK   11  A    between atoms: N8_38  and  O3_40 
ROOT
HETATM    1  C5  UNL     1      42.383  -2.929  29.572  1.00  0.00     0.096 C 
HETATM    2  C6  UNL     1      42.026  -1.494  29.144  1.00  0.00     0.019 C 
HETATM    3  C7  UNL     1      41.394  -0.880  30.372  1.00  0.00     0.048 C 
HETATM    4  C8  UNL     1      40.262  -1.684  30.866  1.00  0.00     0.202 C 
HETATM    5  N7  UNL     1      40.064  -2.985  30.258  1.00  0.00    -0.347 N 
HETATM    6  C23 UNL     1      41.052  -3.671  29.491  1.00  0.00     0.140 C 
ENDROOT
BRANCH   4   7
HETATM    7  N4  UNL     1      40.371  -1.778  32.321  1.00  0.00    -0.203 N 
HETATM    8  C9  UNL     1      39.943  -0.679  33.099  1.00  0.00     0.697 C 
HETATM    9  N5  UNL     1      40.700  -0.006  33.896  1.00  0.00    -0.099 N 
HETATM   10  N6  UNL     1      38.572  -0.263  33.015  1.00  0.00    -0.216 N 
ATOM     11  H5  UNL     1      40.276   0.769  34.408  1.00  0.00     0.213 HD
HETATM   12  C10 UNL     1      38.316   1.083  32.539  1.00  0.00     0.141 C 
HETATM   13  C14 UNL     1      37.490  -1.125  33.380  1.00  0.00     0.141 C 
HETATM   14  C11 UNL     1      37.454   1.760  33.597  1.00  0.00     0.020 C 
HETATM   15  C12 UNL     1      36.168   0.993  33.683  1.00  0.00     0.003 C 
HETATM   16  C13 UNL     1      36.330  -0.444  34.015  1.00  0.00     0.020 C 
ATOM     17  H4  UNL     1      40.746  -2.616  32.763  1.00  0.00     0.180 HD
BRANCH   9  18
HETATM   18  O2  UNL     1      42.015  -0.249  34.106  1.00  0.00    -0.276 OA
ATOM     19  H2  UNL     1      42.385  -0.579  34.917  1.00  0.00     0.245 HD
ENDBRANCH   9  18
ENDBRANCH   4   7
BRANCH   5  20
HETATM   20  C15 UNL     1      38.798  -3.566  30.470  1.00  0.00     0.101 C 
HETATM   21  N8  UNL     1      38.740  -4.692  31.101  1.00  0.00    -0.257 N 
ATOM     22  H8  UNL     1      39.621  -5.100  31.414  1.00  0.00     0.195 HD
BRANCH  20  23
HETATM   23  C16 UNL     1      37.537  -2.977  30.020  1.00  0.00     0.078 C 
BRANCH  23  24
HETATM   24  C17 UNL     1      37.008  -3.646  28.804  1.00  0.00     0.012 C 
BRANCH  24  25
HETATM   25  C18 UNL     1      36.192  -2.725  27.925  1.00  0.00    -0.014 C 
HETATM   26  C19 UNL     1      34.837  -3.237  27.601  1.00  0.00     0.004 C 
HETATM   27  C20 UNL     1      34.135  -1.999  27.036  1.00  0.00     0.000 C 
HETATM   28  C21 UNL     1      34.877  -0.811  27.582  1.00  0.00     0.000 C 
HETATM   29  C22 UNL     1      35.966  -1.373  28.504  1.00  0.00     0.004 C 
ENDBRANCH  24  25
ENDBRANCH  23  24
ENDBRANCH  20  23
BRANCH  21  30
HETATM   30  O3  UNL     1      37.606  -5.374  31.382  1.00  0.00    -0.288 OA
ATOM     31  H3  UNL     1      37.234  -5.489  32.249  1.00  0.00     0.244 HD
ENDBRANCH  21  30
ENDBRANCH   5  20
BRANCH   1  32
HETATM   32  C4  UNL     1      43.396  -3.512  28.711  1.00  0.00     0.223 C 
HETATM   33  N3  UNL     1      43.284  -3.418  27.301  1.00  0.00    -0.360 N 
ATOM     34  H3  UNL     1      42.475  -2.933  26.913  1.00  0.00     0.162 HD
HETATM   35  O1  UNL     1      44.383  -4.104  29.195  1.00  0.00    -0.273 OA
BRANCH  33  36
HETATM   36  C3  UNL     1      44.250  -3.972  26.391  1.00  0.00     0.129 C 
BRANCH  36  37
HETATM   37  C2  UNL     1      44.239  -3.175  25.109  1.00  0.00     0.092 C 
BRANCH  37  38
HETATM   38  C1  UNL     1      44.605  -1.765  25.364  1.00  0.00     0.088 C 
HETATM   39  N1  UNL     1      44.225  -0.847  24.542  1.00  0.00    -0.391 N 
ATOM     40  H12 UNL     1      44.478   0.126  24.717  1.00  0.00     0.157 HD
ATOM     41  H11 UNL     1      43.674  -1.079  23.716  1.00  0.00     0.157 HD
HETATM   42  N2  UNL     1      45.368  -1.442  26.508  1.00  0.00    -0.088 NA
ENDBRANCH  37  38
ENDBRANCH  36  37
ENDBRANCH  33  36
ENDBRANCH   1  32
TORSDOF 11
ENDMDL
MODEL 5
REMARK VINA RESULT: -7.548753928      4.021      6.373
REMARK  11 active torsions:
REMARK  status: ('A' for Active; 'I' for Inactive)
REMARK    1  A    between atoms: C1_4  and  C2_6 
REMARK    2  A    between atoms: C2_6  and  C3_7 
REMARK    3  A    between atoms: C3_7  and  N3_8 
REMARK       I    between atoms: N3_8  and  C4_10 
REMARK    4  A    between atoms: C4_10  and  C5_12 
REMARK    5  A    between atoms: C8_15  and  N4_16 
REMARK       I    between atoms: N4_16  and  C9_18 
REMARK       I    between atoms: C9_18  and  N6_23 
REMARK    6  A    between atoms: N5_19  and  O2_21 
REMARK    7  A    between atoms: N7_29  and  C15_30 
REMARK    8  A    between atoms: C15_30  and  C16_31 
REMARK    9  A    between atoms: C16_31  and  C17_32 
REMARK   10  A    between atoms: C17_32  and  C18_33 
REMARK   11  A    between atoms: N8_38  and  O3_40 
ROOT
HETATM    1  C5  UNL     1      43.038  -6.269  31.642  1.00  0.00     0.096 C 
HETATM    2  C6  UNL     1      42.429  -5.181  32.546  1.00  0.00     0.019 C 
HETATM    3  C7  UNL     1      41.066  -4.914  31.952  1.00  0.00     0.048 C 
HETATM    4  C8  UNL     1      41.149  -4.564  30.523  1.00  0.00     0.202 C 
HETATM    5  N7  UNL     1      42.440  -4.722  29.881  1.00  0.00    -0.347 N 
HETATM    6  C23 UNL     1      43.512  -5.494  30.416  1.00  0.00     0.140 C 
ENDROOT
BRANCH   4   7
HETATM    7  N4  UNL     1      40.099  -5.292  29.813  1.00  0.00    -0.203 N 
HETATM    8  C9  UNL     1      38.756  -5.071  30.189  1.00  0.00     0.697 C 
HETATM    9  N5  UNL     1      37.960  -5.981  30.638  1.00  0.00    -0.099 N 
HETATM   10  N6  UNL     1      38.213  -3.748  30.072  1.00  0.00    -0.216 N 
ATOM     11  H5  UNL     1      37.009  -5.700  30.877  1.00  0.00     0.213 HD
HETATM   12  C10 UNL     1      37.752  -3.110  31.291  1.00  0.00     0.141 C 
HETATM   13  C14 UNL     1      38.121  -3.069  28.816  1.00  0.00     0.141 C 
HETATM   14  C11 UNL     1      36.312  -2.685  31.040  1.00  0.00     0.020 C 
HETATM   15  C12 UNL     1      36.328  -1.692  29.916  1.00  0.00     0.003 C 
HETATM   16  C13 UNL     1      36.926  -2.199  28.656  1.00  0.00     0.020 C 
ATOM     17  H4  UNL     1      40.331  -5.944  29.064  1.00  0.00     0.180 HD
BRANCH   9  18
HETATM   18  O2  UNL     1      38.292  -7.281  30.817  1.00  0.00    -0.276 OA
ATOM     19  H2  UNL     1      37.920  -8.010  30.333  1.00  0.00     0.245 HD
ENDBRANCH   9  18
ENDBRANCH   4   7
BRANCH   5  20
HETATM   20  C15 UNL     1      42.590  -4.050  28.651  1.00  0.00     0.101 C 
HETATM   21  N8  UNL     1      42.996  -4.729  27.629  1.00  0.00    -0.257 N 
ATOM     22  H8  UNL     1      43.185  -5.721  27.771  1.00  0.00     0.195 HD
BRANCH  20  23
HETATM   23  C16 UNL     1      42.318  -2.626  28.453  1.00  0.00     0.078 C 
BRANCH  23  24
HETATM   24  C17 UNL     1      43.190  -1.767  29.291  1.00  0.00     0.012 C 
BRANCH  24  25
HETATM   25  C18 UNL     1      42.436  -1.027  30.374  1.00  0.00    -0.014 C 
HETATM   26  C19 UNL     1      40.960  -1.071  30.225  1.00  0.00     0.004 C 
HETATM   27  C20 UNL     1      40.469  -0.583  31.591  1.00  0.00     0.000 C 
HETATM   28  C21 UNL     1      41.592  -0.842  32.556  1.00  0.00     0.000 C 
HETATM   29  C22 UNL     1      42.701  -1.529  31.750  1.00  0.00     0.004 C 
ENDBRANCH  24  25
ENDBRANCH  23  24
ENDBRANCH  20  23
BRANCH  21  30
HETATM   30  O3  UNL     1      43.190  -4.231  26.387  1.00  0.00    -0.288 OA
ATOM     31  H3  UNL     1      43.240  -4.747  25.590  1.00  0.00     0.244 HD
ENDBRANCH  21  30
ENDBRANCH   5  20
BRANCH   1  32
HETATM   32  C4  UNL     1      44.117  -6.978  32.303  1.00  0.00     0.223 C 
HETATM   33  N3  UNL     1      45.382  -7.109  31.677  1.00  0.00    -0.360 N 
ATOM     34  H3  UNL     1      45.510  -6.693  30.755  1.00  0.00     0.162 HD
HETATM   35  O1  UNL     1      43.953  -7.484  33.432  1.00  0.00    -0.273 OA
BRANCH  33  36
HETATM   36  C3  UNL     1      46.495  -7.798  32.275  1.00  0.00     0.129 C 
BRANCH  36  37
HETATM   37  C2  UNL     1      46.381  -9.274  31.982  1.00  0.00     0.092 C 
BRANCH  37  38
HETATM   38  C1  UNL     1      46.239  -9.513  30.529  1.00  0.00     0.088 C 
HETATM   39  N1  UNL     1      47.292  -9.608  29.791  1.00  0.00    -0.391 N 
ATOM     40  H12 UNL     1      47.194  -9.772  28.789  1.00  0.00     0.157 HD
ATOM     41  H11 UNL     1      48.224  -9.520  30.194  1.00  0.00     0.157 HD
HETATM   42  N2  UNL     1      44.948  -9.634  29.970  1.00  0.00    -0.088 NA
ENDBRANCH  37  38
ENDBRANCH  36  37
ENDBRANCH  33  36
ENDBRANCH   1  32
TORSDOF 11
ENDMDL
