MODEL 1
REMARK VINA RESULT: -7.205701069      0.000      0.000
REMARK  9 active torsions:
REMARK  status: ('A' for Active; 'I' for Inactive)
REMARK    1  A    between atoms: C2_2  and  C4_4 
REMARK    2  A    between atoms: C4_4  and  C5_5 
REMARK    3  A    between atoms: C5_5  and  N1_6 
REMARK    4  A    between atoms: C5_5  and  C16_25 
REMARK       I    between atoms: N1_6  and  C6_8 
REMARK    5  A    between atoms: C6_8  and  C7_10 
REMARK       I    between atoms: C7_10  and  N2_12 
REMARK    6  A    between atoms: N2_12  and  C8_14 
REMARK       I    between atoms: C16_25  and  N4_27 
REMARK    7  A    between atoms: N4_27  and  C17_29 
REMARK    8  A    between atoms: C17_29  and  C18_30 
REMARK    9  A    between atoms: C17_29  and  C19_33 
ROOT
HETATM    1  C5  UNL     1      42.830  -1.984  29.609  1.00  0.00     0.177 C 
ENDROOT
BRANCH   1   2
HETATM    2  C4  UNL     1      43.925  -2.351  28.691  1.00  0.00     0.038 C 
BRANCH   2   3
HETATM    3  C2  UNL     1      43.718  -2.232  27.237  1.00  0.00    -0.020 C 
HETATM    4  C1  UNL     1      43.817  -3.667  26.674  1.00  0.00     0.009 C 
HETATM    5  C3  UNL     1      44.684  -1.416  26.464  1.00  0.00     0.009 C 
ENDBRANCH   2   3
ENDBRANCH   1   2
BRANCH   1   6
HETATM    6  N1  UNL     1      41.595  -2.681  29.466  1.00  0.00    -0.340 N 
HETATM    7  C6  UNL     1      40.316  -2.119  29.815  1.00  0.00     0.310 C 
HETATM    8  O1  UNL     1      40.309  -0.943  30.277  1.00  0.00    -0.262 OA
ATOM      9  H1  UNL     1      41.618  -3.631  29.096  1.00  0.00     0.163 HD
BRANCH   7  10
HETATM   10  C7  UNL     1      39.077  -2.825  29.665  1.00  0.00     0.309 C 
HETATM   11  O2  UNL     1      39.089  -4.078  29.621  1.00  0.00    -0.262 OA
HETATM   12  N2  UNL     1      37.827  -2.163  29.564  1.00  0.00    -0.346 N 
ATOM     13  H2  UNL     1      37.797  -1.144  29.600  1.00  0.00     0.163 HD
BRANCH  12  14
HETATM   14  C8  UNL     1      36.585  -2.908  29.411  1.00  0.00     0.122 C 
HETATM   15  C9  UNL     1      36.097  -2.977  28.002  1.00  0.00     0.065 C 
HETATM   16  C10 UNL     1      34.844  -2.162  27.990  1.00  0.00     0.121 C 
HETATM   17  C11 UNL     1      33.860  -2.793  27.020  1.00  0.00     0.046 C 
HETATM   18  C12 UNL     1      35.134  -0.755  27.597  1.00  0.00     0.046 C 
HETATM   19  N3  UNL     1      34.333  -2.176  29.345  1.00  0.00    -0.057 N 
HETATM   20  C13 UNL     1      35.458  -2.293  30.213  1.00  0.00     0.139 C 
ATOM     21  H32 UNL     1      33.744  -1.372  29.559  1.00  0.00     0.279 HD
ATOM     22  H31 UNL     1      33.629  -2.898  29.502  1.00  0.00     0.279 HD
HETATM   23  C14 UNL     1      35.817  -0.941  30.754  1.00  0.00     0.048 C 
HETATM   24  C15 UNL     1      35.045  -3.205  31.374  1.00  0.00     0.048 C 
ENDBRANCH  12  14
ENDBRANCH   7  10
ENDBRANCH   1   6
BRANCH   1  25
HETATM   25  C16 UNL     1      43.219  -1.886  31.051  1.00  0.00     0.241 C 
HETATM   26  O3  UNL     1      43.383  -2.973  31.647  1.00  0.00    -0.271 OA
HETATM   27  N4  UNL     1      43.399  -0.682  31.741  1.00  0.00    -0.344 N 
ATOM     28  H4  UNL     1      43.257   0.158  31.180  1.00  0.00     0.163 HD
BRANCH  27  29
HETATM   29  C17 UNL     1      43.746  -0.444  33.089  1.00  0.00     0.189 C 
BRANCH  29  30
HETATM   30  C18 UNL     1      44.780   0.640  33.238  1.00  0.00     0.197 C 
HETATM   31  O4  UNL     1      45.989   0.460  32.980  1.00  0.00    -0.646 OA
HETATM   32  O5  UNL     1      44.428   1.910  33.677  1.00  0.00    -0.646 OA
ENDBRANCH  29  30
BRANCH  29  33
HETATM   33  C19 UNL     1      42.681  -0.209  34.081  1.00  0.00     0.019 C 
HETATM   34  C20 UNL     1      42.983  -0.722  35.474  1.00  0.00     0.007 C 
HETATM   35  C21 UNL     1      41.684  -0.718  36.286  1.00  0.00     0.000 C 
HETATM   36  C22 UNL     1      40.929   0.561  35.899  1.00  0.00     0.000 C 
HETATM   37  C23 UNL     1      40.342   0.301  34.535  1.00  0.00     0.000 C 
HETATM   38  C24 UNL     1      41.294  -0.589  33.715  1.00  0.00     0.007 C 
ENDBRANCH  29  33
ENDBRANCH  27  29
ENDBRANCH   1  25
TORSDOF 9
ENDMDL
MODEL 2
REMARK VINA RESULT: -7.191282307      2.750      8.699
REMARK  9 active torsions:
REMARK  status: ('A' for Active; 'I' for Inactive)
REMARK    1  A    between atoms: C2_2  and  C4_4 
REMARK    2  A    between atoms: C4_4  and  C5_5 
REMARK    3  A    between atoms: C5_5  and  N1_6 
REMARK    4  A    between atoms: C5_5  and  C16_25 
REMARK       I    between atoms: N1_6  and  C6_8 
REMARK    5  A    between atoms: C6_8  and  C7_10 
REMARK       I    between atoms: C7_10  and  N2_12 
REMARK    6  A    between atoms: N2_12  and  C8_14 
REMARK       I    between atoms: C16_25  and  N4_27 
REMARK    7  A    between atoms: N4_27  and  C17_29 
REMARK    8  A    between atoms: C17_29  and  C18_30 
REMARK    9  A    between atoms: C17_29  and  C19_33 
ROOT
HETATM    1  C5  UNL     1      42.200  -1.454  30.507  1.00  0.00     0.177 C 
ENDROOT
BRANCH   1   2
HETATM    2  C4  UNL     1      42.428  -1.783  29.087  1.00  0.00     0.038 C 
BRANCH   2   3
HETATM    3  C2  UNL     1      43.739  -2.311  28.671  1.00  0.00    -0.020 C 
HETATM    4  C1  UNL     1      44.183  -1.450  27.467  1.00  0.00     0.009 C 
HETATM    5  C3  UNL     1      43.807  -3.721  28.219  1.00  0.00     0.009 C 
ENDBRANCH   2   3
ENDBRANCH   1   2
BRANCH   1   6
HETATM    6  N1  UNL     1      43.209  -0.701  31.175  1.00  0.00    -0.340 N 
HETATM    7  C6  UNL     1      43.549  -0.877  32.563  1.00  0.00     0.310 C 
HETATM    8  O1  UNL     1      42.904  -1.750  33.209  1.00  0.00    -0.262 OA
ATOM      9  H1  UNL     1      43.718   0.003  30.640  1.00  0.00     0.163 HD
BRANCH   7  10
HETATM   10  C7  UNL     1      44.569  -0.118  33.227  1.00  0.00     0.309 C 
HETATM   11  O2  UNL     1      45.470   0.424  32.544  1.00  0.00    -0.262 OA
HETATM   12  N2  UNL     1      44.603   0.049  34.635  1.00  0.00    -0.346 N 
ATOM     13  H2  UNL     1      43.877  -0.383  35.207  1.00  0.00     0.163 HD
BRANCH  12  14
HETATM   14  C8  UNL     1      45.652   0.824  35.281  1.00  0.00     0.122 C 
HETATM   15  C9  UNL     1      46.820   0.005  35.721  1.00  0.00     0.065 C 
HETATM   16  C10 UNL     1      46.776   0.046  37.215  1.00  0.00     0.121 C 
HETATM   17  C11 UNL     1      48.199   0.052  37.745  1.00  0.00     0.046 C 
HETATM   18  C12 UNL     1      46.023  -1.121  37.752  1.00  0.00     0.046 C 
HETATM   19  N3  UNL     1      46.074   1.262  37.571  1.00  0.00    -0.057 N 
HETATM   20  C13 UNL     1      45.147   1.530  36.521  1.00  0.00     0.139 C 
ATOM     21  H32 UNL     1      45.636   1.217  38.491  1.00  0.00     0.279 HD
ATOM     22  H31 UNL     1      46.699   2.045  37.763  1.00  0.00     0.279 HD
HETATM   23  C14 UNL     1      43.781   1.060  36.927  1.00  0.00     0.048 C 
HETATM   24  C15 UNL     1      45.116   3.050  36.318  1.00  0.00     0.048 C 
ENDBRANCH  12  14
ENDBRANCH   7  10
ENDBRANCH   1   6
BRANCH   1  25
HETATM   25  C16 UNL     1      40.839  -0.912  30.820  1.00  0.00     0.241 C 
HETATM   26  O3  UNL     1      40.460   0.049  30.116  1.00  0.00    -0.271 OA
HETATM   27  N4  UNL     1      40.004  -1.408  31.826  1.00  0.00    -0.344 N 
ATOM     28  H4  UNL     1      40.383  -2.199  32.346  1.00  0.00     0.163 HD
BRANCH  27  29
HETATM   29  C17 UNL     1      38.719  -0.989  32.236  1.00  0.00     0.189 C 
BRANCH  29  30
HETATM   30  C18 UNL     1      38.708   0.425  32.754  1.00  0.00     0.197 C 
HETATM   31  O4  UNL     1      38.183   1.369  32.128  1.00  0.00    -0.646 OA
HETATM   32  O5  UNL     1      39.295   0.745  33.972  1.00  0.00    -0.646 OA
ENDBRANCH  29  30
BRANCH  29  33
HETATM   33  C19 UNL     1      37.575  -1.156  31.321  1.00  0.00     0.019 C 
HETATM   34  C20 UNL     1      36.220  -1.200  31.996  1.00  0.00     0.007 C 
HETATM   35  C21 UNL     1      35.189  -1.712  30.985  1.00  0.00     0.000 C 
HETATM   36  C22 UNL     1      35.546  -1.076  29.635  1.00  0.00     0.000 C 
HETATM   37  C23 UNL     1      36.751  -1.825  29.128  1.00  0.00     0.000 C 
HETATM   38  C24 UNL     1      37.647  -2.240  30.309  1.00  0.00     0.007 C 
ENDBRANCH  29  33
ENDBRANCH  27  29
ENDBRANCH   1  25
TORSDOF 9
ENDMDL
MODEL 3
REMARK VINA RESULT: -7.023235173      2.816      8.680
REMARK  9 active torsions:
REMARK  status: ('A' for Active; 'I' for Inactive)
REMARK    1  A    between atoms: C2_2  and  C4_4 
REMARK    2  A    between atoms: C4_4  and  C5_5 
REMARK    3  A    between atoms: C5_5  and  N1_6 
REMARK    4  A    between atoms: C5_5  and  C16_25 
REMARK       I    between atoms: N1_6  and  C6_8 
REMARK    5  A    between atoms: C6_8  and  C7_10 
REMARK       I    between atoms: C7_10  and  N2_12 
REMARK    6  A    between atoms: N2_12  and  C8_14 
REMARK       I    between atoms: C16_25  and  N4_27 
REMARK    7  A    between atoms: N4_27  and  C17_29 
REMARK    8  A    between atoms: C17_29  and  C18_30 
REMARK    9  A    between atoms: C17_29  and  C19_33 
ROOT
HETATM    1  C5  UNL     1      42.608  -2.068  30.785  1.00  0.00     0.177 C 
ENDROOT
BRANCH   1   2
HETATM    2  C4  UNL     1      43.164  -2.928  29.723  1.00  0.00     0.038 C 
BRANCH   2   3
HETATM    3  C2  UNL     1      43.197  -2.431  28.335  1.00  0.00    -0.020 C 
HETATM    4  C1  UNL     1      43.400  -3.675  27.443  1.00  0.00     0.009 C 
HETATM    5  C3  UNL     1      44.267  -1.477  27.966  1.00  0.00     0.009 C 
ENDBRANCH   2   3
ENDBRANCH   1   2
BRANCH   1   6
HETATM    6  N1  UNL     1      43.512  -1.204  31.468  1.00  0.00    -0.340 N 
HETATM    7  C6  UNL     1      43.365  -0.826  32.849  1.00  0.00     0.310 C 
HETATM    8  O1  UNL     1      42.370  -1.293  33.472  1.00  0.00    -0.262 OA
ATOM      9  H1  UNL     1      44.308  -0.832  30.949  1.00  0.00     0.163 HD
BRANCH   7  10
HETATM   10  C7  UNL     1      44.281   0.041  33.532  1.00  0.00     0.309 C 
HETATM   11  O2  UNL     1      44.668   1.090  32.964  1.00  0.00    -0.262 OA
HETATM   12  N2  UNL     1      44.773  -0.237  34.832  1.00  0.00    -0.346 N 
ATOM     13  H2  UNL     1      44.467  -1.085  35.311  1.00  0.00     0.163 HD
BRANCH  12  14
HETATM   14  C8  UNL     1      45.704   0.662  35.499  1.00  0.00     0.122 C 
HETATM   15  C9  UNL     1      46.944  -0.012  35.986  1.00  0.00     0.065 C 
HETATM   16  C10 UNL     1      46.848   0.040  37.477  1.00  0.00     0.121 C 
HETATM   17  C11 UNL     1      48.244   0.216  38.050  1.00  0.00     0.046 C 
HETATM   18  C12 UNL     1      46.219  -1.202  38.008  1.00  0.00     0.046 C 
HETATM   19  N3  UNL     1      45.999   1.170  37.794  1.00  0.00    -0.057 N 
HETATM   20  C13 UNL     1      45.081   1.317  36.713  1.00  0.00     0.139 C 
ATOM     21  H32 UNL     1      45.540   1.084  38.701  1.00  0.00     0.279 HD
ATOM     22  H31 UNL     1      46.523   2.022  37.994  1.00  0.00     0.279 HD
HETATM   23  C14 UNL     1      43.767   0.695  37.084  1.00  0.00     0.048 C 
HETATM   24  C15 UNL     1      44.881   2.820  36.488  1.00  0.00     0.048 C 
ENDBRANCH  12  14
ENDBRANCH   7  10
ENDBRANCH   1   6
BRANCH   1  25
HETATM   25  C16 UNL     1      41.354  -1.338  30.415  1.00  0.00     0.241 C 
HETATM   26  O3  UNL     1      41.510  -0.185  29.953  1.00  0.00    -0.271 OA
HETATM   27  N4  UNL     1      40.065  -1.859  30.558  1.00  0.00    -0.344 N 
ATOM     28  H4  UNL     1      40.025  -2.808  30.931  1.00  0.00     0.163 HD
BRANCH  27  29
HETATM   29  C17 UNL     1      38.808  -1.284  30.268  1.00  0.00     0.189 C 
BRANCH  29  30
HETATM   30  C18 UNL     1      37.882  -2.238  29.563  1.00  0.00     0.197 C 
HETATM   31  O4  UNL     1      38.057  -3.475  29.567  1.00  0.00    -0.646 OA
HETATM   32  O5  UNL     1      36.773  -1.776  28.865  1.00  0.00    -0.646 OA
ENDBRANCH  29  30
BRANCH  29  33
HETATM   33  C19 UNL     1      38.053  -0.613  31.343  1.00  0.00     0.019 C 
HETATM   34  C20 UNL     1      38.733   0.604  31.936  1.00  0.00     0.007 C 
HETATM   35  C21 UNL     1      38.014   0.978  33.236  1.00  0.00     0.000 C 
HETATM   36  C22 UNL     1      36.515   0.768  32.984  1.00  0.00     0.000 C 
HETATM   37  C23 UNL     1      36.291  -0.722  33.022  1.00  0.00     0.000 C 
HETATM   38  C24 UNL     1      37.517  -1.452  32.444  1.00  0.00     0.007 C 
ENDBRANCH  29  33
ENDBRANCH  27  29
ENDBRANCH   1  25
TORSDOF 9
ENDMDL
MODEL 4
REMARK VINA RESULT: -6.996987066      3.193      8.841
REMARK  9 active torsions:
REMARK  status: ('A' for Active; 'I' for Inactive)
REMARK    1  A    between atoms: C2_2  and  C4_4 
REMARK    2  A    between atoms: C4_4  and  C5_5 
REMARK    3  A    between atoms: C5_5  and  N1_6 
REMARK    4  A    between atoms: C5_5  and  C16_25 
REMARK       I    between atoms: N1_6  and  C6_8 
REMARK    5  A    between atoms: C6_8  and  C7_10 
REMARK       I    between atoms: C7_10  and  N2_12 
REMARK    6  A    between atoms: N2_12  and  C8_14 
REMARK       I    between atoms: C16_25  and  N4_27 
REMARK    7  A    between atoms: N4_27  and  C17_29 
REMARK    8  A    between atoms: C17_29  and  C18_30 
REMARK    9  A    between atoms: C17_29  and  C19_33 
ROOT
HETATM    1  C5  UNL     1      40.572  -0.908  30.899  1.00  0.00     0.177 C 
ENDROOT
BRANCH   1   2
HETATM    2  C4  UNL     1      39.210  -0.355  30.768  1.00  0.00     0.038 C 
BRANCH   2   3
HETATM    3  C2  UNL     1      38.375  -0.200  31.972  1.00  0.00    -0.020 C 
HETATM    4  C1  UNL     1      36.968  -0.704  31.582  1.00  0.00     0.009 C 
HETATM    5  C3  UNL     1      38.190   1.165  32.516  1.00  0.00     0.009 C 
ENDBRANCH   2   3
ENDBRANCH   1   2
BRANCH   1   6
HETATM    6  N1  UNL     1      41.120  -0.992  32.212  1.00  0.00    -0.340 N 
HETATM    7  C6  UNL     1      42.492  -0.686  32.525  1.00  0.00     0.310 C 
HETATM    8  O1  UNL     1      43.236  -0.330  31.568  1.00  0.00    -0.262 OA
ATOM      9  H1  UNL     1      40.507  -1.285  32.973  1.00  0.00     0.163 HD
BRANCH   7  10
HETATM   10  C7  UNL     1      43.036  -0.769  33.849  1.00  0.00     0.309 C 
HETATM   11  O2  UNL     1      43.062  -1.879  34.431  1.00  0.00    -0.262 OA
HETATM   12  N2  UNL     1      43.552   0.360  34.535  1.00  0.00    -0.346 N 
ATOM     13  H2  UNL     1      43.542   1.271  34.077  1.00  0.00     0.163 HD
BRANCH  12  14
HETATM   14  C8  UNL     1      44.097   0.245  35.881  1.00  0.00     0.122 C 
HETATM   15  C9  UNL     1      43.414   1.116  36.881  1.00  0.00     0.065 C 
HETATM   16  C10 UNL     1      44.437   2.138  37.261  1.00  0.00     0.121 C 
HETATM   17  C11 UNL     1      44.261   2.483  38.730  1.00  0.00     0.046 C 
HETATM   18  C12 UNL     1      44.301   3.359  36.418  1.00  0.00     0.046 C 
HETATM   19  N3  UNL     1      45.731   1.536  37.010  1.00  0.00    -0.057 N 
HETATM   20  C13 UNL     1      45.562   0.623  35.928  1.00  0.00     0.139 C 
ATOM     21  H32 UNL     1      46.467   2.222  36.846  1.00  0.00     0.279 HD
ATOM     22  H31 UNL     1      46.140   1.104  37.839  1.00  0.00     0.279 HD
HETATM   23  C14 UNL     1      46.025   1.266  34.654  1.00  0.00     0.048 C 
HETATM   24  C15 UNL     1      46.439  -0.599  36.222  1.00  0.00     0.048 C 
ENDBRANCH  12  14
ENDBRANCH   7  10
ENDBRANCH   1   6
BRANCH   1  25
HETATM   25  C16 UNL     1      40.815  -2.176  30.142  1.00  0.00     0.241 C 
HETATM   26  O3  UNL     1      39.890  -3.018  30.176  1.00  0.00    -0.271 OA
HETATM   27  N4  UNL     1      41.983  -2.458  29.427  1.00  0.00    -0.344 N 
ATOM     28  H4  UNL     1      42.683  -1.716  29.440  1.00  0.00     0.163 HD
BRANCH  27  29
HETATM   29  C17 UNL     1      42.350  -3.605  28.689  1.00  0.00     0.189 C 
BRANCH  29  30
HETATM   30  C18 UNL     1      43.418  -3.319  27.667  1.00  0.00     0.197 C 
HETATM   31  O4  UNL     1      43.375  -3.768  26.502  1.00  0.00    -0.646 OA
HETATM   32  O5  UNL     1      44.518  -2.530  27.982  1.00  0.00    -0.646 OA
ENDBRANCH  29  30
BRANCH  29  33
HETATM   33  C19 UNL     1      42.711  -4.842  29.404  1.00  0.00     0.019 C 
HETATM   34  C20 UNL     1      41.622  -5.894  29.448  1.00  0.00     0.007 C 
HETATM   35  C21 UNL     1      42.007  -6.949  30.490  1.00  0.00     0.000 C 
HETATM   36  C22 UNL     1      43.519  -7.168  30.355  1.00  0.00     0.000 C 
HETATM   37  C23 UNL     1      44.171  -5.970  30.996  1.00  0.00     0.000 C 
HETATM   38  C24 UNL     1      43.315  -4.714  30.754  1.00  0.00     0.007 C 
ENDBRANCH  29  33
ENDBRANCH  27  29
ENDBRANCH   1  25
TORSDOF 9
ENDMDL
MODEL 5
REMARK VINA RESULT: -6.919355281      4.993      8.389
REMARK  9 active torsions:
REMARK  status: ('A' for Active; 'I' for Inactive)
REMARK    1  A    between atoms: C2_2  and  C4_4 
REMARK    2  A    between atoms: C4_4  and  C5_5 
REMARK    3  A    between atoms: C5_5  and  N1_6 
REMARK    4  A    between atoms: C5_5  and  C16_25 
REMARK       I    between atoms: N1_6  and  C6_8 
REMARK    5  A    between atoms: C6_8  and  C7_10 
REMARK       I    between atoms: C7_10  and  N2_12 
REMARK    6  A    between atoms: N2_12  and  C8_14 
REMARK       I    between atoms: C16_25  and  N4_27 
REMARK    7  A    between atoms: N4_27  and  C17_29 
REMARK    8  A    between atoms: C17_29  and  C18_30 
REMARK    9  A    between atoms: C17_29  and  C19_33 
ROOT
HETATM    1  C5  UNL     1      42.747  -4.348  29.205  1.00  0.00     0.177 C 
ENDROOT
BRANCH   1   2
HETATM    2  C4  UNL     1      43.883  -3.634  28.592  1.00  0.00     0.038 C 
BRANCH   2   3
HETATM    3  C2  UNL     1      43.653  -2.807  27.394  1.00  0.00    -0.020 C 
HETATM    4  C1  UNL     1      44.159  -3.642  26.197  1.00  0.00     0.009 C 
HETATM    5  C3  UNL     1      44.347  -1.501  27.310  1.00  0.00     0.009 C 
ENDBRANCH   2   3
ENDBRANCH   1   2
BRANCH   1   6
HETATM    6  N1  UNL     1      43.013  -5.617  29.797  1.00  0.00    -0.340 N 
HETATM    7  C6  UNL     1      42.088  -6.720  29.769  1.00  0.00     0.310 C 
HETATM    8  O1  UNL     1      40.982  -6.531  29.187  1.00  0.00    -0.262 OA
ATOM      9  H1  UNL     1      43.908  -5.751  30.266  1.00  0.00     0.163 HD
BRANCH   7  10
HETATM   10  C7  UNL     1      42.364  -7.996  30.363  1.00  0.00     0.309 C 
HETATM   11  O2  UNL     1      41.451  -8.855  30.416  1.00  0.00    -0.262 OA
HETATM   12  N2  UNL     1      43.633  -8.332  30.897  1.00  0.00    -0.346 N 
ATOM     13  H2  UNL     1      44.388  -7.646  30.861  1.00  0.00     0.163 HD
BRANCH  12  14
HETATM   14  C8  UNL     1      43.882  -9.636  31.496  1.00  0.00     0.122 C 
HETATM   15  C9  UNL     1      44.664  -9.574  32.766  1.00  0.00     0.065 C 
HETATM   16  C10 UNL     1      45.980 -10.203  32.437  1.00  0.00     0.121 C 
HETATM   17  C11 UNL     1      46.478 -10.960  33.656  1.00  0.00     0.046 C 
HETATM   18  C12 UNL     1      46.970  -9.169  32.024  1.00  0.00     0.046 C 
HETATM   19  N3  UNL     1      45.740 -11.095  31.321  1.00  0.00    -0.057 N 
HETATM   20  C13 UNL     1      44.665 -10.540  30.568  1.00  0.00     0.139 C 
ATOM     21  H32 UNL     1      46.574 -11.270  30.761  1.00  0.00     0.279 HD
ATOM     22  H31 UNL     1      45.572 -12.060  31.608  1.00  0.00     0.279 HD
HETATM   23  C14 UNL     1      45.213  -9.801  29.383  1.00  0.00     0.048 C 
HETATM   24  C15 UNL     1      43.801 -11.708  30.077  1.00  0.00     0.048 C 
ENDBRANCH  12  14
ENDBRANCH   7  10
ENDBRANCH   1   6
BRANCH   1  25
HETATM   25  C16 UNL     1      41.888  -3.513  30.104  1.00  0.00     0.241 C 
HETATM   26  O3  UNL     1      42.286  -3.396  31.284  1.00  0.00    -0.271 OA
HETATM   27  N4  UNL     1      40.704  -2.885  29.706  1.00  0.00    -0.344 N 
ATOM     28  H4  UNL     1      40.455  -3.021  28.726  1.00  0.00     0.163 HD
BRANCH  27  29
HETATM   29  C17 UNL     1      39.797  -2.091  30.442  1.00  0.00     0.189 C 
BRANCH  29  30
HETATM   30  C18 UNL     1      40.333  -0.714  30.729  1.00  0.00     0.197 C 
HETATM   31  O4  UNL     1      40.420   0.173  29.854  1.00  0.00    -0.646 OA
HETATM   32  O5  UNL     1      40.762  -0.363  32.004  1.00  0.00    -0.646 OA
ENDBRANCH  29  30
BRANCH  29  33
HETATM   33  C19 UNL     1      38.405  -1.959  29.976  1.00  0.00     0.019 C 
HETATM   34  C20 UNL     1      37.458  -1.316  30.968  1.00  0.00     0.007 C 
HETATM   35  C21 UNL     1      36.021  -1.556  30.495  1.00  0.00     0.000 C 
HETATM   36  C22 UNL     1      36.030  -1.400  28.969  1.00  0.00     0.000 C 
HETATM   37  C23 UNL     1      36.659  -2.657  28.426  1.00  0.00     0.000 C 
HETATM   38  C24 UNL     1      37.752  -3.156  29.389  1.00  0.00     0.007 C 
ENDBRANCH  29  33
ENDBRANCH  27  29
ENDBRANCH   1  25
TORSDOF 9
ENDMDL
