MODEL 1
REMARK VINA RESULT: -7.140520555      0.000      0.000
REMARK  9 active torsions:
REMARK  status: ('A' for Active; 'I' for Inactive)
REMARK    1  A    between atoms: C2_2  and  N1_3 
REMARK    2  A    between atoms: C2_2  and  C13_19 
REMARK    3  A    between atoms: N1_3  and  C3_5 
REMARK    4  A    between atoms: C3_5  and  C4_9 
REMARK       I    between atoms: C13_19  and  N3_21 
REMARK    5  A    between atoms: N3_21  and  C14_23 
REMARK    6  A    between atoms: C14_23  and  C15_24 
REMARK    7  A    between atoms: C14_23  and  C19_32 
REMARK    8  A    between atoms: C15_24  and  C16_25 
REMARK       I    between atoms: C19_32  and  N6_34 
REMARK    9  A    between atoms: N6_34  and  C20_36 
ROOT
HETATM    1  C13 UNL     1      39.368  -4.612  31.175  1.00  0.00     0.240 C 
HETATM    2  O1  UNL     1      39.572  -4.408  32.391  1.00  0.00    -0.271 OA
HETATM    3  N3  UNL     1      40.028  -3.838  30.196  1.00  0.00    -0.346 N 
ATOM      4  H3  UNL     1      39.858  -3.998  29.203  1.00  0.00     0.163 HD
ENDROOT
BRANCH   3   5
HETATM    5  C14 UNL     1      40.973  -2.788  30.641  1.00  0.00     0.182 C 
BRANCH   5   6
HETATM    6  C15 UNL     1      40.281  -1.459  30.395  1.00  0.00     0.093 C 
BRANCH   6   7
HETATM    7  C16 UNL     1      39.759  -0.813  31.585  1.00  0.00     0.028 A 
HETATM    8  C17 UNL     1      39.152   0.429  31.667  1.00  0.00     0.114 A 
HETATM    9  N4  UNL     1      38.841   0.613  32.970  1.00  0.00    -0.360 N 
HETATM   10  C18 UNL     1      39.225  -0.452  33.698  1.00  0.00     0.180 A 
ATOM     11  H4  UNL     1      38.382   1.442  33.348  1.00  0.00     0.166 HD
HETATM   12  N5  UNL     1      39.780  -1.307  32.839  1.00  0.00    -0.354 N 
ATOM     13  H5  UNL     1      40.169  -2.214  33.096  1.00  0.00     0.166 HD
ENDBRANCH   6   7
ENDBRANCH   5   6
BRANCH   5  14
HETATM   14  C19 UNL     1      42.191  -2.942  29.824  1.00  0.00     0.241 C 
HETATM   15  O2  UNL     1      43.138  -3.635  30.289  1.00  0.00    -0.271 OA
HETATM   16  N6  UNL     1      42.392  -2.367  28.551  1.00  0.00    -0.353 N 
ATOM     17  H6  UNL     1      41.654  -1.791  28.146  1.00  0.00     0.163 HD
BRANCH  16  18
HETATM   18  C20 UNL     1      43.615  -2.571  27.801  1.00  0.00     0.111 C 
HETATM   19  C21 UNL     1      43.885  -1.309  26.970  1.00  0.00     0.054 C 
HETATM   20  C22 UNL     1      44.734  -1.847  25.861  1.00  0.00     0.234 C 
HETATM   21  N7  UNL     1      44.562  -3.272  25.817  1.00  0.00    -0.073 N 
HETATM   22  C23 UNL     1      43.467  -3.594  26.712  1.00  0.00     0.257 C 
ATOM     23  H72 UNL     1      44.427  -3.631  24.872  1.00  0.00     0.277 HD
ATOM     24  H71 UNL     1      45.417  -3.786  26.029  1.00  0.00     0.277 HD
ENDBRANCH  16  18
ENDBRANCH   5  14
ENDBRANCH   3   5
BRANCH   1  25
HETATM   25  C2  UNL     1      38.406  -5.704  30.805  1.00  0.00     0.171 C 
HETATM   26  C1  UNL     1      38.180  -6.521  32.112  1.00  0.00     0.042 C 
BRANCH  25  27
HETATM   27  N1  UNL     1      37.151  -5.236  30.315  1.00  0.00    -0.367 N 
ATOM     28  H1  UNL     1      36.425  -5.038  31.004  1.00  0.00     0.161 HD
BRANCH  27  29
HETATM   29  C3  UNL     1      36.831  -5.026  28.967  1.00  0.00     0.082 C 
HETATM   30  N2  UNL     1      37.175  -5.909  28.097  1.00  0.00    -0.388 N 
ATOM     31  H22 UNL     1      37.654  -6.751  28.416  1.00  0.00     0.157 HD
ATOM     32  H21 UNL     1      36.942  -5.757  27.116  1.00  0.00     0.157 HD
BRANCH  29  33
HETATM   33  C4  UNL     1      36.119  -3.773  28.495  1.00  0.00     0.109 C 
HETATM   34  C5  UNL     1      36.853  -2.555  28.847  1.00  0.00    -0.012 C 
HETATM   35  C6  UNL     1      36.573  -1.759  30.025  1.00  0.00    -0.007 C 
HETATM   36  C7  UNL     1      35.288  -1.250  30.441  1.00  0.00    -0.027 C 
HETATM   37  C8  UNL     1      34.183  -0.951  29.547  1.00  0.00     0.027 C 
HETATM   38  C9  UNL     1      34.419  -0.747  28.105  1.00  0.00     0.004 C 
HETATM   39  C10 UNL     1      34.242  -1.917  27.219  1.00  0.00     0.003 C 
HETATM   40  C11 UNL     1      33.767  -3.191  27.822  1.00  0.00     0.038 C 
HETATM   41  C12 UNL     1      34.688  -3.926  28.738  1.00  0.00     0.185 C 
HETATM   42  F1  UNL     1      34.395  -5.303  28.536  1.00  0.00    -0.248 F 
ENDBRANCH  29  33
ENDBRANCH  27  29
ENDBRANCH  25  27
ENDBRANCH   1  25
TORSDOF 9
ENDMDL
MODEL 2
REMARK VINA RESULT: -7.057879425      3.426      6.130
REMARK  9 active torsions:
REMARK  status: ('A' for Active; 'I' for Inactive)
REMARK    1  A    between atoms: C2_2  and  N1_3 
REMARK    2  A    between atoms: C2_2  and  C13_19 
REMARK    3  A    between atoms: N1_3  and  C3_5 
REMARK    4  A    between atoms: C3_5  and  C4_9 
REMARK       I    between atoms: C13_19  and  N3_21 
REMARK    5  A    between atoms: N3_21  and  C14_23 
REMARK    6  A    between atoms: C14_23  and  C15_24 
REMARK    7  A    between atoms: C14_23  and  C19_32 
REMARK    8  A    between atoms: C15_24  and  C16_25 
REMARK       I    between atoms: C19_32  and  N6_34 
REMARK    9  A    between atoms: N6_34  and  C20_36 
ROOT
HETATM    1  C13 UNL     1      42.901  -1.834  31.370  1.00  0.00     0.240 C 
HETATM    2  O1  UNL     1      43.641  -1.162  30.620  1.00  0.00    -0.271 OA
HETATM    3  N3  UNL     1      42.678  -3.205  31.117  1.00  0.00    -0.346 N 
ATOM      4  H3  UNL     1      42.068  -3.753  31.724  1.00  0.00     0.163 HD
ENDROOT
BRANCH   3   5
HETATM    5  C14 UNL     1      43.347  -3.830  29.954  1.00  0.00     0.182 C 
BRANCH   5   6
HETATM    6  C15 UNL     1      42.524  -3.455  28.736  1.00  0.00     0.093 C 
BRANCH   6   7
HETATM    7  C16 UNL     1      43.294  -2.976  27.601  1.00  0.00     0.028 A 
HETATM    8  C17 UNL     1      43.737  -3.714  26.518  1.00  0.00     0.114 A 
HETATM    9  N4  UNL     1      44.416  -2.853  25.726  1.00  0.00    -0.360 N 
HETATM   10  C18 UNL     1      44.413  -1.619  26.265  1.00  0.00     0.180 A 
ATOM     11  H4  UNL     1      44.866  -3.103  24.845  1.00  0.00     0.166 HD
HETATM   12  N5  UNL     1      43.726  -1.715  27.404  1.00  0.00    -0.354 N 
ATOM     13  H5  UNL     1      43.552  -0.938  28.041  1.00  0.00     0.166 HD
ENDBRANCH   6   7
ENDBRANCH   5   6
BRANCH   5  14
HETATM   14  C19 UNL     1      43.349  -5.284  30.199  1.00  0.00     0.241 C 
HETATM   15  O2  UNL     1      42.569  -6.006  29.517  1.00  0.00    -0.271 OA
HETATM   16  N6  UNL     1      44.157  -5.946  31.148  1.00  0.00    -0.353 N 
ATOM     17  H6  UNL     1      44.792  -5.396  31.726  1.00  0.00     0.163 HD
BRANCH  16  18
HETATM   18  C20 UNL     1      44.112  -7.384  31.326  1.00  0.00     0.111 C 
HETATM   19  C21 UNL     1      43.400  -7.681  32.654  1.00  0.00     0.054 C 
HETATM   20  C22 UNL     1      43.943  -9.033  32.997  1.00  0.00     0.234 C 
HETATM   21  N7  UNL     1      45.136  -9.245  32.226  1.00  0.00    -0.073 N 
HETATM   22  C23 UNL     1      45.463  -7.980  31.596  1.00  0.00     0.257 C 
ATOM     23  H72 UNL     1      45.906  -9.630  32.775  1.00  0.00     0.277 HD
ATOM     24  H71 UNL     1      45.054 -10.014  31.562  1.00  0.00     0.277 HD
ENDBRANCH  16  18
ENDBRANCH   5  14
ENDBRANCH   3   5
BRANCH   1  25
HETATM   25  C2  UNL     1      42.270  -1.129  32.536  1.00  0.00     0.171 C 
HETATM   26  C1  UNL     1      43.412  -0.295  33.188  1.00  0.00     0.042 C 
BRANCH  25  27
HETATM   27  N1  UNL     1      41.192  -0.265  32.183  1.00  0.00    -0.367 N 
ATOM     28  H1  UNL     1      41.119   0.620  32.687  1.00  0.00     0.161 HD
BRANCH  27  29
HETATM   29  C3  UNL     1      40.226  -0.527  31.204  1.00  0.00     0.082 C 
HETATM   30  N2  UNL     1      40.491  -0.256  29.974  1.00  0.00    -0.388 N 
ATOM     31  H22 UNL     1      41.408   0.125  29.743  1.00  0.00     0.157 HD
ATOM     32  H21 UNL     1      39.788  -0.447  29.260  1.00  0.00     0.157 HD
BRANCH  29  33
HETATM   33  C4  UNL     1      38.862  -1.094  31.549  1.00  0.00     0.109 C 
HETATM   34  C5  UNL     1      38.637  -2.403  30.932  1.00  0.00    -0.012 C 
HETATM   35  C6  UNL     1      37.930  -2.593  29.681  1.00  0.00    -0.007 C 
HETATM   36  C7  UNL     1      36.630  -2.071  29.333  1.00  0.00    -0.027 C 
HETATM   37  C8  UNL     1      35.579  -1.756  30.285  1.00  0.00     0.027 C 
HETATM   38  C9  UNL     1      35.598  -2.334  31.642  1.00  0.00     0.004 C 
HETATM   39  C10 UNL     1      36.206  -1.517  32.715  1.00  0.00     0.003 C 
HETATM   40  C11 UNL     1      36.682  -0.150  32.375  1.00  0.00     0.038 C 
HETATM   41  C12 UNL     1      37.877  -0.018  31.490  1.00  0.00     0.185 C 
HETATM   42  F1  UNL     1      38.544   1.156  31.937  1.00  0.00    -0.248 F 
ENDBRANCH  29  33
ENDBRANCH  27  29
ENDBRANCH  25  27
ENDBRANCH   1  25
TORSDOF 9
ENDMDL
MODEL 3
REMARK VINA RESULT: -7.030512374      4.572      8.571
REMARK  9 active torsions:
REMARK  status: ('A' for Active; 'I' for Inactive)
REMARK    1  A    between atoms: C2_2  and  N1_3 
REMARK    2  A    between atoms: C2_2  and  C13_19 
REMARK    3  A    between atoms: N1_3  and  C3_5 
REMARK    4  A    between atoms: C3_5  and  C4_9 
REMARK       I    between atoms: C13_19  and  N3_21 
REMARK    5  A    between atoms: N3_21  and  C14_23 
REMARK    6  A    between atoms: C14_23  and  C15_24 
REMARK    7  A    between atoms: C14_23  and  C19_32 
REMARK    8  A    between atoms: C15_24  and  C16_25 
REMARK       I    between atoms: C19_32  and  N6_34 
REMARK    9  A    between atoms: N6_34  and  C20_36 
ROOT
HETATM    1  C13 UNL     1      42.533  -1.409  30.546  1.00  0.00     0.240 C 
HETATM    2  O1  UNL     1      43.674  -0.997  30.245  1.00  0.00    -0.271 OA
HETATM    3  N3  UNL     1      42.171  -2.754  30.317  1.00  0.00    -0.346 N 
ATOM      4  H3  UNL     1      41.238  -3.090  30.555  1.00  0.00     0.163 HD
ENDROOT
BRANCH   3   5
HETATM    5  C14 UNL     1      43.175  -3.668  29.726  1.00  0.00     0.182 C 
BRANCH   5   6
HETATM    6  C15 UNL     1      42.718  -3.942  28.305  1.00  0.00     0.093 C 
BRANCH   6   7
HETATM    7  C16 UNL     1      43.487  -3.268  27.275  1.00  0.00     0.028 A 
HETATM    8  C17 UNL     1      43.859  -3.772  26.041  1.00  0.00     0.114 A 
HETATM    9  N4  UNL     1      44.568  -2.795  25.430  1.00  0.00    -0.360 N 
HETATM   10  C18 UNL     1      44.652  -1.712  26.225  1.00  0.00     0.180 A 
ATOM     11  H4  UNL     1      44.981  -2.869  24.500  1.00  0.00     0.166 HD
HETATM   12  N5  UNL     1      43.989  -2.019  27.341  1.00  0.00    -0.354 N 
ATOM     13  H5  UNL     1      43.878  -1.392  28.137  1.00  0.00     0.166 HD
ENDBRANCH   6   7
ENDBRANCH   5   6
BRANCH   5  14
HETATM   14  C19 UNL     1      43.178  -4.887  30.556  1.00  0.00     0.241 C 
HETATM   15  O2  UNL     1      42.121  -5.191  31.175  1.00  0.00    -0.271 OA
HETATM   16  N6  UNL     1      44.281  -5.752  30.722  1.00  0.00    -0.353 N 
ATOM     17  H6  UNL     1      45.157  -5.534  30.247  1.00  0.00     0.163 HD
BRANCH  16  18
HETATM   18  C20 UNL     1      44.206  -6.941  31.548  1.00  0.00     0.111 C 
HETATM   19  C21 UNL     1      45.634  -7.340  31.945  1.00  0.00     0.054 C 
HETATM   20  C22 UNL     1      45.477  -8.803  32.224  1.00  0.00     0.234 C 
HETATM   21  N7  UNL     1      44.256  -9.247  31.611  1.00  0.00    -0.073 N 
HETATM   22  C23 UNL     1      43.780  -8.157  30.780  1.00  0.00     0.257 C 
ATOM     23  H72 UNL     1      44.359 -10.125  31.103  1.00  0.00     0.277 HD
ATOM     24  H71 UNL     1      43.563  -9.568  32.286  1.00  0.00     0.277 HD
ENDBRANCH  16  18
ENDBRANCH   5  14
ENDBRANCH   3   5
BRANCH   1  25
HETATM   25  C2  UNL     1      41.577  -0.423  31.154  1.00  0.00     0.171 C 
HETATM   26  C1  UNL     1      40.242  -0.600  30.371  1.00  0.00     0.042 C 
BRANCH  25  27
HETATM   27  N1  UNL     1      41.340  -0.621  32.546  1.00  0.00    -0.367 N 
ATOM     28  H1  UNL     1      40.370  -0.725  32.845  1.00  0.00     0.161 HD
BRANCH  27  29
HETATM   29  C3  UNL     1      42.327  -0.684  33.538  1.00  0.00     0.082 C 
HETATM   30  N2  UNL     1      42.787  -1.832  33.891  1.00  0.00    -0.388 N 
ATOM     31  H22 UNL     1      42.434  -2.667  33.424  1.00  0.00     0.157 HD
ATOM     32  H21 UNL     1      43.506  -1.879  34.613  1.00  0.00     0.157 HD
BRANCH  29  33
HETATM   33  C4  UNL     1      42.851   0.558  34.233  1.00  0.00     0.109 C 
HETATM   34  C5  UNL     1      44.162   0.965  33.720  1.00  0.00    -0.012 C 
HETATM   35  C6  UNL     1      45.419   0.600  34.345  1.00  0.00    -0.007 C 
HETATM   36  C7  UNL     1      45.776   0.765  35.733  1.00  0.00    -0.027 C 
HETATM   37  C8  UNL     1      45.227   1.777  36.618  1.00  0.00     0.027 C 
HETATM   38  C9  UNL     1      44.573   2.980  36.068  1.00  0.00     0.004 C 
HETATM   39  C10 UNL     1      43.103   2.942  35.921  1.00  0.00     0.003 C 
HETATM   40  C11 UNL     1      42.377   1.737  36.403  1.00  0.00     0.038 C 
HETATM   41  C12 UNL     1      42.563   0.456  35.660  1.00  0.00     0.185 C 
HETATM   42  F1  UNL     1      41.317  -0.221  35.766  1.00  0.00    -0.248 F 
ENDBRANCH  29  33
ENDBRANCH  27  29
ENDBRANCH  25  27
ENDBRANCH   1  25
TORSDOF 9
ENDMDL
MODEL 4
REMARK VINA RESULT: -6.995794552      2.557      4.733
REMARK  9 active torsions:
REMARK  status: ('A' for Active; 'I' for Inactive)
REMARK    1  A    between atoms: C2_2  and  N1_3 
REMARK    2  A    between atoms: C2_2  and  C13_19 
REMARK    3  A    between atoms: N1_3  and  C3_5 
REMARK    4  A    between atoms: C3_5  and  C4_9 
REMARK       I    between atoms: C13_19  and  N3_21 
REMARK    5  A    between atoms: N3_21  and  C14_23 
REMARK    6  A    between atoms: C14_23  and  C15_24 
REMARK    7  A    between atoms: C14_23  and  C19_32 
REMARK    8  A    between atoms: C15_24  and  C16_25 
REMARK       I    between atoms: C19_32  and  N6_34 
REMARK    9  A    between atoms: N6_34  and  C20_36 
ROOT
HETATM    1  C13 UNL     1      40.528  -3.433  29.998  1.00  0.00     0.240 C 
HETATM    2  O1  UNL     1      40.384  -2.975  28.844  1.00  0.00    -0.271 OA
HETATM    3  N3  UNL     1      41.430  -2.830  30.901  1.00  0.00    -0.346 N 
ATOM      4  H3  UNL     1      41.555  -3.206  31.841  1.00  0.00     0.163 HD
ENDROOT
BRANCH   3   5
HETATM    5  C14 UNL     1      42.190  -1.640  30.457  1.00  0.00     0.182 C 
BRANCH   5   6
HETATM    6  C15 UNL     1      43.539  -2.148  29.981  1.00  0.00     0.093 C 
BRANCH   6   7
HETATM    7  C16 UNL     1      43.728  -2.123  28.541  1.00  0.00     0.028 A 
HETATM    8  C17 UNL     1      44.238  -1.084  27.781  1.00  0.00     0.114 A 
HETATM    9  N4  UNL     1      44.216  -1.509  26.497  1.00  0.00    -0.360 N 
HETATM   10  C18 UNL     1      43.720  -2.759  26.426  1.00  0.00     0.180 A 
ATOM     11  H4  UNL     1      44.531  -0.961  25.696  1.00  0.00     0.166 HD
HETATM   12  N5  UNL     1      43.429  -3.113  27.678  1.00  0.00    -0.354 N 
ATOM     13  H5  UNL     1      43.034  -4.014  27.946  1.00  0.00     0.166 HD
ENDBRANCH   6   7
ENDBRANCH   5   6
BRANCH   5  14
HETATM   14  C19 UNL     1      42.312  -0.753  31.629  1.00  0.00     0.241 C 
HETATM   15  O2  UNL     1      41.272  -0.175  32.051  1.00  0.00    -0.271 OA
HETATM   16  N6  UNL     1      43.510  -0.489  32.326  1.00  0.00    -0.353 N 
ATOM     17  H6  UNL     1      44.374  -0.929  32.009  1.00  0.00     0.163 HD
BRANCH  16  18
HETATM   18  C20 UNL     1      43.550   0.388  33.479  1.00  0.00     0.111 C 
HETATM   19  C21 UNL     1      44.973   0.953  33.603  1.00  0.00     0.054 C 
HETATM   20  C22 UNL     1      45.042   1.294  35.059  1.00  0.00     0.234 C 
HETATM   21  N7  UNL     1      43.993   0.583  35.735  1.00  0.00    -0.073 N 
HETATM   22  C23 UNL     1      43.431  -0.353  34.778  1.00  0.00     0.257 C 
ATOM     23  H72 UNL     1      44.303   0.136  36.598  1.00  0.00     0.277 HD
ATOM     24  H71 UNL     1      43.294   1.198  36.151  1.00  0.00     0.277 HD
ENDBRANCH  16  18
ENDBRANCH   5  14
ENDBRANCH   3   5
BRANCH   1  25
HETATM   25  C2  UNL     1      39.711  -4.634  30.376  1.00  0.00     0.171 C 
HETATM   26  C1  UNL     1      40.164  -5.009  31.819  1.00  0.00     0.042 C 
BRANCH  25  27
HETATM   27  N1  UNL     1      38.302  -4.411  30.364  1.00  0.00    -0.367 N 
ATOM     28  H1  UNL     1      37.872  -4.093  31.233  1.00  0.00     0.161 HD
BRANCH  27  29
HETATM   29  C3  UNL     1      37.460  -4.590  29.259  1.00  0.00     0.082 C 
HETATM   30  N2  UNL     1      37.504  -5.701  28.612  1.00  0.00    -0.388 N 
ATOM     31  H22 UNL     1      38.139  -6.432  28.934  1.00  0.00     0.157 HD
ATOM     32  H21 UNL     1      36.891  -5.833  27.808  1.00  0.00     0.157 HD
BRANCH  29  33
HETATM   33  C4  UNL     1      36.517  -3.503  28.780  1.00  0.00     0.109 C 
HETATM   34  C5  UNL     1      37.014  -2.162  29.100  1.00  0.00    -0.012 C 
HETATM   35  C6  UNL     1      36.606  -1.411  30.272  1.00  0.00    -0.007 C 
HETATM   36  C7  UNL     1      35.255  -1.146  30.703  1.00  0.00    -0.027 C 
HETATM   37  C8  UNL     1      34.100  -1.077  29.824  1.00  0.00     0.027 C 
HETATM   38  C9  UNL     1      34.272  -0.859  28.375  1.00  0.00     0.004 C 
HETATM   39  C10 UNL     1      34.305  -2.057  27.511  1.00  0.00     0.003 C 
HETATM   40  C11 UNL     1      34.088  -3.387  28.142  1.00  0.00     0.038 C 
HETATM   41  C12 UNL     1      35.144  -3.918  29.052  1.00  0.00     0.185 C 
HETATM   42  F1  UNL     1      35.114  -5.328  28.876  1.00  0.00    -0.248 F 
ENDBRANCH  29  33
ENDBRANCH  27  29
ENDBRANCH  25  27
ENDBRANCH   1  25
TORSDOF 9
ENDMDL
MODEL 5
REMARK VINA RESULT: -6.940279105      5.533      9.639
REMARK  9 active torsions:
REMARK  status: ('A' for Active; 'I' for Inactive)
REMARK    1  A    between atoms: C2_2  and  N1_3 
REMARK    2  A    between atoms: C2_2  and  C13_19 
REMARK    3  A    between atoms: N1_3  and  C3_5 
REMARK    4  A    between atoms: C3_5  and  C4_9 
REMARK       I    between atoms: C13_19  and  N3_21 
REMARK    5  A    between atoms: N3_21  and  C14_23 
REMARK    6  A    between atoms: C14_23  and  C15_24 
REMARK    7  A    between atoms: C14_23  and  C19_32 
REMARK    8  A    between atoms: C15_24  and  C16_25 
REMARK       I    between atoms: C19_32  and  N6_34 
REMARK    9  A    between atoms: N6_34  and  C20_36 
ROOT
HETATM    1  C13 UNL     1      42.982  -5.720  30.252  1.00  0.00     0.240 C 
HETATM    2  O1  UNL     1      42.114  -6.342  29.602  1.00  0.00    -0.271 OA
HETATM    3  N3  UNL     1      43.408  -4.440  29.837  1.00  0.00    -0.346 N 
ATOM      4  H3  UNL     1      44.122  -3.933  30.361  1.00  0.00     0.163 HD
ENDROOT
BRANCH   3   5
HETATM    5  C14 UNL     1      42.798  -3.847  28.625  1.00  0.00     0.182 C 
BRANCH   5   6
HETATM    6  C15 UNL     1      43.856  -2.949  28.010  1.00  0.00     0.093 C 
BRANCH   6   7
HETATM    7  C16 UNL     1      43.930  -2.996  26.561  1.00  0.00     0.028 A 
HETATM    8  C17 UNL     1      44.210  -1.947  25.701  1.00  0.00     0.114 A 
HETATM    9  N4  UNL     1      44.160  -2.459  24.450  1.00  0.00    -0.360 N 
HETATM   10  C18 UNL     1      43.864  -3.772  24.493  1.00  0.00     0.180 A 
ATOM     11  H4  UNL     1      44.322  -1.927  23.596  1.00  0.00     0.166 HD
HETATM   12  N5  UNL     1      43.729  -4.079  25.784  1.00  0.00    -0.354 N 
ATOM     13  H5  UNL     1      43.503  -5.009  26.136  1.00  0.00     0.166 HD
ENDBRANCH   6   7
ENDBRANCH   5   6
BRANCH   5  14
HETATM   14  C19 UNL     1      41.616  -3.089  29.074  1.00  0.00     0.241 C 
HETATM   15  O2  UNL     1      41.747  -1.852  29.292  1.00  0.00    -0.271 OA
HETATM   16  N6  UNL     1      40.334  -3.638  29.289  1.00  0.00    -0.353 N 
ATOM     17  H6  UNL     1      40.190  -4.636  29.134  1.00  0.00     0.163 HD
BRANCH  16  18
HETATM   18  C20 UNL     1      39.214  -2.826  29.722  1.00  0.00     0.111 C 
HETATM   19  C21 UNL     1      39.036  -3.022  31.234  1.00  0.00     0.054 C 
HETATM   20  C22 UNL     1      37.592  -2.674  31.421  1.00  0.00     0.234 C 
HETATM   21  N7  UNL     1      36.946  -2.741  30.140  1.00  0.00    -0.073 N 
HETATM   22  C23 UNL     1      37.896  -3.337  29.219  1.00  0.00     0.257 C 
ATOM     23  H72 UNL     1      36.052  -3.230  30.167  1.00  0.00     0.277 HD
ATOM     24  H71 UNL     1      36.591  -1.839  29.822  1.00  0.00     0.277 HD
ENDBRANCH  16  18
ENDBRANCH   5  14
ENDBRANCH   3   5
BRANCH   1  25
HETATM   25  C2  UNL     1      43.542  -6.383  31.477  1.00  0.00     0.171 C 
HETATM   26  C1  UNL     1      42.318  -7.010  32.208  1.00  0.00     0.042 C 
BRANCH  25  27
HETATM   27  N1  UNL     1      44.503  -7.401  31.203  1.00  0.00    -0.367 N 
ATOM     28  H1  UNL     1      44.362  -7.963  30.364  1.00  0.00     0.161 HD
BRANCH  27  29
HETATM   29  C3  UNL     1      45.625  -7.692  31.989  1.00  0.00     0.082 C 
HETATM   30  N2  UNL     1      46.513  -6.779  32.175  1.00  0.00    -0.388 N 
ATOM     31  H22 UNL     1      46.365  -5.859  31.761  1.00  0.00     0.157 HD
ATOM     32  H21 UNL     1      47.330  -6.991  32.748  1.00  0.00     0.157 HD
BRANCH  29  33
HETATM   33  C4  UNL     1      45.844  -9.060  32.605  1.00  0.00     0.109 C 
HETATM   34  C5  UNL     1      45.947 -10.112  31.589  1.00  0.00    -0.012 C 
HETATM   35  C6  UNL     1      44.834 -10.943  31.176  1.00  0.00    -0.007 C 
HETATM   36  C7  UNL     1      43.946 -11.691  32.033  1.00  0.00    -0.027 C 
HETATM   37  C8  UNL     1      44.295 -12.201  33.348  1.00  0.00     0.027 C 
HETATM   38  C9  UNL     1      45.708 -12.360  33.741  1.00  0.00     0.004 C 
HETATM   39  C10 UNL     1      46.329 -11.250  34.493  1.00  0.00     0.003 C 
HETATM   40  C11 UNL     1      45.477 -10.091  34.869  1.00  0.00     0.038 C 
HETATM   41  C12 UNL     1      44.993  -9.188  33.784  1.00  0.00     0.185 C 
HETATM   42  F1  UNL     1      44.934  -7.895  34.372  1.00  0.00    -0.248 F 
ENDBRANCH  29  33
ENDBRANCH  27  29
ENDBRANCH  25  27
ENDBRANCH   1  25
TORSDOF 9
ENDMDL
