MODEL 1
REMARK VINA RESULT: -6.740364356      0.000      0.000
REMARK  10 active torsions:
REMARK  status: ('A' for Active; 'I' for Inactive)
REMARK    1  A    between atoms: C2_2  and  O1_4 
REMARK    2  A    between atoms: O1_4  and  C4_5 
REMARK    3  A    between atoms: C4_5  and  N2_9 
REMARK    4  A    between atoms: N2_9  and  C5_11 
REMARK    5  A    between atoms: C5_11  and  C6_12 
REMARK    6  A    between atoms: C5_11  and  C10_22 
REMARK    7  A    between atoms: C6_12  and  C7_13 
REMARK    8  A    between atoms: C7_13  and  C8_14 
REMARK    9  A    between atoms: C8_14  and  N3_15 
REMARK       I    between atoms: N3_15  and  C9_17 
REMARK       I    between atoms: C10_22  and  N6_24 
REMARK   10  A    between atoms: N6_24  and  C11_26 
ROOT
HETATM    1  C5  UNL     1      42.810  -2.121  28.989  1.00  0.00     0.177 C 
ENDROOT
BRANCH   1   2
HETATM    2  N2  UNL     1      43.270  -3.395  29.468  1.00  0.00    -0.343 N 
ATOM      3  H2  UNL     1      44.260  -3.523  29.677  1.00  0.00     0.164 HD
BRANCH   2   4
HETATM    4  C4  UNL     1      42.356  -4.499  29.659  1.00  0.00     0.213 C 
HETATM    5  N1  UNL     1      42.079  -5.288  28.698  1.00  0.00    -0.365 N 
ATOM      6  H12 UNL     1      41.435  -6.067  28.833  1.00  0.00     0.159 HD
ATOM      7  H11 UNL     1      42.541  -5.083  27.812  1.00  0.00     0.159 HD
BRANCH   4   8
HETATM    8  O1  UNL     1      41.730  -4.777  30.860  1.00  0.00    -0.318 OA
BRANCH   8   9
HETATM    9  C2  UNL     1      42.349  -5.136  32.056  1.00  0.00     0.123 C 
HETATM   10  C1  UNL     1      43.530  -6.039  31.960  1.00  0.00     0.040 C 
HETATM   11  C3  UNL     1      42.593  -3.980  33.012  1.00  0.00     0.040 C 
ENDBRANCH   8   9
ENDBRANCH   4   8
ENDBRANCH   2   4
ENDBRANCH   1   2
BRANCH   1  12
HETATM   12  C6  UNL     1      43.998  -1.235  28.597  1.00  0.00     0.036 C 
BRANCH  12  13
HETATM   13  C7  UNL     1      43.943  -0.727  27.200  1.00  0.00     0.022 C 
BRANCH  13  14
HETATM   14  C8  UNL     1      44.886  -1.604  26.383  1.00  0.00     0.122 C 
BRANCH  14  15
HETATM   15  N3  UNL     1      44.278  -2.051  25.142  1.00  0.00    -0.365 N 
HETATM   16  C9  UNL     1      43.911  -3.413  25.082  1.00  0.00     0.181 C 
HETATM   17  N4  UNL     1      44.054  -4.099  24.004  1.00  0.00    -0.374 N 
HETATM   18  N5  UNL     1      43.377  -4.046  26.226  1.00  0.00    -0.064 NA
ATOM     19  H42 UNL     1      44.440  -3.641  23.178  1.00  0.00     0.158 HD
ATOM     20  H41 UNL     1      43.789  -5.083  23.962  1.00  0.00     0.158 HD
ATOM     21  H3  UNL     1      44.124  -1.417  24.358  1.00  0.00     0.162 HD
ENDBRANCH  14  15
ENDBRANCH  13  14
ENDBRANCH  12  13
ENDBRANCH   1  12
BRANCH   1  22
HETATM   22  C10 UNL     1      42.144  -1.319  30.087  1.00  0.00     0.240 C 
HETATM   23  O2  UNL     1      42.680  -0.280  30.518  1.00  0.00    -0.271 OA
HETATM   24  N6  UNL     1      40.904  -1.735  30.642  1.00  0.00    -0.354 N 
ATOM     25  H6  UNL     1      40.461  -2.588  30.299  1.00  0.00     0.162 HD
BRANCH  24  26
HETATM   26  C11 UNL     1      40.266  -0.978  31.675  1.00  0.00     0.092 C 
HETATM   27  C12 UNL     1      39.099  -0.226  31.087  1.00  0.00     0.010 C 
HETATM   28  C13 UNL     1      38.581   0.730  32.117  1.00  0.00     0.011 C 
HETATM   29  C20 UNL     1      38.015  -1.221  30.723  1.00  0.00     0.027 C 
HETATM   30  C14 UNL     1      38.136  -0.053  33.311  1.00  0.00    -0.012 C 
HETATM   31  C15 UNL     1      39.283  -0.853  33.911  1.00  0.00     0.011 C 
HETATM   32  C19 UNL     1      37.044  -1.033  32.938  1.00  0.00     0.025 C 
HETATM   33  C16 UNL     1      39.829  -1.823  32.860  1.00  0.00     0.010 C 
HETATM   34  C17 UNL     1      38.732  -2.776  32.516  1.00  0.00     0.027 C 
HETATM   35  C18 UNL     1      37.574  -2.017  31.926  1.00  0.00     0.019 C 
HETATM   36 BR1  UNL     1      36.233  -3.279  31.386  1.00  0.00    -0.086 Br
ENDBRANCH  24  26
ENDBRANCH   1  22
TORSDOF 10
ENDMDL
MODEL 2
REMARK VINA RESULT: -6.532113137      2.256      4.321
REMARK  10 active torsions:
REMARK  status: ('A' for Active; 'I' for Inactive)
REMARK    1  A    between atoms: C2_2  and  O1_4 
REMARK    2  A    between atoms: O1_4  and  C4_5 
REMARK    3  A    between atoms: C4_5  and  N2_9 
REMARK    4  A    between atoms: N2_9  and  C5_11 
REMARK    5  A    between atoms: C5_11  and  C6_12 
REMARK    6  A    between atoms: C5_11  and  C10_22 
REMARK    7  A    between atoms: C6_12  and  C7_13 
REMARK    8  A    between atoms: C7_13  and  C8_14 
REMARK    9  A    between atoms: C8_14  and  N3_15 
REMARK       I    between atoms: N3_15  and  C9_17 
REMARK       I    between atoms: C10_22  and  N6_24 
REMARK   10  A    between atoms: N6_24  and  C11_26 
ROOT
HETATM    1  C5  UNL     1      41.687  -3.239  30.471  1.00  0.00     0.177 C 
ENDROOT
BRANCH   1   2
HETATM    2  N2  UNL     1      41.632  -1.894  29.970  1.00  0.00    -0.343 N 
ATOM      3  H2  UNL     1      41.542  -1.736  28.966  1.00  0.00     0.164 HD
BRANCH   2   4
HETATM    4  C4  UNL     1      41.702  -0.758  30.862  1.00  0.00     0.213 C 
HETATM    5  N1  UNL     1      42.793  -0.455  31.445  1.00  0.00    -0.365 N 
ATOM      6  H12 UNL     1      42.842   0.346  32.074  1.00  0.00     0.159 HD
ATOM      7  H11 UNL     1      43.587  -1.060  31.237  1.00  0.00     0.159 HD
BRANCH   4   8
HETATM    8  O1  UNL     1      40.625   0.063  31.144  1.00  0.00    -0.318 OA
BRANCH   8   9
HETATM    9  C2  UNL     1      39.450  -0.304  31.796  1.00  0.00     0.123 C 
HETATM   10  C1  UNL     1      39.580  -1.243  32.945  1.00  0.00     0.040 C 
HETATM   11  C3  UNL     1      38.515   0.852  32.111  1.00  0.00     0.040 C 
ENDBRANCH   8   9
ENDBRANCH   4   8
ENDBRANCH   2   4
ENDBRANCH   1   2
BRANCH   1  12
HETATM   12  C6  UNL     1      42.763  -4.041  29.732  1.00  0.00     0.036 C 
BRANCH  12  13
HETATM   13  C7  UNL     1      43.545  -3.247  28.746  1.00  0.00     0.022 C 
BRANCH  13  14
HETATM   14  C8  UNL     1      42.976  -3.580  27.372  1.00  0.00     0.122 C 
BRANCH  14  15
HETATM   15  N3  UNL     1      44.012  -3.979  26.434  1.00  0.00    -0.365 N 
HETATM   16  C9  UNL     1      44.275  -3.081  25.378  1.00  0.00     0.181 C 
HETATM   17  N4  UNL     1      44.545  -3.501  24.193  1.00  0.00    -0.374 N 
HETATM   18  N5  UNL     1      44.242  -1.689  25.616  1.00  0.00    -0.064 NA
ATOM     19  H42 UNL     1      44.569  -4.506  24.021  1.00  0.00     0.158 HD
ATOM     20  H41 UNL     1      44.736  -2.851  23.430  1.00  0.00     0.158 HD
ATOM     21  H3  UNL     1      44.519  -4.858  26.534  1.00  0.00     0.162 HD
ENDBRANCH  14  15
ENDBRANCH  13  14
ENDBRANCH  12  13
ENDBRANCH   1  12
BRANCH   1  22
HETATM   22  C10 UNL     1      40.421  -4.006  30.151  1.00  0.00     0.240 C 
HETATM   23  O2  UNL     1      40.451  -5.247  30.044  1.00  0.00    -0.271 OA
HETATM   24  N6  UNL     1      39.186  -3.328  29.968  1.00  0.00    -0.354 N 
ATOM     25  H6  UNL     1      39.155  -2.311  30.049  1.00  0.00     0.162 HD
BRANCH  24  26
HETATM   26  C11 UNL     1      37.986  -4.047  29.672  1.00  0.00     0.092 C 
HETATM   27  C12 UNL     1      37.247  -4.324  30.957  1.00  0.00     0.010 C 
HETATM   28  C13 UNL     1      36.118  -5.265  30.665  1.00  0.00     0.011 C 
HETATM   29  C20 UNL     1      36.697  -3.016  31.491  1.00  0.00     0.027 C 
HETATM   30  C14 UNL     1      35.202  -4.614  29.678  1.00  0.00    -0.012 C 
HETATM   31  C15 UNL     1      35.924  -4.290  28.379  1.00  0.00     0.011 C 
HETATM   32  C19 UNL     1      34.648  -3.317  30.227  1.00  0.00     0.025 C 
HETATM   33  C16 UNL     1      37.090  -3.340  28.670  1.00  0.00     0.010 C 
HETATM   34  C17 UNL     1      36.511  -2.072  29.206  1.00  0.00     0.027 C 
HETATM   35  C18 UNL     1      35.780  -2.357  30.491  1.00  0.00     0.019 C 
HETATM   36 BR1  UNL     1      35.153  -0.694  31.214  1.00  0.00    -0.086 Br
ENDBRANCH  24  26
ENDBRANCH   1  22
TORSDOF 10
ENDMDL
MODEL 3
REMARK VINA RESULT: -6.473048625      2.537      3.787
REMARK  10 active torsions:
REMARK  status: ('A' for Active; 'I' for Inactive)
REMARK    1  A    between atoms: C2_2  and  O1_4 
REMARK    2  A    between atoms: O1_4  and  C4_5 
REMARK    3  A    between atoms: C4_5  and  N2_9 
REMARK    4  A    between atoms: N2_9  and  C5_11 
REMARK    5  A    between atoms: C5_11  and  C6_12 
REMARK    6  A    between atoms: C5_11  and  C10_22 
REMARK    7  A    between atoms: C6_12  and  C7_13 
REMARK    8  A    between atoms: C7_13  and  C8_14 
REMARK    9  A    between atoms: C8_14  and  N3_15 
REMARK       I    between atoms: N3_15  and  C9_17 
REMARK       I    between atoms: C10_22  and  N6_24 
REMARK   10  A    between atoms: N6_24  and  C11_26 
ROOT
HETATM    1  C5  UNL     1      41.719  -2.063  30.308  1.00  0.00     0.177 C 
ENDROOT
BRANCH   1   2
HETATM    2  N2  UNL     1      42.670  -1.064  30.708  1.00  0.00    -0.343 N 
ATOM      3  H2  UNL     1      43.157  -0.522  29.993  1.00  0.00     0.164 HD
BRANCH   2   4
HETATM    4  C4  UNL     1      42.950  -0.811  32.103  1.00  0.00     0.213 C 
HETATM    5  N1  UNL     1      42.791  -1.726  32.975  1.00  0.00    -0.365 N 
ATOM      6  H12 UNL     1      42.989  -1.547  33.960  1.00  0.00     0.159 HD
ATOM      7  H11 UNL     1      42.461  -2.622  32.618  1.00  0.00     0.159 HD
BRANCH   4   8
HETATM    8  O1  UNL     1      43.398   0.405  32.587  1.00  0.00    -0.318 OA
BRANCH   8   9
HETATM    9  C2  UNL     1      44.070   0.624  33.788  1.00  0.00     0.123 C 
HETATM   10  C1  UNL     1      45.464   1.139  33.697  1.00  0.00     0.040 C 
HETATM   11  C3  UNL     1      43.258   1.362  34.840  1.00  0.00     0.040 C 
ENDBRANCH   8   9
ENDBRANCH   4   8
ENDBRANCH   2   4
ENDBRANCH   1   2
BRANCH   1  12
HETATM   12  C6  UNL     1      42.000  -2.527  28.874  1.00  0.00     0.036 C 
BRANCH  12  13
HETATM   13  C7  UNL     1      43.395  -2.992  28.649  1.00  0.00     0.022 C 
BRANCH  13  14
HETATM   14  C8  UNL     1      43.700  -2.746  27.175  1.00  0.00     0.122 C 
BRANCH  14  15
HETATM   15  N3  UNL     1      44.052  -3.971  26.478  1.00  0.00    -0.365 N 
HETATM   16  C9  UNL     1      43.948  -3.939  25.071  1.00  0.00     0.181 C 
HETATM   17  N4  UNL     1      43.523  -4.955  24.407  1.00  0.00    -0.374 N 
HETATM   18  N5  UNL     1      44.314  -2.770  24.368  1.00  0.00    -0.064 NA
ATOM     19  H42 UNL     1      43.259  -5.799  24.915  1.00  0.00     0.158 HD
ATOM     20  H41 UNL     1      43.449  -4.931  23.390  1.00  0.00     0.158 HD
ATOM     21  H3  UNL     1      44.356  -4.807  26.977  1.00  0.00     0.162 HD
ENDBRANCH  14  15
ENDBRANCH  13  14
ENDBRANCH  12  13
ENDBRANCH   1  12
BRANCH   1  22
HETATM   22  C10 UNL     1      40.319  -1.494  30.206  1.00  0.00     0.240 C 
HETATM   23  O2  UNL     1      40.142  -0.261  30.221  1.00  0.00    -0.271 OA
HETATM   24  N6  UNL     1      39.192  -2.351  30.093  1.00  0.00    -0.354 N 
ATOM     25  H6  UNL     1      39.329  -3.362  30.086  1.00  0.00     0.162 HD
BRANCH  24  26
HETATM   26  C11 UNL     1      37.868  -1.819  29.990  1.00  0.00     0.092 C 
HETATM   27  C12 UNL     1      37.104  -2.595  28.947  1.00  0.00     0.010 C 
HETATM   28  C13 UNL     1      35.806  -1.893  28.686  1.00  0.00     0.011 C 
HETATM   29  C20 UNL     1      36.834  -3.988  29.479  1.00  0.00     0.027 C 
HETATM   30  C14 UNL     1      35.027  -1.849  29.962  1.00  0.00    -0.012 C 
HETATM   31  C15 UNL     1      35.784  -1.101  31.050  1.00  0.00     0.011 C 
HETATM   32  C19 UNL     1      34.752  -3.244  30.477  1.00  0.00     0.025 C 
HETATM   33  C16 UNL     1      37.120  -1.802  31.312  1.00  0.00     0.010 C 
HETATM   34  C17 UNL     1      36.814  -3.173  31.820  1.00  0.00     0.027 C 
HETATM   35  C18 UNL     1      36.056  -3.941  30.771  1.00  0.00     0.019 C 
HETATM   36 BR1  UNL     1      35.785  -5.730  31.405  1.00  0.00    -0.086 Br
ENDBRANCH  24  26
ENDBRANCH   1  22
TORSDOF 10
ENDMDL
MODEL 4
REMARK VINA RESULT: -6.447724813      2.421      3.779
REMARK  10 active torsions:
REMARK  status: ('A' for Active; 'I' for Inactive)
REMARK    1  A    between atoms: C2_2  and  O1_4 
REMARK    2  A    between atoms: O1_4  and  C4_5 
REMARK    3  A    between atoms: C4_5  and  N2_9 
REMARK    4  A    between atoms: N2_9  and  C5_11 
REMARK    5  A    between atoms: C5_11  and  C6_12 
REMARK    6  A    between atoms: C5_11  and  C10_22 
REMARK    7  A    between atoms: C6_12  and  C7_13 
REMARK    8  A    between atoms: C7_13  and  C8_14 
REMARK    9  A    between atoms: C8_14  and  N3_15 
REMARK       I    between atoms: N3_15  and  C9_17 
REMARK       I    between atoms: C10_22  and  N6_24 
REMARK   10  A    between atoms: N6_24  and  C11_26 
ROOT
HETATM    1  C5  UNL     1      42.875  -2.359  30.032  1.00  0.00     0.177 C 
ENDROOT
BRANCH   1   2
HETATM    2  N2  UNL     1      42.898  -1.031  30.577  1.00  0.00    -0.343 N 
ATOM      3  H2  UNL     1      42.837  -0.230  29.947  1.00  0.00     0.164 HD
BRANCH   2   4
HETATM    4  C4  UNL     1      43.006  -0.805  32.001  1.00  0.00     0.213 C 
HETATM    5  N1  UNL     1      42.747  -1.739  32.829  1.00  0.00    -0.365 N 
ATOM      6  H12 UNL     1      42.823  -1.579  33.833  1.00  0.00     0.159 HD
ATOM      7  H11 UNL     1      42.468  -2.628  32.417  1.00  0.00     0.159 HD
BRANCH   4   8
HETATM    8  O1  UNL     1      43.384   0.402  32.560  1.00  0.00    -0.318 OA
BRANCH   8   9
HETATM    9  C2  UNL     1      44.038   0.584  33.776  1.00  0.00     0.123 C 
HETATM   10  C1  UNL     1      45.439   1.087  33.720  1.00  0.00     0.040 C 
HETATM   11  C3  UNL     1      43.218   1.306  34.833  1.00  0.00     0.040 C 
ENDBRANCH   8   9
ENDBRANCH   4   8
ENDBRANCH   2   4
ENDBRANCH   1   2
BRANCH   1  12
HETATM   12  C6  UNL     1      43.779  -2.448  28.798  1.00  0.00     0.036 C 
BRANCH  12  13
HETATM   13  C7  UNL     1      43.934  -1.163  28.064  1.00  0.00     0.022 C 
BRANCH  13  14
HETATM   14  C8  UNL     1      44.035  -1.519  26.585  1.00  0.00     0.122 C 
BRANCH  14  15
HETATM   15  N3  UNL     1      44.541  -2.865  26.380  1.00  0.00    -0.365 N 
HETATM   16  C9  UNL     1      44.269  -3.449  25.124  1.00  0.00     0.181 C 
HETATM   17  N4  UNL     1      43.983  -4.697  25.014  1.00  0.00    -0.374 N 
HETATM   18  N5  UNL     1      44.308  -2.653  23.958  1.00  0.00    -0.064 NA
ATOM     19  H42 UNL     1      43.955  -5.272  25.857  1.00  0.00     0.158 HD
ATOM     20  H41 UNL     1      43.786  -5.119  24.106  1.00  0.00     0.158 HD
ATOM     21  H3  UNL     1      45.064  -3.359  27.103  1.00  0.00     0.162 HD
ENDBRANCH  14  15
ENDBRANCH  13  14
ENDBRANCH  12  13
ENDBRANCH   1  12
BRANCH   1  22
HETATM   22  C10 UNL     1      41.512  -2.711  29.473  1.00  0.00     0.240 C 
HETATM   23  O2  UNL     1      41.413  -3.235  28.347  1.00  0.00    -0.271 OA
HETATM   24  N6  UNL     1      40.331  -2.448  30.217  1.00  0.00    -0.354 N 
ATOM     25  H6  UNL     1      40.404  -2.013  31.137  1.00  0.00     0.162 HD
BRANCH  24  26
HETATM   26  C11 UNL     1      39.041  -2.783  29.697  1.00  0.00     0.092 C 
HETATM   27  C12 UNL     1      38.655  -4.157  30.182  1.00  0.00     0.010 C 
HETATM   28  C13 UNL     1      37.417  -4.588  29.457  1.00  0.00     0.011 C 
HETATM   29  C20 UNL     1      38.376  -4.085  31.670  1.00  0.00     0.027 C 
HETATM   30  C14 UNL     1      36.325  -3.613  29.761  1.00  0.00    -0.012 C 
HETATM   31  C15 UNL     1      36.695  -2.207  29.314  1.00  0.00     0.011 C 
HETATM   32  C19 UNL     1      36.046  -3.560  31.247  1.00  0.00     0.025 C 
HETATM   33  C16 UNL     1      37.969  -1.763  30.039  1.00  0.00     0.010 C 
HETATM   34  C17 UNL     1      37.660  -1.718  31.499  1.00  0.00     0.027 C 
HETATM   35  C18 UNL     1      37.281  -3.094  31.976  1.00  0.00     0.019 C 
HETATM   36 BR1  UNL     1      37.007  -3.026  33.873  1.00  0.00    -0.086 Br
ENDBRANCH  24  26
ENDBRANCH   1  22
TORSDOF 10
ENDMDL
MODEL 5
REMARK VINA RESULT: -6.355532791      1.242      1.582
REMARK  10 active torsions:
REMARK  status: ('A' for Active; 'I' for Inactive)
REMARK    1  A    between atoms: C2_2  and  O1_4 
REMARK    2  A    between atoms: O1_4  and  C4_5 
REMARK    3  A    between atoms: C4_5  and  N2_9 
REMARK    4  A    between atoms: N2_9  and  C5_11 
REMARK    5  A    between atoms: C5_11  and  C6_12 
REMARK    6  A    between atoms: C5_11  and  C10_22 
REMARK    7  A    between atoms: C6_12  and  C7_13 
REMARK    8  A    between atoms: C7_13  and  C8_14 
REMARK    9  A    between atoms: C8_14  and  N3_15 
REMARK       I    between atoms: N3_15  and  C9_17 
REMARK       I    between atoms: C10_22  and  N6_24 
REMARK   10  A    between atoms: N6_24  and  C11_26 
ROOT
HETATM    1  C5  UNL     1      42.586  -2.160  29.512  1.00  0.00     0.177 C 
ENDROOT
BRANCH   1   2
HETATM    2  N2  UNL     1      42.897  -3.414  30.139  1.00  0.00    -0.343 N 
ATOM      3  H2  UNL     1      43.564  -3.435  30.912  1.00  0.00     0.164 HD
BRANCH   2   4
HETATM    4  C4  UNL     1      42.284  -4.647  29.697  1.00  0.00     0.213 C 
HETATM    5  N1  UNL     1      42.245  -4.946  28.460  1.00  0.00    -0.365 N 
ATOM      6  H12 UNL     1      41.813  -5.816  28.148  1.00  0.00     0.159 HD
ATOM      7  H11 UNL     1      42.669  -4.267  27.828  1.00  0.00     0.159 HD
BRANCH   4   8
HETATM    8  O1  UNL     1      41.710  -5.568  30.554  1.00  0.00    -0.318 OA
BRANCH   8   9
HETATM    9  C2  UNL     1      40.352  -5.703  30.838  1.00  0.00     0.123 C 
HETATM   10  C1  UNL     1      39.508  -4.485  30.693  1.00  0.00     0.040 C 
HETATM   11  C3  UNL     1      39.697  -6.926  30.217  1.00  0.00     0.040 C 
ENDBRANCH   8   9
ENDBRANCH   4   8
ENDBRANCH   2   4
ENDBRANCH   1   2
BRANCH   1  12
HETATM   12  C6  UNL     1      43.866  -1.470  29.029  1.00  0.00     0.036 C 
BRANCH  12  13
HETATM   13  C7  UNL     1      43.763  -0.881  27.667  1.00  0.00     0.022 C 
BRANCH  13  14
HETATM   14  C8  UNL     1      44.890  -1.495  26.843  1.00  0.00     0.122 C 
BRANCH  14  15
HETATM   15  N3  UNL     1      44.505  -1.698  25.458  1.00  0.00    -0.365 N 
HETATM   16  C9  UNL     1      44.157  -3.017  25.095  1.00  0.00     0.181 C 
HETATM   17  N4  UNL     1      44.484  -3.506  23.951  1.00  0.00    -0.374 N 
HETATM   18  N5  UNL     1      43.435  -3.826  26.000  1.00  0.00    -0.064 NA
ATOM     19  H42 UNL     1      45.005  -2.922  23.297  1.00  0.00     0.158 HD
ATOM     20  H41 UNL     1      44.232  -4.459  23.689  1.00  0.00     0.158 HD
ATOM     21  H3  UNL     1      44.488  -0.932  24.785  1.00  0.00     0.162 HD
ENDBRANCH  14  15
ENDBRANCH  13  14
ENDBRANCH  12  13
ENDBRANCH   1  12
BRANCH   1  22
HETATM   22  C10 UNL     1      42.024  -1.163  30.504  1.00  0.00     0.240 C 
HETATM   23  O2  UNL     1      42.744  -0.251  30.953  1.00  0.00    -0.271 OA
HETATM   24  N6  UNL     1      40.674  -1.252  30.940  1.00  0.00    -0.354 N 
ATOM     25  H6  UNL     1      40.079  -2.000  30.581  1.00  0.00     0.162 HD
BRANCH  24  26
HETATM   26  C11 UNL     1      40.136  -0.310  31.872  1.00  0.00     0.092 C 
HETATM   27  C12 UNL     1      38.709  -0.000  31.493  1.00  0.00     0.010 C 
HETATM   28  C13 UNL     1      38.232   1.146  32.331  1.00  0.00     0.011 C 
HETATM   29  C20 UNL     1      37.858  -1.224  31.767  1.00  0.00     0.027 C 
HETATM   30  C14 UNL     1      38.302   0.743  33.769  1.00  0.00    -0.012 C 
HETATM   31  C15 UNL     1      39.724   0.390  34.179  1.00  0.00     0.011 C 
HETATM   32  C19 UNL     1      37.438  -0.471  34.034  1.00  0.00     0.025 C 
HETATM   33  C16 UNL     1      40.227  -0.771  33.316  1.00  0.00     0.010 C 
HETATM   34  C17 UNL     1      39.358  -1.951  33.602  1.00  0.00     0.027 C 
HETATM   35  C18 UNL     1      37.938  -1.635  33.216  1.00  0.00     0.019 C 
HETATM   36 BR1  UNL     1      36.871  -3.206  33.483  1.00  0.00    -0.086 Br
ENDBRANCH  24  26
ENDBRANCH   1  22
TORSDOF 10
ENDMDL
