MODEL 1
REMARK VINA RESULT: -7.809403640      0.000      0.000
REMARK  10 active torsions:
REMARK  status: ('A' for Active; 'I' for Inactive)
REMARK    1  A    between atoms: N3_9  and  C5_11 
REMARK    2  A    between atoms: C7_13  and  N4_14 
REMARK    3  A    between atoms: N4_14  and  C8_16 
REMARK    4  A    between atoms: C11_19  and  N5_20 
REMARK    5  A    between atoms: C14_28  and  N7_29 
REMARK    6  A    between atoms: N7_29  and  C15_31 
REMARK    7  A    between atoms: C15_31  and  C16_32 
REMARK    8  A    between atoms: C16_32  and  C17_33 
REMARK    9  A    between atoms: C17_33  and  C18_34 
REMARK   10  A    between atoms: C18_34  and  C19_35 
ROOT
HETATM    1  C5  UNL     1      42.381  -1.014  32.567  1.00  0.00     0.127 A 
HETATM    2  C6  UNL     1      43.282  -1.288  31.556  1.00  0.00     0.097 A 
HETATM    3  C7  UNL     1      42.952  -1.217  30.224  1.00  0.00     0.120 A 
HETATM    4  N6  UNL     1      41.672  -0.857  29.945  1.00  0.00    -0.177 N 
ATOM      5  H6  UNL     1      41.386  -0.792  28.968  1.00  0.00     0.185 HD
HETATM    6  C14 UNL     1      40.774  -0.585  30.891  1.00  0.00     0.681 A 
HETATM    7  N8  UNL     1      41.139  -0.667  32.199  1.00  0.00    -0.176 N 
ATOM      8  H8  UNL     1      40.448  -0.459  32.921  1.00  0.00     0.186 HD
ENDROOT
BRANCH   1   9
HETATM    9  N3  UNL     1      42.791  -1.101  33.910  1.00  0.00    -0.312 N 
HETATM   10  C4  UNL     1      43.338  -0.142  34.570  1.00  0.00     0.201 A 
HETATM   11  N2  UNL     1      43.657   1.166  34.175  1.00  0.00    -0.269 N 
HETATM   12  N9  UNL     1      43.739  -0.283  35.928  1.00  0.00    -0.312 N 
HETATM   13  N1  UNL     1      44.245   1.836  35.251  1.00  0.00    -0.283 N 
ATOM     14  H2  UNL     1      43.488   1.563  33.250  1.00  0.00     0.190 HD
HETATM   15  C3  UNL     1      44.317   0.956  36.381  1.00  0.00     0.118 A 
ATOM     16  H1  UNL     1      44.572   2.802  35.234  1.00  0.00     0.188 HD
HETATM   17  C2  UNL     1      44.799   1.205  37.579  1.00  0.00     0.019 C 
HETATM   18  C1  UNL     1      45.362   2.526  37.903  1.00  0.00     0.040 C 
ATOM     19  H9  UNL     1      43.633  -1.128  36.492  1.00  0.00     0.170 HD
ATOM     20  H3  UNL     1      42.644  -1.987  34.394  1.00  0.00     0.170 HD
ENDBRANCH   1   9
BRANCH   3  21
HETATM   21  N4  UNL     1      43.715  -1.452  29.237  1.00  0.00    -0.371 N 
ATOM     22  H4  UNL     1      44.716  -1.405  29.429  1.00  0.00     0.161 HD
BRANCH  21  23
HETATM   23  C8  UNL     1      43.357  -1.774  27.895  1.00  0.00     0.083 C 
HETATM   24  C9  UNL     1      44.504  -1.313  27.008  1.00  0.00     0.027 C 
HETATM   25  C10 UNL     1      44.203  -1.502  25.541  1.00  0.00     0.035 C 
HETATM   26  C11 UNL     1      43.822  -2.923  25.289  1.00  0.00     0.183 C 
HETATM   27  C12 UNL     1      43.951  -3.779  26.514  1.00  0.00     0.035 C 
HETATM   28  C13 UNL     1      43.165  -3.265  27.687  1.00  0.00     0.027 C 
BRANCH  26  29
HETATM   29  N5  UNL     1      44.728  -3.485  24.283  1.00  0.00    -0.075 N 
ATOM     30  H53 UNL     1      44.743  -2.936  23.423  1.00  0.00     0.274 HD
ATOM     31  H52 UNL     1      45.710  -3.375  24.538  1.00  0.00     0.274 HD
ATOM     32  H51 UNL     1      44.476  -4.459  24.119  1.00  0.00     0.274 HD
ENDBRANCH  26  29
ENDBRANCH  21  23
ENDBRANCH   3  21
BRANCH   6  33
HETATM   33  N7  UNL     1      39.550  -0.238  30.671  1.00  0.00    -0.226 N 
ATOM     34  H7  UNL     1      39.388   0.599  30.110  1.00  0.00     0.177 HD
BRANCH  33  35
HETATM   35  C15 UNL     1      38.396  -0.945  31.160  1.00  0.00     0.138 C 
BRANCH  35  36
HETATM   36  C16 UNL     1      37.929  -1.969  30.160  1.00  0.00     0.020 C 
BRANCH  36  37
HETATM   37  C17 UNL     1      36.441  -1.793  29.963  1.00  0.00     0.002 C 
BRANCH  37  38
HETATM   38  C18 UNL     1      36.024  -2.485  28.682  1.00  0.00     0.011 C 
BRANCH  38  39
HETATM   39  C19 UNL     1      34.541  -2.407  28.444  1.00  0.00     0.085 C 
HETATM   40 BR1  UNL     1      34.214  -0.830  27.362  1.00  0.00    -0.097 Br
ENDBRANCH  38  39
ENDBRANCH  37  38
ENDBRANCH  36  37
ENDBRANCH  35  36
ENDBRANCH  33  35
ENDBRANCH   6  33
TORSDOF 10
ENDMDL
MODEL 2
REMARK VINA RESULT: -7.521447857      0.765      1.235
REMARK  10 active torsions:
REMARK  status: ('A' for Active; 'I' for Inactive)
REMARK    1  A    between atoms: N3_9  and  C5_11 
REMARK    2  A    between atoms: C7_13  and  N4_14 
REMARK    3  A    between atoms: N4_14  and  C8_16 
REMARK    4  A    between atoms: C11_19  and  N5_20 
REMARK    5  A    between atoms: C14_28  and  N7_29 
REMARK    6  A    between atoms: N7_29  and  C15_31 
REMARK    7  A    between atoms: C15_31  and  C16_32 
REMARK    8  A    between atoms: C16_32  and  C17_33 
REMARK    9  A    between atoms: C17_33  and  C18_34 
REMARK   10  A    between atoms: C18_34  and  C19_35 
ROOT
HETATM    1  C5  UNL     1      42.071  -0.864  32.766  1.00  0.00     0.127 A 
HETATM    2  C6  UNL     1      42.802  -0.869  31.594  1.00  0.00     0.097 A 
HETATM    3  C7  UNL     1      42.230  -0.681  30.358  1.00  0.00     0.120 A 
HETATM    4  N6  UNL     1      40.886  -0.487  30.346  1.00  0.00    -0.177 N 
ATOM      5  H6  UNL     1      40.423  -0.344  29.449  1.00  0.00     0.185 HD
HETATM    6  C14 UNL     1      40.146  -0.476  31.453  1.00  0.00     0.681 A 
HETATM    7  N8  UNL     1      40.748  -0.666  32.659  1.00  0.00    -0.176 N 
ATOM      8  H8  UNL     1      40.178  -0.658  33.505  1.00  0.00     0.186 HD
ENDROOT
BRANCH   1   9
HETATM    9  N3  UNL     1      42.724  -1.056  33.997  1.00  0.00    -0.312 N 
HETATM   10  C4  UNL     1      43.213  -0.111  34.719  1.00  0.00     0.201 A 
HETATM   11  N2  UNL     1      43.235   1.275  34.507  1.00  0.00    -0.269 N 
HETATM   12  N9  UNL     1      43.869  -0.360  35.958  1.00  0.00    -0.312 N 
HETATM   13  N1  UNL     1      43.886   1.889  35.580  1.00  0.00    -0.283 N 
ATOM     14  H2  UNL     1      42.838   1.758  33.700  1.00  0.00     0.190 HD
HETATM   15  C3  UNL     1      44.305   0.892  36.521  1.00  0.00     0.118 A 
ATOM     16  H1  UNL     1      44.040   2.893  35.678  1.00  0.00     0.188 HD
HETATM   17  C2  UNL     1      44.946   1.060  37.657  1.00  0.00     0.019 C 
HETATM   18  C1  UNL     1      45.331   2.406  38.111  1.00  0.00     0.040 C 
ATOM     19  H9  UNL     1      44.008  -1.279  36.379  1.00  0.00     0.170 HD
ATOM     20  H3  UNL     1      42.815  -2.013  34.340  1.00  0.00     0.170 HD
ENDBRANCH   1   9
BRANCH   3  21
HETATM   21  N4  UNL     1      42.828  -0.671  29.237  1.00  0.00    -0.371 N 
ATOM     22  H4  UNL     1      42.736   0.187  28.694  1.00  0.00     0.161 HD
BRANCH  21  23
HETATM   23  C8  UNL     1      43.608  -1.703  28.639  1.00  0.00     0.083 C 
HETATM   24  C9  UNL     1      42.637  -2.783  28.181  1.00  0.00     0.027 C 
HETATM   25  C10 UNL     1      43.350  -3.989  27.620  1.00  0.00     0.035 C 
HETATM   26  C11 UNL     1      44.281  -3.560  26.534  1.00  0.00     0.183 C 
HETATM   27  C12 UNL     1      44.170  -2.096  26.229  1.00  0.00     0.035 C 
HETATM   28  C13 UNL     1      44.384  -1.218  27.429  1.00  0.00     0.027 C 
BRANCH  26  29
HETATM   29  N5  UNL     1      43.934  -4.276  25.303  1.00  0.00    -0.075 N 
ATOM     30  H53 UNL     1      42.952  -4.552  25.276  1.00  0.00     0.274 HD
ATOM     31  H52 UNL     1      43.933  -3.667  24.485  1.00  0.00     0.274 HD
ATOM     32  H51 UNL     1      44.565  -5.071  25.196  1.00  0.00     0.274 HD
ENDBRANCH  26  29
ENDBRANCH  21  23
ENDBRANCH   3  21
BRANCH   6  33
HETATM   33  N7  UNL     1      38.868  -0.294  31.488  1.00  0.00    -0.226 N 
ATOM     34  H7  UNL     1      38.514   0.624  31.218  1.00  0.00     0.177 HD
BRANCH  33  35
HETATM   35  C15 UNL     1      37.908  -1.291  31.879  1.00  0.00     0.138 C 
BRANCH  35  36
HETATM   36  C16 UNL     1      36.765  -1.350  30.902  1.00  0.00     0.020 C 
BRANCH  36  37
HETATM   37  C17 UNL     1      37.214  -2.138  29.694  1.00  0.00     0.002 C 
BRANCH  37  38
HETATM   38  C18 UNL     1      36.035  -2.342  28.765  1.00  0.00     0.011 C 
BRANCH  38  39
HETATM   39  C19 UNL     1      34.891  -1.418  29.080  1.00  0.00     0.085 C 
HETATM   40 BR1  UNL     1      34.182  -0.784  27.389  1.00  0.00    -0.097 Br
ENDBRANCH  38  39
ENDBRANCH  37  38
ENDBRANCH  36  37
ENDBRANCH  35  36
ENDBRANCH  33  35
ENDBRANCH   6  33
TORSDOF 10
ENDMDL
MODEL 3
REMARK VINA RESULT: -7.490479322      3.180      7.676
REMARK  10 active torsions:
REMARK  status: ('A' for Active; 'I' for Inactive)
REMARK    1  A    between atoms: N3_9  and  C5_11 
REMARK    2  A    between atoms: C7_13  and  N4_14 
REMARK    3  A    between atoms: N4_14  and  C8_16 
REMARK    4  A    between atoms: C11_19  and  N5_20 
REMARK    5  A    between atoms: C14_28  and  N7_29 
REMARK    6  A    between atoms: N7_29  and  C15_31 
REMARK    7  A    between atoms: C15_31  and  C16_32 
REMARK    8  A    between atoms: C16_32  and  C17_33 
REMARK    9  A    between atoms: C17_33  and  C18_34 
REMARK   10  A    between atoms: C18_34  and  C19_35 
ROOT
HETATM    1  C5  UNL     1      40.763  -0.983  31.151  1.00  0.00     0.127 A 
HETATM    2  C6  UNL     1      41.525  -1.370  30.066  1.00  0.00     0.097 A 
HETATM    3  C7  UNL     1      42.899  -1.396  30.092  1.00  0.00     0.120 A 
HETATM    4  N6  UNL     1      43.481  -1.015  31.258  1.00  0.00    -0.177 N 
ATOM      5  H6  UNL     1      44.499  -1.020  31.319  1.00  0.00     0.185 HD
HETATM    6  C14 UNL     1      42.781  -0.635  32.326  1.00  0.00     0.681 A 
HETATM    7  N8  UNL     1      41.422  -0.622  32.262  1.00  0.00    -0.176 N 
ATOM      8  H8  UNL     1      40.889  -0.329  33.081  1.00  0.00     0.186 HD
ENDROOT
BRANCH   1   9
HETATM    9  N3  UNL     1      39.359  -0.987  31.054  1.00  0.00    -0.312 N 
HETATM   10  C4  UNL     1      38.680  -1.791  30.314  1.00  0.00     0.201 A 
HETATM   11  N2  UNL     1      39.108  -2.816  29.457  1.00  0.00    -0.269 N 
HETATM   12  N9  UNL     1      37.259  -1.751  30.249  1.00  0.00    -0.312 N 
HETATM   13  N1  UNL     1      37.991  -3.409  28.864  1.00  0.00    -0.283 N 
ATOM     14  H2  UNL     1      40.079  -3.084  29.292  1.00  0.00     0.190 HD
HETATM   15  C3  UNL     1      36.800  -2.766  29.336  1.00  0.00     0.118 A 
ATOM     16  H1  UNL     1      38.019  -4.181  28.198  1.00  0.00     0.188 HD
HETATM   17  C2  UNL     1      35.550  -3.030  29.021  1.00  0.00     0.019 C 
HETATM   18  C1  UNL     1      35.226  -4.103  28.068  1.00  0.00     0.040 C 
ATOM     19  H9  UNL     1      36.661  -1.106  30.767  1.00  0.00     0.170 HD
ATOM     20  H3  UNL     1      38.844  -0.305  31.611  1.00  0.00     0.170 HD
ENDBRANCH   1   9
BRANCH   3  21
HETATM   21  N4  UNL     1      43.672  -1.737  29.143  1.00  0.00    -0.371 N 
ATOM     22  H4  UNL     1      44.655  -1.847  29.390  1.00  0.00     0.161 HD
BRANCH  21  23
HETATM   23  C8  UNL     1      43.345  -1.984  27.778  1.00  0.00     0.083 C 
HETATM   24  C9  UNL     1      44.473  -1.399  26.939  1.00  0.00     0.027 C 
HETATM   25  C10 UNL     1      44.196  -1.503  25.459  1.00  0.00     0.035 C 
HETATM   26  C11 UNL     1      43.898  -2.922  25.105  1.00  0.00     0.183 C 
HETATM   27  C12 UNL     1      44.064  -3.852  26.270  1.00  0.00     0.035 C 
HETATM   28  C13 UNL     1      43.240  -3.465  27.465  1.00  0.00     0.027 C 
BRANCH  26  29
HETATM   29  N5  UNL     1      44.844  -3.361  24.075  1.00  0.00    -0.075 N 
ATOM     30  H53 UNL     1      44.577  -3.047  23.142  1.00  0.00     0.274 HD
ATOM     31  H52 UNL     1      45.740  -2.878  24.137  1.00  0.00     0.274 HD
ATOM     32  H51 UNL     1      44.945  -4.375  24.130  1.00  0.00     0.274 HD
ENDBRANCH  26  29
ENDBRANCH  21  23
ENDBRANCH   3  21
BRANCH   6  33
HETATM   33  N7  UNL     1      43.292  -0.267  33.453  1.00  0.00    -0.226 N 
ATOM     34  H7  UNL     1      42.985  -0.757  34.294  1.00  0.00     0.177 HD
BRANCH  33  35
HETATM   35  C15 UNL     1      44.263   0.782  33.610  1.00  0.00     0.138 C 
BRANCH  35  36
HETATM   36  C16 UNL     1      43.900   1.684  34.759  1.00  0.00     0.020 C 
BRANCH  36  37
HETATM   37  C17 UNL     1      45.064   1.719  35.721  1.00  0.00     0.002 C 
BRANCH  37  38
HETATM   38  C18 UNL     1      45.021   3.012  36.509  1.00  0.00     0.011 C 
BRANCH  38  39
HETATM   39  C19 UNL     1      43.756   3.788  36.269  1.00  0.00     0.085 C 
HETATM   40 BR1  UNL     1      43.580   5.065  37.718  1.00  0.00    -0.097 Br
ENDBRANCH  38  39
ENDBRANCH  37  38
ENDBRANCH  36  37
ENDBRANCH  35  36
ENDBRANCH  33  35
ENDBRANCH   6  33
TORSDOF 10
ENDMDL
MODEL 4
REMARK VINA RESULT: -7.484079926      2.226      2.650
REMARK  10 active torsions:
REMARK  status: ('A' for Active; 'I' for Inactive)
REMARK    1  A    between atoms: N3_9  and  C5_11 
REMARK    2  A    between atoms: C7_13  and  N4_14 
REMARK    3  A    between atoms: N4_14  and  C8_16 
REMARK    4  A    between atoms: C11_19  and  N5_20 
REMARK    5  A    between atoms: C14_28  and  N7_29 
REMARK    6  A    between atoms: N7_29  and  C15_31 
REMARK    7  A    between atoms: C15_31  and  C16_32 
REMARK    8  A    between atoms: C16_32  and  C17_33 
REMARK    9  A    between atoms: C17_33  and  C18_34 
REMARK   10  A    between atoms: C18_34  and  C19_35 
ROOT
HETATM    1  C5  UNL     1      42.524  -0.940  32.575  1.00  0.00     0.127 A 
HETATM    2  C6  UNL     1      43.402  -1.238  31.551  1.00  0.00     0.097 A 
HETATM    3  C7  UNL     1      43.054  -1.154  30.224  1.00  0.00     0.120 A 
HETATM    4  N6  UNL     1      41.781  -0.758  29.965  1.00  0.00    -0.177 N 
ATOM      5  H6  UNL     1      41.483  -0.683  28.992  1.00  0.00     0.185 HD
HETATM    6  C14 UNL     1      40.905  -0.464  30.924  1.00  0.00     0.681 A 
HETATM    7  N8  UNL     1      41.287  -0.559  32.227  1.00  0.00    -0.176 N 
ATOM      8  H8  UNL     1      40.613  -0.333  32.959  1.00  0.00     0.186 HD
ENDROOT
BRANCH   1   9
HETATM    9  N3  UNL     1      42.952  -1.042  33.912  1.00  0.00    -0.312 N 
HETATM   10  C4  UNL     1      43.414  -0.063  34.607  1.00  0.00     0.201 A 
HETATM   11  N2  UNL     1      43.610   1.282  34.262  1.00  0.00    -0.269 N 
HETATM   12  N9  UNL     1      43.837  -0.220  35.957  1.00  0.00    -0.312 N 
HETATM   13  N1  UNL     1      44.142   1.961  35.361  1.00  0.00    -0.283 N 
ATOM     14  H2  UNL     1      43.398   1.699  33.355  1.00  0.00     0.190 HD
HETATM   15  C3  UNL     1      44.304   1.049  36.455  1.00  0.00     0.118 A 
ATOM     16  H1  UNL     1      44.380   2.953  35.381  1.00  0.00     0.188 HD
HETATM   17  C2  UNL     1      44.771   1.294  37.660  1.00  0.00     0.019 C 
HETATM   18  C1  UNL     1      45.214   2.647  38.034  1.00  0.00     0.040 C 
ATOM     19  H9  UNL     1      43.813  -1.092  36.487  1.00  0.00     0.170 HD
ATOM     20  H3  UNL     1      42.890  -1.956  34.361  1.00  0.00     0.170 HD
ENDBRANCH   1   9
BRANCH   3  21
HETATM   21  N4  UNL     1      43.797  -1.408  29.225  1.00  0.00    -0.371 N 
ATOM     22  H4  UNL     1      44.801  -1.361  29.396  1.00  0.00     0.161 HD
BRANCH  21  23
HETATM   23  C8  UNL     1      43.410  -1.751  27.897  1.00  0.00     0.083 C 
HETATM   24  C9  UNL     1      44.545  -1.317  26.979  1.00  0.00     0.027 C 
HETATM   25  C10 UNL     1      44.213  -1.530  25.523  1.00  0.00     0.035 C 
HETATM   26  C11 UNL     1      43.813  -2.952  25.303  1.00  0.00     0.183 C 
HETATM   27  C12 UNL     1      43.958  -3.786  26.542  1.00  0.00     0.035 C 
HETATM   28  C13 UNL     1      43.199  -3.243  27.719  1.00  0.00     0.027 C 
BRANCH  26  29
HETATM   29  N5  UNL     1      44.695  -3.541  24.291  1.00  0.00    -0.075 N 
ATOM     30  H53 UNL     1      45.423  -2.895  23.986  1.00  0.00     0.274 HD
ATOM     31  H52 UNL     1      45.300  -4.267  24.676  1.00  0.00     0.274 HD
ATOM     32  H51 UNL     1      44.126  -3.880  23.516  1.00  0.00     0.274 HD
ENDBRANCH  26  29
ENDBRANCH  21  23
ENDBRANCH   3  21
BRANCH   6  33
HETATM   33  N7  UNL     1      39.688  -0.083  30.723  1.00  0.00    -0.226 N 
ATOM     34  H7  UNL     1      39.326  -0.139  29.771  1.00  0.00     0.177 HD
BRANCH  33  35
HETATM   35  C15 UNL     1      38.805   0.416  31.743  1.00  0.00     0.138 C 
BRANCH  35  36
HETATM   36  C16 UNL     1      37.537  -0.393  31.800  1.00  0.00     0.020 C 
BRANCH  36  37
HETATM   37  C17 UNL     1      36.510   0.390  32.584  1.00  0.00     0.002 C 
BRANCH  37  38
HETATM   38  C18 UNL     1      37.164   1.626  33.166  1.00  0.00     0.011 C 
BRANCH  38  39
HETATM   39  C19 UNL     1      36.175   2.528  33.853  1.00  0.00     0.085 C 
HETATM   40 BR1  UNL     1      37.127   3.456  35.265  1.00  0.00    -0.097 Br
ENDBRANCH  38  39
ENDBRANCH  37  38
ENDBRANCH  36  37
ENDBRANCH  35  36
ENDBRANCH  33  35
ENDBRANCH   6  33
TORSDOF 10
ENDMDL
MODEL 5
REMARK VINA RESULT: -7.430266244      2.099      2.503
REMARK  10 active torsions:
REMARK  status: ('A' for Active; 'I' for Inactive)
REMARK    1  A    between atoms: N3_9  and  C5_11 
REMARK    2  A    between atoms: C7_13  and  N4_14 
REMARK    3  A    between atoms: N4_14  and  C8_16 
REMARK    4  A    between atoms: C11_19  and  N5_20 
REMARK    5  A    between atoms: C14_28  and  N7_29 
REMARK    6  A    between atoms: N7_29  and  C15_31 
REMARK    7  A    between atoms: C15_31  and  C16_32 
REMARK    8  A    between atoms: C16_32  and  C17_33 
REMARK    9  A    between atoms: C17_33  and  C18_34 
REMARK   10  A    between atoms: C18_34  and  C19_35 
ROOT
HETATM    1  C5  UNL     1      42.475  -0.973  32.559  1.00  0.00     0.127 A 
HETATM    2  C6  UNL     1      43.365  -1.232  31.535  1.00  0.00     0.097 A 
HETATM    3  C7  UNL     1      43.013  -1.171  30.208  1.00  0.00     0.120 A 
HETATM    4  N6  UNL     1      41.722  -0.838  29.948  1.00  0.00    -0.177 N 
ATOM      5  H6  UNL     1      41.419  -0.782  28.976  1.00  0.00     0.185 HD
HETATM    6  C14 UNL     1      40.834  -0.581  30.907  1.00  0.00     0.681 A 
HETATM    7  N8  UNL     1      41.220  -0.652  32.210  1.00  0.00    -0.176 N 
ATOM      8  H8  UNL     1      40.537  -0.456  32.942  1.00  0.00     0.186 HD
ENDROOT
BRANCH   1   9
HETATM    9  N3  UNL     1      42.908  -1.048  33.895  1.00  0.00    -0.312 N 
HETATM   10  C4  UNL     1      43.384  -0.058  34.565  1.00  0.00     0.201 A 
HETATM   11  N2  UNL     1      43.591   1.277  34.188  1.00  0.00    -0.269 N 
HETATM   12  N9  UNL     1      43.812  -0.187  35.916  1.00  0.00    -0.312 N 
HETATM   13  N1  UNL     1      44.136   1.976  35.268  1.00  0.00    -0.283 N 
ATOM     14  H2  UNL     1      43.379   1.675  33.272  1.00  0.00     0.190 HD
HETATM   15  C3  UNL     1      44.294   1.088  36.383  1.00  0.00     0.118 A 
ATOM     16  H1  UNL     1      44.384   2.966  35.264  1.00  0.00     0.188 HD
HETATM   17  C2  UNL     1      44.770   1.356  37.579  1.00  0.00     0.019 C 
HETATM   18  C1  UNL     1      45.228   2.712  37.919  1.00  0.00     0.040 C 
ATOM     19  H9  UNL     1      43.782  -1.046  36.467  1.00  0.00     0.170 HD
ATOM     20  H3  UNL     1      42.840  -1.950  34.366  1.00  0.00     0.170 HD
ENDBRANCH   1   9
BRANCH   3  21
HETATM   21  N4  UNL     1      43.766  -1.395  29.209  1.00  0.00    -0.371 N 
ATOM     22  H4  UNL     1      44.767  -1.317  29.383  1.00  0.00     0.161 HD
BRANCH  21  23
HETATM   23  C8  UNL     1      43.393  -1.739  27.877  1.00  0.00     0.083 C 
HETATM   24  C9  UNL     1      44.542  -1.316  26.973  1.00  0.00     0.027 C 
HETATM   25  C10 UNL     1      44.227  -1.532  25.513  1.00  0.00     0.035 C 
HETATM   26  C11 UNL     1      43.821  -2.952  25.293  1.00  0.00     0.183 C 
HETATM   27  C12 UNL     1      43.945  -3.783  26.536  1.00  0.00     0.035 C 
HETATM   28  C13 UNL     1      43.175  -3.230  27.702  1.00  0.00     0.027 C 
BRANCH  26  29
HETATM   29  N5  UNL     1      44.712  -3.550  24.294  1.00  0.00    -0.075 N 
ATOM     30  H53 UNL     1      44.665  -3.071  23.395  1.00  0.00     0.274 HD
ATOM     31  H52 UNL     1      45.697  -3.377  24.496  1.00  0.00     0.274 HD
ATOM     32  H51 UNL     1      44.500  -4.544  24.217  1.00  0.00     0.274 HD
ENDBRANCH  26  29
ENDBRANCH  21  23
ENDBRANCH   3  21
BRANCH   6  33
HETATM   33  N7  UNL     1      39.600  -0.260  30.706  1.00  0.00    -0.226 N 
ATOM     34  H7  UNL     1      39.411   0.645  30.273  1.00  0.00     0.177 HD
BRANCH  33  35
HETATM   35  C15 UNL     1      38.471  -1.084  31.047  1.00  0.00     0.138 C 
BRANCH  35  36
HETATM   36  C16 UNL     1      38.305  -2.206  30.058  1.00  0.00     0.020 C 
BRANCH  36  37
HETATM   37  C17 UNL     1      38.540  -3.513  30.778  1.00  0.00     0.002 C 
BRANCH  37  38
HETATM   38  C18 UNL     1      39.946  -3.996  30.489  1.00  0.00     0.011 C 
BRANCH  38  39
HETATM   39  C19 UNL     1      40.710  -4.322  31.743  1.00  0.00     0.085 C 
HETATM   40 BR1  UNL     1      42.486  -4.884  31.204  1.00  0.00    -0.097 Br
ENDBRANCH  38  39
ENDBRANCH  37  38
ENDBRANCH  36  37
ENDBRANCH  35  36
ENDBRANCH  33  35
ENDBRANCH   6  33
TORSDOF 10
ENDMDL
