MODEL 1
REMARK VINA RESULT: -6.849313444      0.000      0.000
REMARK  12 active torsions:
REMARK  status: ('A' for Active; 'I' for Inactive)
REMARK    1  A    between atoms: C7_8  and  C8_9 
REMARK       I    between atoms: C8_9  and  N1_11 
REMARK    2  A    between atoms: N1_11  and  N2_13 
REMARK    3  A    between atoms: N2_13  and  C9_15 
REMARK    4  A    between atoms: C9_15  and  N3_17 
REMARK    5  A    between atoms: N3_17  and  C10_19 
REMARK    6  A    between atoms: C10_19  and  C11_20 
REMARK    7  A    between atoms: C11_20  and  C12_21 
REMARK    8  A    between atoms: C12_21  and  C13_22 
REMARK    9  A    between atoms: C13_22  and  N4_23 
REMARK   10  A    between atoms: N4_23  and  C14_25 
REMARK   11  A    between atoms: C14_25  and  N5_27 
REMARK   12  A    between atoms: N5_27  and  C15_29 
ROOT
HETATM    1  N3  UNL     1      42.383   2.645  35.844  1.00  0.00    -0.366 N 
ATOM      2  H3  UNL     1      41.791   3.410  35.523  1.00  0.00     0.161 HD
ENDROOT
BRANCH   1   3
HETATM    3  C9  UNL     1      43.285   2.904  36.865  1.00  0.00     0.186 C 
HETATM    4  S1  UNL     1      43.756   4.491  37.125  1.00  0.00    -0.040 SA
BRANCH   3   5
HETATM    5  N2  UNL     1      43.853   1.942  37.721  1.00  0.00    -0.274 N 
ATOM      6  H2  UNL     1      43.292   1.444  38.412  1.00  0.00     0.189 HD
BRANCH   5   7
HETATM    7  N1  UNL     1      45.268   1.694  37.574  1.00  0.00    -0.264 N 
HETATM    8  C8  UNL     1      45.653   0.365  37.270  1.00  0.00     0.270 C 
HETATM    9  O1  UNL     1      44.811  -0.563  37.215  1.00  0.00    -0.266 OA
ATOM     10  H1  UNL     1      45.956   2.440  37.683  1.00  0.00     0.190 HD
BRANCH   8  11
HETATM   11  C7  UNL     1      47.044   0.046  36.994  1.00  0.00     0.039 A 
HETATM   12  C2  UNL     1      47.803  -0.188  38.157  1.00  0.00    -0.045 A 
HETATM   13  C1  UNL     1      47.203  -0.063  39.508  1.00  0.00     0.049 C 
HETATM   14  C3  UNL     1      49.131  -0.509  37.985  1.00  0.00     0.031 A 
HETATM   15  C4  UNL     1      49.672  -0.590  36.723  1.00  0.00     0.034 A 
HETATM   16 CL1  UNL     1      51.389  -1.007  36.602  1.00  0.00    -0.084 Cl
HETATM   17  C5  UNL     1      48.924  -0.362  35.598  1.00  0.00     0.025 A 
HETATM   18  C6  UNL     1      47.570  -0.035  35.744  1.00  0.00     0.019 A 
ENDBRANCH   8  11
ENDBRANCH   5   7
ENDBRANCH   3   5
ENDBRANCH   1   3
BRANCH   1  19
HETATM   19  C10 UNL     1      42.232   1.345  35.203  1.00  0.00     0.122 C 
BRANCH  19  20
HETATM   20  C11 UNL     1      43.440   1.250  34.289  1.00  0.00     0.021 C 
BRANCH  20  21
HETATM   21  C12 UNL     1      43.694  -0.107  33.748  1.00  0.00     0.021 C 
BRANCH  21  22
HETATM   22  C13 UNL     1      42.582  -0.556  32.781  1.00  0.00     0.122 C 
BRANCH  22  23
HETATM   23  N4  UNL     1      43.259  -0.752  31.482  1.00  0.00    -0.367 N 
ATOM     24  H4  UNL     1      44.279  -0.747  31.442  1.00  0.00     0.161 HD
BRANCH  23  25
HETATM   25  C14 UNL     1      42.507  -0.950  30.279  1.00  0.00     0.167 C 
HETATM   26  S2  UNL     1      40.918  -1.228  30.440  1.00  0.00    -0.041 SA
BRANCH  25  27
HETATM   27  N5  UNL     1      43.103  -0.926  29.014  1.00  0.00    -0.363 N 
ATOM     28  H5  UNL     1      42.950  -0.049  28.517  1.00  0.00     0.162 HD
BRANCH  27  29
HETATM   29  C15 UNL     1      43.861  -1.844  28.284  1.00  0.00     0.087 C 
HETATM   30  C16 UNL     1      43.182  -2.956  27.579  1.00  0.00     0.052 C 
HETATM   31  C17 UNL     1      44.154  -3.608  26.571  1.00  0.00     0.234 C 
HETATM   32  N6  UNL     1      44.418  -2.683  25.492  1.00  0.00    -0.075 N 
HETATM   33  C18 UNL     1      44.175  -1.305  25.902  1.00  0.00     0.234 C 
ATOM     34  H62 UNL     1      45.361  -2.801  25.120  1.00  0.00     0.277 HD
ATOM     35  H61 UNL     1      43.887  -2.923  24.655  1.00  0.00     0.277 HD
HETATM   36  C19 UNL     1      44.715  -1.031  27.287  1.00  0.00     0.052 C 
ENDBRANCH  27  29
ENDBRANCH  25  27
ENDBRANCH  23  25
ENDBRANCH  22  23
ENDBRANCH  21  22
ENDBRANCH  20  21
ENDBRANCH  19  20
ENDBRANCH   1  19
TORSDOF 12
ENDMDL
MODEL 2
REMARK VINA RESULT: -6.775527720      1.311      1.942
REMARK  12 active torsions:
REMARK  status: ('A' for Active; 'I' for Inactive)
REMARK    1  A    between atoms: C7_8  and  C8_9 
REMARK       I    between atoms: C8_9  and  N1_11 
REMARK    2  A    between atoms: N1_11  and  N2_13 
REMARK    3  A    between atoms: N2_13  and  C9_15 
REMARK    4  A    between atoms: C9_15  and  N3_17 
REMARK    5  A    between atoms: N3_17  and  C10_19 
REMARK    6  A    between atoms: C10_19  and  C11_20 
REMARK    7  A    between atoms: C11_20  and  C12_21 
REMARK    8  A    between atoms: C12_21  and  C13_22 
REMARK    9  A    between atoms: C13_22  and  N4_23 
REMARK   10  A    between atoms: N4_23  and  C14_25 
REMARK   11  A    between atoms: C14_25  and  N5_27 
REMARK   12  A    between atoms: N5_27  and  C15_29 
ROOT
HETATM    1  N3  UNL     1      43.137   2.003  35.214  1.00  0.00    -0.366 N 
ATOM      2  H3  UNL     1      42.716   2.627  34.528  1.00  0.00     0.161 HD
ENDROOT
BRANCH   1   3
HETATM    3  C9  UNL     1      44.333   2.390  35.801  1.00  0.00     0.186 C 
HETATM    4  S1  UNL     1      44.285   3.542  37.016  1.00  0.00    -0.040 SA
BRANCH   3   5
HETATM    5  N2  UNL     1      45.608   1.896  35.466  1.00  0.00    -0.274 N 
ATOM      6  H2  UNL     1      45.886   1.746  34.496  1.00  0.00     0.189 HD
BRANCH   5   7
HETATM    7  N1  UNL     1      46.503   1.613  36.563  1.00  0.00    -0.264 N 
HETATM    8  C8  UNL     1      46.657   0.251  36.924  1.00  0.00     0.270 C 
HETATM    9  O1  UNL     1      45.983  -0.651  36.372  1.00  0.00    -0.266 OA
ATOM     10  H1  UNL     1      47.001   2.356  37.053  1.00  0.00     0.190 HD
BRANCH   8  11
HETATM   11  C7  UNL     1      47.620  -0.138  37.940  1.00  0.00     0.039 A 
HETATM   12  C2  UNL     1      48.931  -0.272  37.442  1.00  0.00    -0.045 A 
HETATM   13  C1  UNL     1      49.235  -0.070  36.004  1.00  0.00     0.049 C 
HETATM   14  C3  UNL     1      49.910  -0.626  38.343  1.00  0.00     0.031 A 
HETATM   15  C4  UNL     1      49.599  -0.837  39.666  1.00  0.00     0.034 A 
HETATM   16 CL1  UNL     1      50.925  -1.292  40.749  1.00  0.00    -0.084 Cl
HETATM   17  C5  UNL     1      48.321  -0.702  40.140  1.00  0.00     0.025 A 
HETATM   18  C6  UNL     1      47.305  -0.341  39.245  1.00  0.00     0.019 A 
ENDBRANCH   8  11
ENDBRANCH   5   7
ENDBRANCH   3   5
ENDBRANCH   1   3
BRANCH   1  19
HETATM   19  C10 UNL     1      42.448   0.755  35.521  1.00  0.00     0.122 C 
BRANCH  19  20
HETATM   20  C11 UNL     1      42.279   0.093  34.165  1.00  0.00     0.021 C 
BRANCH  20  21
HETATM   21  C12 UNL     1      42.763  -1.306  34.103  1.00  0.00     0.021 C 
BRANCH  21  22
HETATM   22  C13 UNL     1      42.772  -1.847  32.660  1.00  0.00     0.122 C 
BRANCH  22  23
HETATM   23  N4  UNL     1      42.748  -0.645  31.800  1.00  0.00    -0.367 N 
ATOM     24  H4  UNL     1      43.203   0.210  32.119  1.00  0.00     0.161 HD
BRANCH  23  25
HETATM   25  C14 UNL     1      42.095  -0.662  30.525  1.00  0.00     0.167 C 
HETATM   26  S2  UNL     1      40.473  -0.644  30.526  1.00  0.00    -0.041 SA
BRANCH  25  27
HETATM   27  N5  UNL     1      42.807  -0.711  29.322  1.00  0.00    -0.363 N 
ATOM     28  H5  UNL     1      42.766   0.162  28.797  1.00  0.00     0.162 HD
BRANCH  27  29
HETATM   29  C15 UNL     1      43.563  -1.698  28.686  1.00  0.00     0.087 C 
HETATM   30  C16 UNL     1      42.877  -2.834  28.027  1.00  0.00     0.052 C 
HETATM   31  C17 UNL     1      43.865  -3.580  27.104  1.00  0.00     0.234 C 
HETATM   32  N6  UNL     1      44.201  -2.737  25.979  1.00  0.00    -0.075 N 
HETATM   33  C18 UNL     1      43.986  -1.328  26.287  1.00  0.00     0.234 C 
ATOM     34  H62 UNL     1      45.153  -2.907  25.654  1.00  0.00     0.277 HD
ATOM     35  H61 UNL     1      43.695  -3.016  25.138  1.00  0.00     0.277 HD
HETATM   36  C19 UNL     1      44.480  -0.979  27.673  1.00  0.00     0.052 C 
ENDBRANCH  27  29
ENDBRANCH  25  27
ENDBRANCH  23  25
ENDBRANCH  22  23
ENDBRANCH  21  22
ENDBRANCH  20  21
ENDBRANCH  19  20
ENDBRANCH   1  19
TORSDOF 12
ENDMDL
MODEL 3
REMARK VINA RESULT: -6.616192477      3.907      9.719
REMARK  12 active torsions:
REMARK  status: ('A' for Active; 'I' for Inactive)
REMARK    1  A    between atoms: C7_8  and  C8_9 
REMARK       I    between atoms: C8_9  and  N1_11 
REMARK    2  A    between atoms: N1_11  and  N2_13 
REMARK    3  A    between atoms: N2_13  and  C9_15 
REMARK    4  A    between atoms: C9_15  and  N3_17 
REMARK    5  A    between atoms: N3_17  and  C10_19 
REMARK    6  A    between atoms: C10_19  and  C11_20 
REMARK    7  A    between atoms: C11_20  and  C12_21 
REMARK    8  A    between atoms: C12_21  and  C13_22 
REMARK    9  A    between atoms: C13_22  and  N4_23 
REMARK   10  A    between atoms: N4_23  and  C14_25 
REMARK   11  A    between atoms: C14_25  and  N5_27 
REMARK   12  A    between atoms: N5_27  and  C15_29 
ROOT
HETATM    1  N3  UNL     1      40.528  -0.269  33.102  1.00  0.00    -0.366 N 
ATOM      2  H3  UNL     1      39.739   0.369  33.206  1.00  0.00     0.161 HD
ENDROOT
BRANCH   1   3
HETATM    3  C9  UNL     1      40.894  -0.648  31.820  1.00  0.00     0.186 C 
HETATM    4  S1  UNL     1      39.864  -1.654  30.963  1.00  0.00    -0.040 SA
BRANCH   3   5
HETATM    5  N2  UNL     1      42.073  -0.260  31.155  1.00  0.00    -0.274 N 
ATOM      6  H2  UNL     1      42.797   0.284  31.625  1.00  0.00     0.189 HD
BRANCH   5   7
HETATM    7  N1  UNL     1      42.207  -0.669  29.777  1.00  0.00    -0.264 N 
HETATM    8  C8  UNL     1      43.452  -1.230  29.397  1.00  0.00     0.270 C 
HETATM    9  O1  UNL     1      44.413  -1.289  30.200  1.00  0.00    -0.266 OA
ATOM     10  H1  UNL     1      41.443  -0.559  29.109  1.00  0.00     0.190 HD
BRANCH   8  11
HETATM   11  C7  UNL     1      43.639  -1.771  28.062  1.00  0.00     0.039 A 
HETATM   12  C2  UNL     1      43.366  -3.150  27.976  1.00  0.00    -0.045 A 
HETATM   13  C1  UNL     1      42.974  -3.935  29.173  1.00  0.00     0.049 C 
HETATM   14  C3  UNL     1      43.508  -3.741  26.741  1.00  0.00     0.031 A 
HETATM   15  C4  UNL     1      43.901  -2.999  25.651  1.00  0.00     0.034 A 
HETATM   16 CL1  UNL     1      44.057  -3.847  24.105  1.00  0.00    -0.084 Cl
HETATM   17  C5  UNL     1      44.163  -1.657  25.746  1.00  0.00     0.025 A 
HETATM   18  C6  UNL     1      44.025  -1.030  26.991  1.00  0.00     0.019 A 
ENDBRANCH   8  11
ENDBRANCH   5   7
ENDBRANCH   3   5
ENDBRANCH   1   3
BRANCH   1  19
HETATM   19  C10 UNL     1      41.202  -0.727  34.310  1.00  0.00     0.122 C 
BRANCH  19  20
HETATM   20  C11 UNL     1      42.165   0.400  34.636  1.00  0.00     0.021 C 
BRANCH  20  21
HETATM   21  C12 UNL     1      43.597   0.040  34.504  1.00  0.00     0.021 C 
BRANCH  21  22
HETATM   22  C13 UNL     1      44.403   1.145  33.795  1.00  0.00     0.122 C 
BRANCH  22  23
HETATM   23  N4  UNL     1      45.777   1.017  34.326  1.00  0.00    -0.367 N 
ATOM     24  H4  UNL     1      46.543   0.797  33.689  1.00  0.00     0.161 HD
BRANCH  23  25
HETATM   25  C14 UNL     1      46.050   1.198  35.721  1.00  0.00     0.167 C 
HETATM   26  S2  UNL     1      46.832  -0.001  36.481  1.00  0.00    -0.041 SA
BRANCH  25  27
HETATM   27  N5  UNL     1      45.651   2.344  36.417  1.00  0.00    -0.363 N 
ATOM     28  H5  UNL     1      46.239   3.155  36.222  1.00  0.00     0.162 HD
BRANCH  27  29
HETATM   29  C15 UNL     1      44.623   2.618  37.321  1.00  0.00     0.087 C 
HETATM   30  C16 UNL     1      44.948   3.199  38.644  1.00  0.00     0.052 C 
HETATM   31  C17 UNL     1      43.663   3.740  39.309  1.00  0.00     0.234 C 
HETATM   32  N6  UNL     1      43.194   4.896  38.579  1.00  0.00    -0.075 N 
HETATM   33  C18 UNL     1      43.688   4.894  37.207  1.00  0.00     0.234 C 
ATOM     34  H62 UNL     1      42.177   4.970  38.610  1.00  0.00     0.277 HD
ATOM     35  H61 UNL     1      43.431   5.763  39.060  1.00  0.00     0.277 HD
HETATM   36  C19 UNL     1      43.606   3.517  36.586  1.00  0.00     0.052 C 
ENDBRANCH  27  29
ENDBRANCH  25  27
ENDBRANCH  23  25
ENDBRANCH  22  23
ENDBRANCH  21  22
ENDBRANCH  20  21
ENDBRANCH  19  20
ENDBRANCH   1  19
TORSDOF 12
ENDMDL
MODEL 4
REMARK VINA RESULT: -6.610345711      2.935      4.449
REMARK  12 active torsions:
REMARK  status: ('A' for Active; 'I' for Inactive)
REMARK    1  A    between atoms: C7_8  and  C8_9 
REMARK       I    between atoms: C8_9  and  N1_11 
REMARK    2  A    between atoms: N1_11  and  N2_13 
REMARK    3  A    between atoms: N2_13  and  C9_15 
REMARK    4  A    between atoms: C9_15  and  N3_17 
REMARK    5  A    between atoms: N3_17  and  C10_19 
REMARK    6  A    between atoms: C10_19  and  C11_20 
REMARK    7  A    between atoms: C11_20  and  C12_21 
REMARK    8  A    between atoms: C12_21  and  C13_22 
REMARK    9  A    between atoms: C13_22  and  N4_23 
REMARK   10  A    between atoms: N4_23  and  C14_25 
REMARK   11  A    between atoms: C14_25  and  N5_27 
REMARK   12  A    between atoms: N5_27  and  C15_29 
ROOT
HETATM    1  N3  UNL     1      41.673  -0.752  30.921  1.00  0.00    -0.366 N 
ATOM      2  H3  UNL     1      42.300  -1.187  30.245  1.00  0.00     0.161 HD
ENDROOT
BRANCH   1   3
HETATM    3  C9  UNL     1      42.172  -0.465  32.182  1.00  0.00     0.186 C 
HETATM    4  S1  UNL     1      41.088  -0.321  33.452  1.00  0.00    -0.040 SA
BRANCH   3   5
HETATM    5  N2  UNL     1      43.530  -0.281  32.504  1.00  0.00    -0.274 N 
ATOM      6  H2  UNL     1      44.260  -0.329  31.792  1.00  0.00     0.189 HD
BRANCH   5   7
HETATM    7  N1  UNL     1      43.840  -0.022  33.890  1.00  0.00    -0.264 N 
HETATM    8  C8  UNL     1      44.994   0.759  34.150  1.00  0.00     0.270 C 
HETATM    9  O1  UNL     1      45.751   1.133  33.222  1.00  0.00    -0.266 OA
ATOM     10  H1  UNL     1      43.257  -0.383  34.646  1.00  0.00     0.190 HD
BRANCH   8  11
HETATM   11  C7  UNL     1      45.320   1.164  35.506  1.00  0.00     0.039 A 
HETATM   12  C2  UNL     1      44.545   2.247  35.966  1.00  0.00    -0.045 A 
HETATM   13  C1  UNL     1      43.541   2.903  35.093  1.00  0.00     0.049 C 
HETATM   14  C3  UNL     1      44.783   2.686  37.249  1.00  0.00     0.031 A 
HETATM   15  C4  UNL     1      45.740   2.081  38.030  1.00  0.00     0.034 A 
HETATM   16 CL1  UNL     1      45.974   2.717  39.666  1.00  0.00    -0.084 Cl
HETATM   17  C5  UNL     1      46.486   1.026  37.573  1.00  0.00     0.025 A 
HETATM   18  C6  UNL     1      46.264   0.558  36.271  1.00  0.00     0.019 A 
ENDBRANCH   8  11
ENDBRANCH   5   7
ENDBRANCH   3   5
ENDBRANCH   1   3
BRANCH   1  19
HETATM   19  C10 UNL     1      40.305  -0.469  30.503  1.00  0.00     0.122 C 
BRANCH  19  20
HETATM   20  C11 UNL     1      39.817  -1.792  29.941  1.00  0.00     0.021 C 
BRANCH  20  21
HETATM   21  C12 UNL     1      39.891  -2.926  30.893  1.00  0.00     0.021 C 
BRANCH  21  22
HETATM   22  C13 UNL     1      40.402  -4.211  30.214  1.00  0.00     0.122 C 
BRANCH  22  23
HETATM   23  N4  UNL     1      41.258  -3.745  29.104  1.00  0.00    -0.367 N 
ATOM     24  H4  UNL     1      40.826  -3.369  28.260  1.00  0.00     0.161 HD
BRANCH  23  25
HETATM   25  C14 UNL     1      42.687  -3.812  29.194  1.00  0.00     0.167 C 
HETATM   26  S2  UNL     1      43.312  -4.940  30.177  1.00  0.00    -0.041 SA
BRANCH  25  27
HETATM   27  N5  UNL     1      43.521  -2.940  28.487  1.00  0.00    -0.363 N 
ATOM     28  H5  UNL     1      43.674  -2.055  28.968  1.00  0.00     0.162 HD
BRANCH  27  29
HETATM   29  C15 UNL     1      44.189  -3.021  27.263  1.00  0.00     0.087 C 
HETATM   30  C16 UNL     1      43.499  -3.605  26.090  1.00  0.00     0.052 C 
HETATM   31  C17 UNL     1      44.277  -3.264  24.800  1.00  0.00     0.234 C 
HETATM   32  N6  UNL     1      44.173  -1.846  24.537  1.00  0.00    -0.075 N 
HETATM   33  C18 UNL     1      43.873  -1.100  25.754  1.00  0.00     0.234 C 
ATOM     34  H62 UNL     1      45.010  -1.489  24.076  1.00  0.00     0.277 HD
ATOM     35  H61 UNL     1      43.493  -1.651  23.802  1.00  0.00     0.277 HD
HETATM   36  C19 UNL     1      44.686  -1.598  26.927  1.00  0.00     0.052 C 
ENDBRANCH  27  29
ENDBRANCH  25  27
ENDBRANCH  23  25
ENDBRANCH  22  23
ENDBRANCH  21  22
ENDBRANCH  20  21
ENDBRANCH  19  20
ENDBRANCH   1  19
TORSDOF 12
ENDMDL
MODEL 5
REMARK VINA RESULT: -6.597778373      3.649      9.520
REMARK  12 active torsions:
REMARK  status: ('A' for Active; 'I' for Inactive)
REMARK    1  A    between atoms: C7_8  and  C8_9 
REMARK       I    between atoms: C8_9  and  N1_11 
REMARK    2  A    between atoms: N1_11  and  N2_13 
REMARK    3  A    between atoms: N2_13  and  C9_15 
REMARK    4  A    between atoms: C9_15  and  N3_17 
REMARK    5  A    between atoms: N3_17  and  C10_19 
REMARK    6  A    between atoms: C10_19  and  C11_20 
REMARK    7  A    between atoms: C11_20  and  C12_21 
REMARK    8  A    between atoms: C12_21  and  C13_22 
REMARK    9  A    between atoms: C13_22  and  N4_23 
REMARK   10  A    between atoms: N4_23  and  C14_25 
REMARK   11  A    between atoms: C14_25  and  N5_27 
REMARK   12  A    between atoms: N5_27  and  C15_29 
ROOT
HETATM    1  N3  UNL     1      42.217  -2.007  33.126  1.00  0.00    -0.366 N 
ATOM      2  H3  UNL     1      42.833  -2.767  32.836  1.00  0.00     0.161 HD
ENDROOT
BRANCH   1   3
HETATM    3  C9  UNL     1      41.215  -1.611  32.254  1.00  0.00     0.186 C 
HETATM    4  S1  UNL     1      39.758  -2.439  32.289  1.00  0.00    -0.040 SA
BRANCH   3   5
HETATM    5  N2  UNL     1      41.305  -0.558  31.325  1.00  0.00    -0.274 N 
ATOM      6  H2  UNL     1      41.166   0.414  31.604  1.00  0.00     0.189 HD
BRANCH   5   7
HETATM    7  N1  UNL     1      41.604  -0.919  29.960  1.00  0.00    -0.264 N 
HETATM    8  C8  UNL     1      42.955  -1.229  29.665  1.00  0.00     0.270 C 
HETATM    9  O1  UNL     1      43.856  -1.114  30.530  1.00  0.00    -0.266 OA
ATOM     10  H1  UNL     1      40.879  -0.949  29.243  1.00  0.00     0.190 HD
BRANCH   8  11
HETATM   11  C7  UNL     1      43.329  -1.711  28.346  1.00  0.00     0.039 A 
HETATM   12  C2  UNL     1      42.978  -3.057  28.123  1.00  0.00    -0.045 A 
HETATM   13  C1  UNL     1      42.333  -3.871  29.183  1.00  0.00     0.049 C 
HETATM   14  C3  UNL     1      43.285  -3.589  26.892  1.00  0.00     0.031 A 
HETATM   15  C4  UNL     1      43.911  -2.823  25.935  1.00  0.00     0.034 A 
HETATM   16 CL1  UNL     1      44.268  -3.596  24.382  1.00  0.00    -0.084 Cl
HETATM   17  C5  UNL     1      44.247  -1.514  26.161  1.00  0.00     0.025 A 
HETATM   18  C6  UNL     1      43.943  -0.946  27.406  1.00  0.00     0.019 A 
ENDBRANCH   8  11
ENDBRANCH   5   7
ENDBRANCH   3   5
ENDBRANCH   1   3
BRANCH   1  19
HETATM   19  C10 UNL     1      42.445  -1.403  34.433  1.00  0.00     0.122 C 
BRANCH  19  20
HETATM   20  C11 UNL     1      43.404  -0.263  34.143  1.00  0.00     0.021 C 
BRANCH  20  21
HETATM   21  C12 UNL     1      44.304   0.083  35.268  1.00  0.00     0.021 C 
BRANCH  21  22
HETATM   22  C13 UNL     1      45.533   0.881  34.796  1.00  0.00     0.122 C 
BRANCH  22  23
HETATM   23  N4  UNL     1      46.110   1.462  36.027  1.00  0.00    -0.367 N 
ATOM     24  H4  UNL     1      46.141   2.476  36.137  1.00  0.00     0.161 HD
BRANCH  23  25
HETATM   25  C14 UNL     1      46.625   0.624  37.069  1.00  0.00     0.167 C 
HETATM   26  S2  UNL     1      46.475   1.162  38.591  1.00  0.00    -0.041 SA
BRANCH  25  27
HETATM   27  N5  UNL     1      47.249  -0.599  36.802  1.00  0.00    -0.363 N 
ATOM     28  H5  UNL     1      46.680  -1.404  37.064  1.00  0.00     0.162 HD
BRANCH  27  29
HETATM   29  C15 UNL     1      48.483  -0.956  36.256  1.00  0.00     0.087 C 
HETATM   30  C16 UNL     1      49.417   0.102  35.805  1.00  0.00     0.052 C 
HETATM   31  C17 UNL     1      50.822  -0.499  35.583  1.00  0.00     0.234 C 
HETATM   32  N6  UNL     1      51.389  -0.879  36.858  1.00  0.00    -0.075 N 
HETATM   33  C18 UNL     1      50.350  -1.102  37.856  1.00  0.00     0.234 C 
ATOM     34  H62 UNL     1      52.002  -1.690  36.768  1.00  0.00     0.277 HD
ATOM     35  H61 UNL     1      52.076  -0.197  37.180  1.00  0.00     0.277 HD
HETATM   36  C19 UNL     1      49.182  -1.873  37.283  1.00  0.00     0.052 C 
ENDBRANCH  27  29
ENDBRANCH  25  27
ENDBRANCH  23  25
ENDBRANCH  22  23
ENDBRANCH  21  22
ENDBRANCH  20  21
ENDBRANCH  19  20
ENDBRANCH   1  19
TORSDOF 12
ENDMDL
