MODEL 1
REMARK VINA RESULT: -7.299404193      0.000      0.000
REMARK  10 active torsions:
REMARK  status: ('A' for Active; 'I' for Inactive)
REMARK    1  A    between atoms: C5_5  and  N1_6 
REMARK    2  A    between atoms: N1_6  and  C6_8 
REMARK    3  A    between atoms: C6_8  and  N2_10 
REMARK    4  A    between atoms: N2_10  and  C7_12 
REMARK    5  A    between atoms: C7_12  and  C8_13 
REMARK       I    between atoms: C8_13  and  N3_15 
REMARK    6  A    between atoms: N3_15  and  C9_17 
REMARK       I    between atoms: N4_21  and  C13_22 
REMARK       I    between atoms: C13_22  and  N6_26 
REMARK    7  A    between atoms: N6_26  and  C14_28 
REMARK    8  A    between atoms: C14_28  and  C15_29 
REMARK    9  A    between atoms: C15_29  and  C16_30 
REMARK   10  A    between atoms: C18_32  and  O2_33 
ROOT
HETATM    1  C1  UNL     1      49.064  -1.242  35.617  1.00  0.00     0.018 C 
HETATM    2  C2  UNL     1      48.316  -0.519  36.224  1.00  0.00    -0.076 C 
HETATM    3  C3  UNL     1      47.409   0.323  36.942  1.00  0.00     0.040 A 
HETATM    4  C4  UNL     1      46.563   1.239  36.318  1.00  0.00     0.052 A 
HETATM    5  C5  UNL     1      45.687   2.052  36.980  1.00  0.00     0.035 A 
HETATM    6  C19 UNL     1      45.671   1.929  38.369  1.00  0.00     0.031 A 
HETATM    7  C20 UNL     1      46.474   1.054  39.021  1.00  0.00     0.027 A 
HETATM    8  C21 UNL     1      47.349   0.243  38.310  1.00  0.00     0.052 A 
HETATM    9 CL1  UNL     1      48.354  -0.861  39.232  1.00  0.00    -0.083 Cl
ENDROOT
BRANCH   5  10
HETATM   10  N1  UNL     1      44.805   2.958  36.355  1.00  0.00    -0.333 N 
ATOM     11  H1  UNL     1      45.174   3.550  35.611  1.00  0.00     0.168 HD
BRANCH  10  12
HETATM   12  C6  UNL     1      43.452   3.095  36.696  1.00  0.00     0.172 C 
HETATM   13  S1  UNL     1      42.954   4.179  37.781  1.00  0.00    -0.041 SA
BRANCH  12  14
HETATM   14  N2  UNL     1      42.466   2.260  36.041  1.00  0.00    -0.358 N 
ATOM     15  H2  UNL     1      41.941   2.627  35.247  1.00  0.00     0.162 HD
BRANCH  14  16
HETATM   16  C7  UNL     1      42.222   0.931  36.494  1.00  0.00     0.224 C 
BRANCH  16  17
HETATM   17  C8  UNL     1      42.764  -0.136  35.625  1.00  0.00     0.235 C 
HETATM   18  O1  UNL     1      43.848  -0.680  35.950  1.00  0.00    -0.272 OA
HETATM   19  N3  UNL     1      42.112  -0.563  34.452  1.00  0.00    -0.351 N 
ATOM     20  H3  UNL     1      41.233  -0.115  34.195  1.00  0.00     0.163 HD
BRANCH  19  21
HETATM   21  C9  UNL     1      42.628  -1.610  33.589  1.00  0.00     0.134 C 
HETATM   22  C10 UNL     1      41.582  -2.646  33.280  1.00  0.00     0.031 C 
HETATM   23  C11 UNL     1      42.304  -3.778  32.538  1.00  0.00     0.023 C 
HETATM   24  C12 UNL     1      42.839  -3.283  31.218  1.00  0.00     0.144 C 
HETATM   25  N4  UNL     1      42.831  -1.826  31.200  1.00  0.00    -0.190 N 
HETATM   26  C13 UNL     1      42.382  -1.186  30.022  1.00  0.00     0.671 C 
HETATM   27  C18 UNL     1      43.276  -1.114  32.351  1.00  0.00     0.260 C 
HETATM   28  N5  UNL     1      41.132  -0.846  29.929  1.00  0.00    -0.235 N 
HETATM   29  N6  UNL     1      43.218  -0.891  28.923  1.00  0.00    -0.227 N 
ATOM     30  H52 UNL     1      40.528  -1.059  30.723  1.00  0.00     0.174 HD
ATOM     31  H51 UNL     1      40.808  -0.384  29.079  1.00  0.00     0.174 HD
ATOM     32  H6  UNL     1      43.219   0.045  28.518  1.00  0.00     0.177 HD
BRANCH  29  33
HETATM   33  C14 UNL     1      44.066  -1.913  28.381  1.00  0.00     0.138 C 
BRANCH  33  34
HETATM   34  C15 UNL     1      43.490  -2.504  27.111  1.00  0.00     0.020 C 
BRANCH  34  35
HETATM   35  C16 UNL     1      44.201  -1.931  25.911  1.00  0.00    -0.003 C 
HETATM   36  C17 UNL     1      44.120  -2.964  24.806  1.00  0.00     0.005 C 
ENDBRANCH  34  35
ENDBRANCH  33  34
ENDBRANCH  29  33
BRANCH  27  37
HETATM   37  O2  UNL     1      43.049   0.246  32.118  1.00  0.00    -0.374 OA
ATOM     38  H2  UNL     1      43.335   0.800  32.835  1.00  0.00     0.212 HD
ENDBRANCH  27  37
ENDBRANCH  19  21
ENDBRANCH  16  17
ENDBRANCH  14  16
ENDBRANCH  12  14
ENDBRANCH  10  12
ENDBRANCH   5  10
TORSDOF 10
ENDMDL
MODEL 2
REMARK VINA RESULT: -7.062908781      4.578      9.874
REMARK  10 active torsions:
REMARK  status: ('A' for Active; 'I' for Inactive)
REMARK    1  A    between atoms: C5_5  and  N1_6 
REMARK    2  A    between atoms: N1_6  and  C6_8 
REMARK    3  A    between atoms: C6_8  and  N2_10 
REMARK    4  A    between atoms: N2_10  and  C7_12 
REMARK    5  A    between atoms: C7_12  and  C8_13 
REMARK       I    between atoms: C8_13  and  N3_15 
REMARK    6  A    between atoms: N3_15  and  C9_17 
REMARK       I    between atoms: N4_21  and  C13_22 
REMARK       I    between atoms: C13_22  and  N6_26 
REMARK    7  A    between atoms: N6_26  and  C14_28 
REMARK    8  A    between atoms: C14_28  and  C15_29 
REMARK    9  A    between atoms: C15_29  and  C16_30 
REMARK   10  A    between atoms: C18_32  and  O2_33 
ROOT
HETATM    1  C1  UNL     1      34.894  -1.531  28.076  1.00  0.00     0.018 C 
HETATM    2  C2  UNL     1      35.834  -1.802  28.779  1.00  0.00    -0.076 C 
HETATM    3  C3  UNL     1      36.963  -2.107  29.603  1.00  0.00     0.040 A 
HETATM    4  C4  UNL     1      37.985  -2.970  29.209  1.00  0.00     0.052 A 
HETATM    5  C5  UNL     1      39.073  -3.275  29.976  1.00  0.00     0.035 A 
HETATM    6  C19 UNL     1      39.127  -2.666  31.229  1.00  0.00     0.031 A 
HETATM    7  C20 UNL     1      38.159  -1.821  31.658  1.00  0.00     0.027 A 
HETATM    8  C21 UNL     1      37.069  -1.535  30.845  1.00  0.00     0.052 A 
HETATM    9 CL1  UNL     1      35.860  -0.430  31.477  1.00  0.00    -0.083 Cl
ENDROOT
BRANCH   5  10
HETATM   10  N1  UNL     1      40.127  -4.122  29.572  1.00  0.00    -0.333 N 
ATOM     11  H1  UNL     1      39.890  -4.965  29.048  1.00  0.00     0.168 HD
BRANCH  10  12
HETATM   12  C6  UNL     1      41.479  -3.875  29.847  1.00  0.00     0.172 C 
HETATM   13  S1  UNL     1      42.341  -4.840  30.809  1.00  0.00    -0.041 SA
BRANCH  12  14
HETATM   14  N2  UNL     1      42.133  -2.737  29.234  1.00  0.00    -0.358 N 
ATOM     15  H2  UNL     1      41.858  -2.443  28.297  1.00  0.00     0.162 HD
BRANCH  14  16
HETATM   16  C7  UNL     1      43.155  -2.025  29.925  1.00  0.00     0.224 C 
BRANCH  16  17
HETATM   17  C8  UNL     1      42.676  -1.119  30.992  1.00  0.00     0.235 C 
HETATM   18  O1  UNL     1      41.785  -0.281  30.710  1.00  0.00    -0.272 OA
HETATM   19  N3  UNL     1      43.180  -1.162  32.307  1.00  0.00    -0.351 N 
ATOM     20  H3  UNL     1      43.905  -1.845  32.526  1.00  0.00     0.163 HD
BRANCH  19  21
HETATM   21  C9  UNL     1      42.720  -0.283  33.366  1.00  0.00     0.134 C 
HETATM   22  C10 UNL     1      42.338  -1.049  34.603  1.00  0.00     0.031 C 
HETATM   23  C11 UNL     1      41.692  -0.036  35.555  1.00  0.00     0.023 C 
HETATM   24  C12 UNL     1      42.700   1.006  35.974  1.00  0.00     0.144 C 
HETATM   25  N4  UNL     1      43.856   0.954  35.091  1.00  0.00    -0.190 N 
HETATM   26  C13 UNL     1      45.138   1.045  35.680  1.00  0.00     0.671 C 
HETATM   27  C18 UNL     1      43.654   0.824  33.686  1.00  0.00     0.260 C 
HETATM   28  N5  UNL     1      45.766  -0.049  35.990  1.00  0.00    -0.235 N 
HETATM   29  N6  UNL     1      45.789   2.267  35.958  1.00  0.00    -0.227 N 
ATOM     30  H52 UNL     1      45.295  -0.932  35.789  1.00  0.00     0.174 HD
ATOM     31  H51 UNL     1      46.691   0.016  36.416  1.00  0.00     0.174 HD
ATOM     32  H6  UNL     1      46.753   2.412  35.663  1.00  0.00     0.177 HD
BRANCH  29  33
HETATM   33  C14 UNL     1      45.084   3.303  36.658  1.00  0.00     0.138 C 
BRANCH  33  34
HETATM   34  C15 UNL     1      45.045   3.045  38.149  1.00  0.00     0.020 C 
BRANCH  34  35
HETATM   35  C16 UNL     1      44.000   3.922  38.793  1.00  0.00    -0.003 C 
HETATM   36  C17 UNL     1      43.661   5.016  37.803  1.00  0.00     0.005 C 
ENDBRANCH  34  35
ENDBRANCH  33  34
ENDBRANCH  29  33
BRANCH  27  37
HETATM   37  O2  UNL     1      44.910   0.673  33.091  1.00  0.00    -0.374 OA
ATOM     38  H2  UNL     1      45.615   1.045  33.608  1.00  0.00     0.212 HD
ENDBRANCH  27  37
ENDBRANCH  19  21
ENDBRANCH  16  17
ENDBRANCH  14  16
ENDBRANCH  12  14
ENDBRANCH  10  12
ENDBRANCH   5  10
TORSDOF 10
ENDMDL
MODEL 3
REMARK VINA RESULT: -6.926626201      3.728      9.488
REMARK  10 active torsions:
REMARK  status: ('A' for Active; 'I' for Inactive)
REMARK    1  A    between atoms: C5_5  and  N1_6 
REMARK    2  A    between atoms: N1_6  and  C6_8 
REMARK    3  A    between atoms: C6_8  and  N2_10 
REMARK    4  A    between atoms: N2_10  and  C7_12 
REMARK    5  A    between atoms: C7_12  and  C8_13 
REMARK       I    between atoms: C8_13  and  N3_15 
REMARK    6  A    between atoms: N3_15  and  C9_17 
REMARK       I    between atoms: N4_21  and  C13_22 
REMARK       I    between atoms: C13_22  and  N6_26 
REMARK    7  A    between atoms: N6_26  and  C14_28 
REMARK    8  A    between atoms: C14_28  and  C15_29 
REMARK    9  A    between atoms: C15_29  and  C16_30 
REMARK   10  A    between atoms: C18_32  and  O2_33 
ROOT
HETATM    1  C1  UNL     1      43.969  -0.061  24.032  1.00  0.00     0.018 C 
HETATM    2  C2  UNL     1      43.939  -0.792  24.989  1.00  0.00    -0.076 C 
HETATM    3  C3  UNL     1      43.880  -1.657  26.127  1.00  0.00     0.040 A 
HETATM    4  C4  UNL     1      43.823  -1.189  27.440  1.00  0.00     0.052 A 
HETATM    5  C5  UNL     1      43.764  -1.995  28.541  1.00  0.00     0.035 A 
HETATM    6  C19 UNL     1      43.766  -3.367  28.294  1.00  0.00     0.031 A 
HETATM    7  C20 UNL     1      43.821  -3.870  27.038  1.00  0.00     0.027 A 
HETATM    8  C21 UNL     1      43.878  -3.016  25.944  1.00  0.00     0.052 A 
HETATM    9 CL1  UNL     1      43.948  -3.750  24.352  1.00  0.00    -0.083 Cl
ENDROOT
BRANCH   5  10
HETATM   10  N1  UNL     1      43.673  -1.530  29.870  1.00  0.00    -0.333 N 
ATOM     11  H1  UNL     1      44.369  -0.858  30.191  1.00  0.00     0.168 HD
BRANCH  10  12
HETATM   12  C6  UNL     1      42.682  -1.936  30.776  1.00  0.00     0.172 C 
HETATM   13  S1  UNL     1      42.597  -3.452  31.318  1.00  0.00    -0.041 SA
BRANCH  12  14
HETATM   14  N2  UNL     1      41.721  -0.967  31.260  1.00  0.00    -0.358 N 
ATOM     15  H2  UNL     1      41.126  -0.471  30.595  1.00  0.00     0.162 HD
BRANCH  14  16
HETATM   16  C7  UNL     1      41.597  -0.698  32.653  1.00  0.00     0.224 C 
BRANCH  16  17
HETATM   17  C8  UNL     1      42.671   0.143  33.227  1.00  0.00     0.235 C 
HETATM   18  O1  UNL     1      43.666   0.415  32.511  1.00  0.00    -0.272 OA
HETATM   19  N3  UNL     1      42.619   0.649  34.541  1.00  0.00    -0.351 N 
ATOM     20  H3  UNL     1      41.807   0.422  35.115  1.00  0.00     0.163 HD
BRANCH  19  21
HETATM   21  C9  UNL     1      43.661   1.476  35.118  1.00  0.00     0.134 C 
HETATM   22  C10 UNL     1      43.097   2.529  36.034  1.00  0.00     0.031 C 
HETATM   23  C11 UNL     1      44.269   3.443  36.411  1.00  0.00     0.023 C 
HETATM   24  C12 UNL     1      45.299   2.677  37.202  1.00  0.00     0.144 C 
HETATM   25  N4  UNL     1      45.059   1.246  37.066  1.00  0.00    -0.190 N 
HETATM   26  C13 UNL     1      45.157   0.449  38.229  1.00  0.00     0.671 C 
HETATM   27  C18 UNL     1      44.747   0.713  35.781  1.00  0.00     0.260 C 
HETATM   28  N5  UNL     1      44.082   0.208  38.917  1.00  0.00    -0.235 N 
HETATM   29  N6  UNL     1      46.366  -0.109  38.697  1.00  0.00    -0.227 N 
ATOM     30  H52 UNL     1      43.208   0.612  38.579  1.00  0.00     0.174 HD
ATOM     31  H51 UNL     1      44.153  -0.367  39.757  1.00  0.00     0.174 HD
ATOM     32  H6  UNL     1      46.413  -1.097  38.941  1.00  0.00     0.177 HD
BRANCH  29  33
HETATM   33  C14 UNL     1      47.529   0.723  38.829  1.00  0.00     0.138 C 
BRANCH  33  34
HETATM   34  C15 UNL     1      48.719   0.141  38.097  1.00  0.00     0.020 C 
BRANCH  34  35
HETATM   35  C16 UNL     1      48.443   0.110  36.614  1.00  0.00    -0.003 C 
HETATM   36  C17 UNL     1      49.704  -0.380  35.933  1.00  0.00     0.005 C 
ENDBRANCH  34  35
ENDBRANCH  33  34
ENDBRANCH  29  33
BRANCH  27  37
HETATM   37  O2  UNL     1      44.443  -0.641  35.950  1.00  0.00    -0.374 OA
ATOM     38  H2  UNL     1      44.697  -1.176  35.207  1.00  0.00     0.212 HD
ENDBRANCH  27  37
ENDBRANCH  19  21
ENDBRANCH  16  17
ENDBRANCH  14  16
ENDBRANCH  12  14
ENDBRANCH  10  12
ENDBRANCH   5  10
TORSDOF 10
ENDMDL
MODEL 4
REMARK VINA RESULT: -6.923175990      5.390     10.546
REMARK  10 active torsions:
REMARK  status: ('A' for Active; 'I' for Inactive)
REMARK    1  A    between atoms: C5_5  and  N1_6 
REMARK    2  A    between atoms: N1_6  and  C6_8 
REMARK    3  A    between atoms: C6_8  and  N2_10 
REMARK    4  A    between atoms: N2_10  and  C7_12 
REMARK    5  A    between atoms: C7_12  and  C8_13 
REMARK       I    between atoms: C8_13  and  N3_15 
REMARK    6  A    between atoms: N3_15  and  C9_17 
REMARK       I    between atoms: N4_21  and  C13_22 
REMARK       I    between atoms: C13_22  and  N6_26 
REMARK    7  A    between atoms: N6_26  and  C14_28 
REMARK    8  A    between atoms: C14_28  and  C15_29 
REMARK    9  A    between atoms: C15_29  and  C16_30 
REMARK   10  A    between atoms: C18_32  and  O2_33 
ROOT
HETATM    1  C1  UNL     1      34.373  -0.664  27.697  1.00  0.00     0.018 C 
HETATM    2  C2  UNL     1      35.127  -1.504  28.118  1.00  0.00    -0.076 C 
HETATM    3  C3  UNL     1      36.012  -2.501  28.639  1.00  0.00     0.040 A 
HETATM    4  C4  UNL     1      37.168  -2.196  29.355  1.00  0.00     0.052 A 
HETATM    5  C5  UNL     1      38.026  -3.128  29.864  1.00  0.00     0.035 A 
HETATM    6  C19 UNL     1      37.690  -4.460  29.628  1.00  0.00     0.031 A 
HETATM    7  C20 UNL     1      36.578  -4.808  28.938  1.00  0.00     0.027 A 
HETATM    8  C21 UNL     1      35.729  -3.828  28.438  1.00  0.00     0.052 A 
HETATM    9 CL1  UNL     1      34.311  -4.364  27.555  1.00  0.00    -0.083 Cl
ENDROOT
BRANCH   5  10
HETATM   10  N1  UNL     1      39.181  -2.828  30.618  1.00  0.00    -0.333 N 
ATOM     11  H1  UNL     1      39.056  -2.427  31.547  1.00  0.00     0.168 HD
BRANCH  10  12
HETATM   12  C6  UNL     1      40.490  -3.049  30.166  1.00  0.00     0.172 C 
HETATM   13  S1  UNL     1      41.266  -4.434  30.452  1.00  0.00    -0.041 SA
BRANCH  12  14
HETATM   14  N2  UNL     1      41.161  -2.019  29.401  1.00  0.00    -0.358 N 
ATOM     15  H2  UNL     1      40.886  -1.850  28.433  1.00  0.00     0.162 HD
BRANCH  14  16
HETATM   16  C7  UNL     1      42.202  -1.239  29.984  1.00  0.00     0.224 C 
BRANCH  16  17
HETATM   17  C8  UNL     1      41.912  -0.724  31.341  1.00  0.00     0.235 C 
HETATM   18  O1  UNL     1      40.821  -0.137  31.538  1.00  0.00    -0.272 OA
HETATM   19  N3  UNL     1      42.813  -0.867  32.414  1.00  0.00    -0.351 N 
ATOM     20  H3  UNL     1      43.698  -1.344  32.244  1.00  0.00     0.163 HD
BRANCH  19  21
HETATM   21  C9  UNL     1      42.545  -0.370  33.751  1.00  0.00     0.134 C 
HETATM   22  C10 UNL     1      42.769  -1.429  34.797  1.00  0.00     0.031 C 
HETATM   23  C11 UNL     1      42.265  -0.840  36.120  1.00  0.00     0.023 C 
HETATM   24  C12 UNL     1      43.099   0.354  36.514  1.00  0.00     0.144 C 
HETATM   25  N4  UNL     1      43.883   0.804  35.372  1.00  0.00    -0.190 N 
HETATM   26  C13 UNL     1      45.234   1.153  35.599  1.00  0.00     0.671 C 
HETATM   27  C18 UNL     1      43.264   0.881  34.090  1.00  0.00     0.260 C 
HETATM   28  N5  UNL     1      46.153   0.251  35.429  1.00  0.00    -0.235 N 
HETATM   29  N6  UNL     1      45.654   2.438  36.005  1.00  0.00    -0.227 N 
ATOM     30  H52 UNL     1      45.849  -0.678  35.135  1.00  0.00     0.174 HD
ATOM     31  H51 UNL     1      47.128   0.502  35.592  1.00  0.00     0.174 HD
ATOM     32  H6  UNL     1      46.412   2.909  35.512  1.00  0.00     0.177 HD
BRANCH  29  33
HETATM   33  C14 UNL     1      45.009   3.078  37.116  1.00  0.00     0.138 C 
BRANCH  33  34
HETATM   34  C15 UNL     1      44.067   4.173  36.662  1.00  0.00     0.020 C 
BRANCH  34  35
HETATM   35  C16 UNL     1      42.892   4.260  37.604  1.00  0.00    -0.003 C 
HETATM   36  C17 UNL     1      42.913   5.642  38.221  1.00  0.00     0.005 C 
ENDBRANCH  34  35
ENDBRANCH  33  34
ENDBRANCH  29  33
BRANCH  27  37
HETATM   37  O2  UNL     1      44.256   1.214  33.163  1.00  0.00    -0.374 OA
ATOM     38  H2  UNL     1      44.572   2.105  33.258  1.00  0.00     0.212 HD
ENDBRANCH  27  37
ENDBRANCH  19  21
ENDBRANCH  16  17
ENDBRANCH  14  16
ENDBRANCH  12  14
ENDBRANCH  10  12
ENDBRANCH   5  10
TORSDOF 10
ENDMDL
MODEL 5
REMARK VINA RESULT: -6.794711879      3.624      8.880
REMARK  10 active torsions:
REMARK  status: ('A' for Active; 'I' for Inactive)
REMARK    1  A    between atoms: C5_5  and  N1_6 
REMARK    2  A    between atoms: N1_6  and  C6_8 
REMARK    3  A    between atoms: C6_8  and  N2_10 
REMARK    4  A    between atoms: N2_10  and  C7_12 
REMARK    5  A    between atoms: C7_12  and  C8_13 
REMARK       I    between atoms: C8_13  and  N3_15 
REMARK    6  A    between atoms: N3_15  and  C9_17 
REMARK       I    between atoms: N4_21  and  C13_22 
REMARK       I    between atoms: C13_22  and  N6_26 
REMARK    7  A    between atoms: N6_26  and  C14_28 
REMARK    8  A    between atoms: C14_28  and  C15_29 
REMARK    9  A    between atoms: C15_29  and  C16_30 
REMARK   10  A    between atoms: C18_32  and  O2_33 
ROOT
HETATM    1  C1  UNL     1      39.305  -3.473  33.591  1.00  0.00     0.018 C 
HETATM    2  C2  UNL     1      40.204  -3.912  32.919  1.00  0.00    -0.076 C 
HETATM    3  C3  UNL     1      41.281  -4.411  32.120  1.00  0.00     0.040 A 
HETATM    4  C4  UNL     1      41.310  -4.312  30.730  1.00  0.00     0.052 A 
HETATM    5  C5  UNL     1      42.327  -4.778  29.946  1.00  0.00     0.035 A 
HETATM    6  C19 UNL     1      43.385  -5.388  30.619  1.00  0.00     0.031 A 
HETATM    7  C20 UNL     1      43.403  -5.510  31.967  1.00  0.00     0.027 A 
HETATM    8  C21 UNL     1      42.349  -5.020  32.729  1.00  0.00     0.052 A 
HETATM    9 CL1  UNL     1      42.452  -5.219  34.469  1.00  0.00    -0.083 Cl
ENDROOT
BRANCH   5  10
HETATM   10  N1  UNL     1      42.379  -4.653  28.542  1.00  0.00    -0.333 N 
ATOM     11  H1  UNL     1      41.994  -5.411  27.979  1.00  0.00     0.168 HD
BRANCH  10  12
HETATM   12  C6  UNL     1      42.928  -3.549  27.874  1.00  0.00     0.172 C 
HETATM   13  S1  UNL     1      43.712  -3.707  26.473  1.00  0.00    -0.041 SA
BRANCH  12  14
HETATM   14  N2  UNL     1      42.770  -2.225  28.439  1.00  0.00    -0.358 N 
ATOM     15  H2  UNL     1      41.982  -1.644  28.149  1.00  0.00     0.162 HD
BRANCH  14  16
HETATM   16  C7  UNL     1      43.701  -1.725  29.394  1.00  0.00     0.224 C 
BRANCH  16  17
HETATM   17  C8  UNL     1      43.100  -0.993  30.531  1.00  0.00     0.235 C 
HETATM   18  O1  UNL     1      42.090  -0.280  30.317  1.00  0.00    -0.272 OA
HETATM   19  N3  UNL     1      43.618  -1.067  31.839  1.00  0.00    -0.351 N 
ATOM     20  H3  UNL     1      44.440  -1.647  32.003  1.00  0.00     0.163 HD
BRANCH  19  21
HETATM   21  C9  UNL     1      43.040  -0.358  32.965  1.00  0.00     0.134 C 
HETATM   22  C10 UNL     1      42.699  -1.289  34.097  1.00  0.00     0.031 C 
HETATM   23  C11 UNL     1      41.926  -0.453  35.124  1.00  0.00     0.023 C 
HETATM   24  C12 UNL     1      42.811   0.627  35.694  1.00  0.00     0.144 C 
HETATM   25  N4  UNL     1      43.994   0.784  34.859  1.00  0.00    -0.190 N 
HETATM   26  C13 UNL     1      45.241   0.931  35.507  1.00  0.00     0.671 C 
HETATM   27  C18 UNL     1      43.849   0.791  33.441  1.00  0.00     0.260 C 
HETATM   28  N5  UNL     1      45.965  -0.125  35.724  1.00  0.00    -0.235 N 
HETATM   29  N6  UNL     1      45.758   2.172  35.941  1.00  0.00    -0.227 N 
ATOM     30  H52 UNL     1      45.591  -1.021  35.411  1.00  0.00     0.174 HD
ATOM     31  H51 UNL     1      46.865  -0.019  36.193  1.00  0.00     0.174 HD
ATOM     32  H6  UNL     1      46.712   2.440  35.704  1.00  0.00     0.177 HD
BRANCH  29  33
HETATM   33  C14 UNL     1      44.933   3.052  36.718  1.00  0.00     0.138 C 
BRANCH  33  34
HETATM   34  C15 UNL     1      45.083   2.796  38.203  1.00  0.00     0.020 C 
BRANCH  34  35
HETATM   35  C16 UNL     1      44.212   3.753  38.978  1.00  0.00    -0.003 C 
HETATM   36  C17 UNL     1      43.787   4.848  38.022  1.00  0.00     0.005 C 
ENDBRANCH  34  35
ENDBRANCH  33  34
ENDBRANCH  29  33
BRANCH  27  37
HETATM   37  O2  UNL     1      45.131   0.828  32.886  1.00  0.00    -0.374 OA
ATOM     38  H2  UNL     1      45.629   0.034  33.044  1.00  0.00     0.212 HD
ENDBRANCH  27  37
ENDBRANCH  19  21
ENDBRANCH  16  17
ENDBRANCH  14  16
ENDBRANCH  12  14
ENDBRANCH  10  12
ENDBRANCH   5  10
TORSDOF 10
ENDMDL
