MODEL 1
REMARK VINA RESULT: -6.334492936      0.000      0.000
REMARK  4 active torsions:
REMARK  status: ('A' for Active; 'I' for Inactive)
REMARK    1  A    between atoms: C4_6  and  C5_8 
REMARK    2  A    between atoms: C5_8  and  N2_9 
REMARK       I    between atoms: N2_9  and  C6_11 
REMARK       I    between atoms: C6_11  and  N3_13 
REMARK    3  A    between atoms: N3_13  and  N4_15 
REMARK       I    between atoms: N4_15  and  C7_17 
REMARK       I    between atoms: C7_17  and  N5_19 
REMARK    4  A    between atoms: N5_19  and  C8_21 
ROOT
HETATM    1  N2  UNL     1      42.701  -0.764  29.903  1.00  0.00    -0.338 N 
ATOM      2  H2  UNL     1      42.672   0.225  29.653  1.00  0.00     0.164 HD
HETATM    3  C6  UNL     1      42.922  -1.170  31.244  1.00  0.00     0.335 C 
HETATM    4  O1  UNL     1      42.956  -2.404  31.539  1.00  0.00    -0.246 OA
HETATM    5  N3  UNL     1      43.103  -0.169  32.238  1.00  0.00    -0.248 N 
ATOM      6  H3  UNL     1      43.072   0.820  31.992  1.00  0.00     0.192 HD
ENDROOT
BRANCH   1   7
HETATM    7  C5  UNL     1      42.519  -1.790  28.896  1.00  0.00     0.174 C 
BRANCH   7   8
HETATM    8  C4  UNL     1      43.902  -2.279  28.517  1.00  0.00     0.162 A 
HETATM    9  C2  UNL     1      43.992  -2.668  27.023  1.00  0.00     0.027 A 
HETATM   10  N1  UNL     1      43.921  -2.294  25.816  1.00  0.00    -0.398 N 
HETATM   11  C3  UNL     1      44.179  -3.650  28.174  1.00  0.00     0.107 A 
HETATM   12  C1  UNL     1      44.110  -3.271  24.785  1.00  0.00     0.145 C 
ATOM     13  H1  UNL     1      43.732  -1.319  25.582  1.00  0.00     0.158 HD
HETATM   14  F1  UNL     1      44.939  -1.490  28.955  1.00  0.00    -0.234 F 
ENDBRANCH   7   8
ENDBRANCH   1   7
BRANCH   5  15
HETATM   15  N4  UNL     1      43.321  -0.566  33.552  1.00  0.00    -0.248 N 
HETATM   16  C7  UNL     1      44.316   0.065  34.331  1.00  0.00     0.335 C 
HETATM   17  O2  UNL     1      45.003   0.986  33.822  1.00  0.00    -0.246 OA
HETATM   18  N5  UNL     1      44.574  -0.306  35.675  1.00  0.00    -0.334 N 
ATOM     19  H5  UNL     1      44.025  -1.053  36.099  1.00  0.00     0.165 HD
ATOM     20  H4  UNL     1      42.760  -1.315  33.957  1.00  0.00     0.192 HD
BRANCH  18  21
HETATM   21  C8  UNL     1      45.595   0.349  36.460  1.00  0.00     0.023 C 
HETATM   22  C9  UNL     1      45.560  -0.221  37.877  1.00  0.00     0.037 C 
HETATM   23  C10 UNL     1      46.917   0.100  35.816  1.00  0.00     0.037 C 
HETATM   24  C11 UNL     1      45.292   1.838  36.620  1.00  0.00     0.037 C 
ENDBRANCH  18  21
ENDBRANCH   5  15
TORSDOF 4
ENDMDL
MODEL 2
REMARK VINA RESULT: -6.106905010      1.870      2.357
REMARK  4 active torsions:
REMARK  status: ('A' for Active; 'I' for Inactive)
REMARK    1  A    between atoms: C4_6  and  C5_8 
REMARK    2  A    between atoms: C5_8  and  N2_9 
REMARK       I    between atoms: N2_9  and  C6_11 
REMARK       I    between atoms: C6_11  and  N3_13 
REMARK    3  A    between atoms: N3_13  and  N4_15 
REMARK       I    between atoms: N4_15  and  C7_17 
REMARK       I    between atoms: C7_17  and  N5_19 
REMARK    4  A    between atoms: N5_19  and  C8_21 
ROOT
HETATM    1  N2  UNL     1      43.581  -2.112  31.121  1.00  0.00    -0.338 N 
ATOM      2  H2  UNL     1      44.404  -2.659  31.374  1.00  0.00     0.164 HD
HETATM    3  C6  UNL     1      43.381  -0.812  31.652  1.00  0.00     0.335 C 
HETATM    4  O1  UNL     1      42.351  -0.143  31.329  1.00  0.00    -0.246 OA
HETATM    5  N3  UNL     1      44.353  -0.284  32.546  1.00  0.00    -0.248 N 
ATOM      6  H3  UNL     1      45.177  -0.828  32.799  1.00  0.00     0.192 HD
ENDROOT
BRANCH   1   7
HETATM    7  C5  UNL     1      42.585  -2.643  30.211  1.00  0.00     0.174 C 
BRANCH   7   8
HETATM    8  C4  UNL     1      43.262  -3.746  29.422  1.00  0.00     0.162 A 
HETATM    9  C2  UNL     1      43.721  -3.263  28.027  1.00  0.00     0.027 A 
HETATM   10  N1  UNL     1      44.463  -2.487  27.356  1.00  0.00    -0.398 N 
HETATM   11  C3  UNL     1      42.670  -4.344  28.254  1.00  0.00     0.107 A 
HETATM   12  C1  UNL     1      44.387  -2.536  25.925  1.00  0.00     0.145 C 
ATOM     13  H1  UNL     1      45.101  -1.842  27.823  1.00  0.00     0.158 HD
HETATM   14  F1  UNL     1      44.214  -4.456  30.112  1.00  0.00    -0.234 F 
ENDBRANCH   7   8
ENDBRANCH   1   7
BRANCH   5  15
HETATM   15  N4  UNL     1      44.157   0.990  33.068  1.00  0.00    -0.248 N 
HETATM   16  C7  UNL     1      44.211   1.204  34.463  1.00  0.00     0.335 C 
HETATM   17  O2  UNL     1      44.435   0.231  35.227  1.00  0.00    -0.246 OA
HETATM   18  N5  UNL     1      44.018   2.485  35.041  1.00  0.00    -0.334 N 
ATOM     19  H5  UNL     1      43.834   3.282  34.433  1.00  0.00     0.165 HD
ATOM     20  H4  UNL     1      43.974   1.773  32.442  1.00  0.00     0.192 HD
BRANCH  18  21
HETATM   21  C8  UNL     1      44.076   2.689  36.470  1.00  0.00     0.023 C 
HETATM   22  C9  UNL     1      44.033   4.189  36.749  1.00  0.00     0.037 C 
HETATM   23  C10 UNL     1      42.912   1.994  37.094  1.00  0.00     0.037 C 
HETATM   24  C11 UNL     1      45.414   2.214  37.036  1.00  0.00     0.037 C 
ENDBRANCH  18  21
ENDBRANCH   5  15
TORSDOF 4
ENDMDL
MODEL 3
REMARK VINA RESULT: -6.002670193      1.721      2.061
REMARK  4 active torsions:
REMARK  status: ('A' for Active; 'I' for Inactive)
REMARK    1  A    between atoms: C4_6  and  C5_8 
REMARK    2  A    between atoms: C5_8  and  N2_9 
REMARK       I    between atoms: N2_9  and  C6_11 
REMARK       I    between atoms: C6_11  and  N3_13 
REMARK    3  A    between atoms: N3_13  and  N4_15 
REMARK       I    between atoms: N4_15  and  C7_17 
REMARK       I    between atoms: C7_17  and  N5_19 
REMARK    4  A    between atoms: N5_19  and  C8_21 
ROOT
HETATM    1  N2  UNL     1      44.084  -1.297  30.776  1.00  0.00    -0.338 N 
ATOM      2  H2  UNL     1      44.714  -0.624  30.339  1.00  0.00     0.164 HD
HETATM    3  C6  UNL     1      43.524  -1.047  32.054  1.00  0.00     0.335 C 
HETATM    4  O1  UNL     1      42.741  -1.895  32.584  1.00  0.00    -0.246 OA
HETATM    5  N3  UNL     1      43.857   0.165  32.719  1.00  0.00    -0.248 N 
ATOM      6  H3  UNL     1      44.485   0.841  32.285  1.00  0.00     0.192 HD
ENDROOT
BRANCH   1   7
HETATM    7  C5  UNL     1      43.740  -2.535  30.105  1.00  0.00     0.174 C 
BRANCH   7   8
HETATM    8  C4  UNL     1      42.991  -2.153  28.844  1.00  0.00     0.162 A 
HETATM    9  C2  UNL     1      43.449  -2.983  27.623  1.00  0.00     0.027 A 
HETATM   10  N1  UNL     1      43.544  -4.124  27.082  1.00  0.00    -0.398 N 
HETATM   11  C3  UNL     1      43.619  -1.472  27.740  1.00  0.00     0.107 A 
HETATM   12  C1  UNL     1      44.160  -4.219  25.790  1.00  0.00     0.145 C 
ATOM     13  H1  UNL     1      43.190  -4.956  27.553  1.00  0.00     0.158 HD
HETATM   14  F1  UNL     1      41.628  -2.061  28.981  1.00  0.00    -0.234 F 
ENDBRANCH   7   8
ENDBRANCH   1   7
BRANCH   5  15
HETATM   15  N4  UNL     1      43.309   0.411  33.973  1.00  0.00    -0.248 N 
HETATM   16  C7  UNL     1      43.923   1.332  34.850  1.00  0.00     0.335 C 
HETATM   17  O2  UNL     1      44.970   1.925  34.486  1.00  0.00    -0.246 OA
HETATM   18  N5  UNL     1      43.400   1.615  36.138  1.00  0.00    -0.334 N 
ATOM     19  H5  UNL     1      42.552   1.140  36.446  1.00  0.00     0.165 HD
ATOM     20  H4  UNL     1      42.460  -0.075  34.261  1.00  0.00     0.192 HD
BRANCH  18  21
HETATM   21  C8  UNL     1      44.038   2.561  37.025  1.00  0.00     0.023 C 
HETATM   22  C9  UNL     1      43.247   2.614  38.330  1.00  0.00     0.037 C 
HETATM   23  C10 UNL     1      45.439   2.108  37.267  1.00  0.00     0.037 C 
HETATM   24  C11 UNL     1      43.969   3.977  36.456  1.00  0.00     0.037 C 
ENDBRANCH  18  21
ENDBRANCH   5  15
TORSDOF 4
ENDMDL
MODEL 4
REMARK VINA RESULT: -5.955865031      2.833      8.257
REMARK  4 active torsions:
REMARK  status: ('A' for Active; 'I' for Inactive)
REMARK    1  A    between atoms: C4_6  and  C5_8 
REMARK    2  A    between atoms: C5_8  and  N2_9 
REMARK       I    between atoms: N2_9  and  C6_11 
REMARK       I    between atoms: C6_11  and  N3_13 
REMARK    3  A    between atoms: N3_13  and  N4_15 
REMARK       I    between atoms: N4_15  and  C7_17 
REMARK       I    between atoms: C7_17  and  N5_19 
REMARK    4  A    between atoms: N5_19  and  C8_21 
ROOT
HETATM    1  N2  UNL     1      43.276   1.736  35.079  1.00  0.00    -0.338 N 
ATOM      2  H2  UNL     1      42.930   2.544  34.561  1.00  0.00     0.164 HD
HETATM    3  C6  UNL     1      43.693   0.561  34.403  1.00  0.00     0.335 C 
HETATM    4  O1  UNL     1      44.122  -0.436  35.062  1.00  0.00    -0.246 OA
HETATM    5  N3  UNL     1      43.621   0.530  32.983  1.00  0.00    -0.248 N 
ATOM      6  H3  UNL     1      43.276   1.337  32.461  1.00  0.00     0.192 HD
ENDROOT
BRANCH   1   7
HETATM    7  C5  UNL     1      43.354   1.759  36.526  1.00  0.00     0.174 C 
BRANCH   7   8
HETATM    8  C4  UNL     1      44.549   2.620  36.884  1.00  0.00     0.162 A 
HETATM    9  C2  UNL     1      45.827   1.777  37.101  1.00  0.00     0.027 A 
HETATM   10  N1  UNL     1      46.687   0.994  36.601  1.00  0.00    -0.398 N 
HETATM   11  C3  UNL     1      45.156   2.607  38.190  1.00  0.00     0.107 A 
HETATM   12  C1  UNL     1      47.735   0.502  37.447  1.00  0.00     0.145 C 
ATOM     13  H1  UNL     1      46.635   0.720  35.620  1.00  0.00     0.158 HD
HETATM   14  F1  UNL     1      44.732   3.723  36.086  1.00  0.00    -0.234 F 
ENDBRANCH   7   8
ENDBRANCH   1   7
BRANCH   5  15
HETATM   15  N4  UNL     1      44.028  -0.621  32.318  1.00  0.00    -0.248 N 
HETATM   16  C7  UNL     1      43.432  -0.984  31.091  1.00  0.00     0.335 C 
HETATM   17  O2  UNL     1      42.528  -0.256  30.607  1.00  0.00    -0.246 OA
HETATM   18  N5  UNL     1      43.815  -2.148  30.378  1.00  0.00    -0.334 N 
ATOM     19  H5  UNL     1      44.546  -2.747  30.760  1.00  0.00     0.165 HD
ATOM     20  H4  UNL     1      44.761  -1.206  32.719  1.00  0.00     0.192 HD
BRANCH  18  21
HETATM   21  C8  UNL     1      43.197  -2.507  29.122  1.00  0.00     0.023 C 
HETATM   22  C9  UNL     1      43.818  -3.812  28.629  1.00  0.00     0.037 C 
HETATM   23  C10 UNL     1      41.730  -2.663  29.347  1.00  0.00     0.037 C 
HETATM   24  C11 UNL     1      43.518  -1.476  28.040  1.00  0.00     0.037 C 
ENDBRANCH  18  21
ENDBRANCH   5  15
TORSDOF 4
ENDMDL
MODEL 5
REMARK VINA RESULT: -5.865615024      1.097      1.169
REMARK  4 active torsions:
REMARK  status: ('A' for Active; 'I' for Inactive)
REMARK    1  A    between atoms: C4_6  and  C5_8 
REMARK    2  A    between atoms: C5_8  and  N2_9 
REMARK       I    between atoms: N2_9  and  C6_11 
REMARK       I    between atoms: C6_11  and  N3_13 
REMARK    3  A    between atoms: N3_13  and  N4_15 
REMARK       I    between atoms: N4_15  and  C7_17 
REMARK       I    between atoms: C7_17  and  N5_19 
REMARK    4  A    between atoms: N5_19  and  C8_21 
ROOT
HETATM    1  N2  UNL     1      43.124  -0.996  30.178  1.00  0.00    -0.338 N 
ATOM      2  H2  UNL     1      43.855  -0.421  29.758  1.00  0.00     0.164 HD
HETATM    3  C6  UNL     1      42.897  -0.977  31.578  1.00  0.00     0.335 C 
HETATM    4  O1  UNL     1      41.984  -1.698  32.086  1.00  0.00    -0.246 OA
HETATM    5  N3  UNL     1      43.711  -0.139  32.389  1.00  0.00    -0.248 N 
ATOM      6  H3  UNL     1      44.442   0.438  31.972  1.00  0.00     0.192 HD
ENDROOT
BRANCH   1   7
HETATM    7  C5  UNL     1      42.290  -1.853  29.359  1.00  0.00     0.174 C 
BRANCH   7   8
HETATM    8  C4  UNL     1      43.111  -3.087  29.045  1.00  0.00     0.162 A 
HETATM    9  C2  UNL     1      43.524  -3.147  27.556  1.00  0.00     0.027 A 
HETATM   10  N1  UNL     1      44.170  -2.617  26.605  1.00  0.00    -0.398 N 
HETATM   11  C3  UNL     1      42.616  -4.168  28.232  1.00  0.00     0.107 A 
HETATM   12  C1  UNL     1      44.119  -3.239  25.314  1.00  0.00     0.145 C 
ATOM     13  H1  UNL     1      44.714  -1.767  26.754  1.00  0.00     0.158 HD
HETATM   14  F1  UNL     1      44.136  -3.343  29.923  1.00  0.00    -0.234 F 
ENDBRANCH   7   8
ENDBRANCH   1   7
BRANCH   5  15
HETATM   15  N4  UNL     1      43.491  -0.120  33.762  1.00  0.00    -0.248 N 
HETATM   16  C7  UNL     1      44.310   0.663  34.604  1.00  0.00     0.335 C 
HETATM   17  O2  UNL     1      45.240   1.343  34.100  1.00  0.00    -0.246 OA
HETATM   18  N5  UNL     1      44.123   0.714  36.009  1.00  0.00    -0.334 N 
ATOM     19  H5  UNL     1      43.373   0.166  36.431  1.00  0.00     0.165 HD
ATOM     20  H4  UNL     1      42.735  -0.676  34.162  1.00  0.00     0.192 HD
BRANCH  18  21
HETATM   21  C8  UNL     1      44.968   1.521  36.859  1.00  0.00     0.023 C 
HETATM   22  C9  UNL     1      44.442   1.436  38.290  1.00  0.00     0.037 C 
HETATM   23  C10 UNL     1      46.363   0.999  36.769  1.00  0.00     0.037 C 
HETATM   24  C11 UNL     1      44.869   2.999  36.482  1.00  0.00     0.037 C 
ENDBRANCH  18  21
ENDBRANCH   5  15
TORSDOF 4
ENDMDL
