MODEL 1
REMARK VINA RESULT: -6.358939669      0.000      0.000
REMARK  2 active torsions:
REMARK  status: ('A' for Active; 'I' for Inactive)
REMARK       I    between atoms: C1_2  and  N2_4 
REMARK    1  A    between atoms: N2_4  and  N3_6 
REMARK       I    between atoms: N3_6  and  C2_8 
REMARK       I    between atoms: C2_8  and  N4_10 
REMARK    2  A    between atoms: N4_10  and  C3_12 
ROOT
HETATM    1  N3  UNL     1      44.710  -2.003  27.038  1.00  0.00    -0.248 N 
ATOM      2  H3  UNL     1      45.423  -1.426  27.482  1.00  0.00     0.192 HD
HETATM    3  C2  UNL     1      43.827  -2.722  27.871  1.00  0.00     0.335 C 
HETATM    4  O2  UNL     1      42.947  -3.433  27.335  1.00  0.00    -0.246 OA
HETATM    5  N4  UNL     1      43.915  -2.656  29.260  1.00  0.00    -0.332 N 
ATOM      6  H4  UNL     1      44.647  -2.065  29.653  1.00  0.00     0.165 HD
ENDROOT
BRANCH   5   7
HETATM    7  C3  UNL     1      43.064  -3.349  30.187  1.00  0.00     0.041 C 
HETATM    8  C4  UNL     1      41.595  -3.397  29.846  1.00  0.00     0.036 C 
HETATM    9  C5  UNL     1      41.020  -4.632  30.521  1.00  0.00    -0.010 C 
HETATM   10  C6  UNL     1      41.543  -5.821  29.733  1.00  0.00     0.025 C 
HETATM   11  C10 UNL     1      41.554  -4.721  31.941  1.00  0.00     0.010 C 
HETATM   12  C7  UNL     1      43.024  -5.834  29.845  1.00  0.00     0.089 C 
HETATM   13 CL1  UNL     1      43.603  -7.331  30.607  1.00  0.00    -0.124 Cl
HETATM   14  C8  UNL     1      43.617  -4.673  30.587  1.00  0.00     0.036 C 
HETATM   15  C9  UNL     1      43.033  -4.429  31.946  1.00  0.00    -0.004 C 
HETATM   16  C11 UNL     1      43.221  -2.931  31.642  1.00  0.00     0.036 C 
ENDBRANCH   5   7
BRANCH   1  17
HETATM   17  N2  UNL     1      44.668  -2.033  25.654  1.00  0.00    -0.250 N 
HETATM   18  C1  UNL     1      44.141  -0.948  24.920  1.00  0.00     0.347 C 
HETATM   19  N1  UNL     1      44.092  -0.964  23.488  1.00  0.00    -0.038 NA
HETATM   20  O1  UNL     1      43.700   0.064  25.541  1.00  0.00    -0.249 OA
ATOM     21  H2  UNL     1      45.024  -2.850  25.158  1.00  0.00     0.191 HD
ENDBRANCH   1  17
TORSDOF 2
ENDMDL
MODEL 2
REMARK VINA RESULT: -6.232909655      2.073      2.650
REMARK  2 active torsions:
REMARK  status: ('A' for Active; 'I' for Inactive)
REMARK       I    between atoms: C1_2  and  N2_4 
REMARK    1  A    between atoms: N2_4  and  N3_6 
REMARK       I    between atoms: N3_6  and  C2_8 
REMARK       I    between atoms: C2_8  and  N4_10 
REMARK    2  A    between atoms: N4_10  and  C3_12 
ROOT
HETATM    1  N3  UNL     1      44.905  -1.441  27.878  1.00  0.00    -0.248 N 
ATOM      2  H3  UNL     1      45.861  -1.295  28.204  1.00  0.00     0.192 HD
HETATM    3  C2  UNL     1      43.879  -1.499  28.844  1.00  0.00     0.335 C 
HETATM    4  O2  UNL     1      42.703  -1.676  28.454  1.00  0.00    -0.246 OA
HETATM    5  N4  UNL     1      44.146  -1.364  30.205  1.00  0.00    -0.332 N 
ATOM      6  H4  UNL     1      45.119  -1.222  30.476  1.00  0.00     0.165 HD
ENDROOT
BRANCH   5   7
HETATM    7  C3  UNL     1      43.171  -1.409  31.258  1.00  0.00     0.041 C 
HETATM    8  C4  UNL     1      41.850  -0.733  30.983  1.00  0.00     0.036 C 
HETATM    9  C5  UNL     1      40.810  -1.410  31.862  1.00  0.00    -0.010 C 
HETATM   10  C6  UNL     1      40.571  -2.778  31.248  1.00  0.00     0.025 C 
HETATM   11  C10 UNL     1      41.381  -1.598  33.257  1.00  0.00     0.010 C 
HETATM   12  C7  UNL     1      41.846  -3.539  31.306  1.00  0.00     0.089 C 
HETATM   13 CL1  UNL     1      41.671  -5.023  32.268  1.00  0.00    -0.124 Cl
HETATM   14  C8  UNL     1      43.021  -2.774  31.838  1.00  0.00     0.036 C 
HETATM   15  C9  UNL     1      42.795  -2.111  33.163  1.00  0.00    -0.004 C 
HETATM   16  C11 UNL     1      43.677  -0.970  32.625  1.00  0.00     0.036 C 
ENDBRANCH   5   7
BRANCH   1  17
HETATM   17  N2  UNL     1      44.697  -1.569  26.515  1.00  0.00    -0.250 N 
HETATM   18  C1  UNL     1      44.493  -2.836  25.927  1.00  0.00     0.347 C 
HETATM   19  N1  UNL     1      44.277  -2.984  24.518  1.00  0.00    -0.038 NA
HETATM   20  O1  UNL     1      44.502  -3.868  26.661  1.00  0.00    -0.249 OA
ATOM     21  H2  UNL     1      44.692  -0.735  25.927  1.00  0.00     0.191 HD
ENDBRANCH   1  17
TORSDOF 2
ENDMDL
MODEL 3
REMARK VINA RESULT: -6.183330256      1.648      1.845
REMARK  2 active torsions:
REMARK  status: ('A' for Active; 'I' for Inactive)
REMARK       I    between atoms: C1_2  and  N2_4 
REMARK    1  A    between atoms: N2_4  and  N3_6 
REMARK       I    between atoms: N3_6  and  C2_8 
REMARK       I    between atoms: C2_8  and  N4_10 
REMARK    2  A    between atoms: N4_10  and  C3_12 
ROOT
HETATM    1  N3  UNL     1      44.025  -4.098  26.513  1.00  0.00    -0.248 N 
ATOM      2  H3  UNL     1      44.756  -4.786  26.332  1.00  0.00     0.192 HD
HETATM    3  C2  UNL     1      43.328  -4.180  27.736  1.00  0.00     0.335 C 
HETATM    4  O2  UNL     1      42.429  -3.340  27.969  1.00  0.00    -0.246 OA
HETATM    5  N4  UNL     1      43.617  -5.165  28.678  1.00  0.00    -0.332 N 
ATOM      6  H4  UNL     1      44.357  -5.828  28.447  1.00  0.00     0.165 HD
ENDROOT
BRANCH   5   7
HETATM    7  C3  UNL     1      42.964  -5.328  29.947  1.00  0.00     0.041 C 
HETATM    8  C4  UNL     1      41.531  -5.797  29.912  1.00  0.00     0.036 C 
HETATM    9  C5  UNL     1      41.256  -6.496  31.234  1.00  0.00    -0.010 C 
HETATM   10  C6  UNL     1      42.000  -7.819  31.170  1.00  0.00     0.025 C 
HETATM   11  C10 UNL     1      41.840  -5.668  32.367  1.00  0.00     0.010 C 
HETATM   12  C7  UNL     1      43.451  -7.528  31.050  1.00  0.00     0.089 C 
HETATM   13 CL1  UNL     1      44.362  -8.202  32.418  1.00  0.00    -0.124 Cl
HETATM   14  C8  UNL     1      43.802  -6.075  30.927  1.00  0.00     0.036 C 
HETATM   15  C9  UNL     1      43.220  -5.193  31.991  1.00  0.00    -0.004 C 
HETATM   16  C11 UNL     1      43.070  -4.134  30.885  1.00  0.00     0.036 C 
ENDBRANCH   5   7
BRANCH   1  17
HETATM   17  N2  UNL     1      43.779  -3.142  25.542  1.00  0.00    -0.250 N 
HETATM   18  C1  UNL     1      44.484  -1.919  25.531  1.00  0.00     0.347 C 
HETATM   19  N1  UNL     1      44.240  -0.920  24.533  1.00  0.00    -0.038 NA
HETATM   20  O1  UNL     1      45.353  -1.697  26.425  1.00  0.00    -0.249 OA
ATOM     21  H2  UNL     1      43.077  -3.324  24.824  1.00  0.00     0.191 HD
ENDBRANCH   1  17
TORSDOF 2
ENDMDL
MODEL 4
REMARK VINA RESULT: -6.083832022      2.463      3.152
REMARK  2 active torsions:
REMARK  status: ('A' for Active; 'I' for Inactive)
REMARK       I    between atoms: C1_2  and  N2_4 
REMARK    1  A    between atoms: N2_4  and  N3_6 
REMARK       I    between atoms: N3_6  and  C2_8 
REMARK       I    between atoms: C2_8  and  N4_10 
REMARK    2  A    between atoms: N4_10  and  C3_12 
ROOT
HETATM    1  N3  UNL     1      43.952  -4.167  27.578  1.00  0.00    -0.248 N 
ATOM      2  H3  UNL     1      44.539  -4.948  27.870  1.00  0.00     0.192 HD
HETATM    3  C2  UNL     1      43.336  -3.391  28.581  1.00  0.00     0.335 C 
HETATM    4  O2  UNL     1      42.614  -2.429  28.233  1.00  0.00    -0.246 OA
HETATM    5  N4  UNL     1      43.512  -3.671  29.935  1.00  0.00    -0.332 N 
ATOM      6  H4  UNL     1      44.107  -4.464  30.172  1.00  0.00     0.165 HD
ENDROOT
BRANCH   5   7
HETATM    7  C3  UNL     1      42.927  -2.940  31.024  1.00  0.00     0.041 C 
HETATM    8  C4  UNL     1      43.369  -1.507  31.188  1.00  0.00     0.036 C 
HETATM    9  C5  UNL     1      42.245  -0.771  31.900  1.00  0.00    -0.010 C 
HETATM   10  C6  UNL     1      41.131  -0.620  30.879  1.00  0.00     0.025 C 
HETATM   11  C10 UNL     1      41.735  -1.628  33.047  1.00  0.00     0.010 C 
HETATM   12  C7  UNL     1      40.673  -1.979  30.490  1.00  0.00     0.089 C 
HETATM   13 CL1  UNL     1      38.955  -2.217  30.877  1.00  0.00    -0.124 Cl
HETATM   14  C8  UNL     1      41.448  -3.111  31.096  1.00  0.00     0.036 C 
HETATM   15  C9  UNL     1      41.584  -3.055  32.588  1.00  0.00    -0.004 C 
HETATM   16  C11 UNL     1      42.994  -3.636  32.376  1.00  0.00     0.036 C 
ENDBRANCH   5   7
BRANCH   1  17
HETATM   17  N2  UNL     1      43.812  -3.934  26.220  1.00  0.00    -0.250 N 
HETATM   18  C1  UNL     1      44.494  -2.870  25.590  1.00  0.00     0.347 C 
HETATM   19  N1  UNL     1      44.358  -2.617  24.187  1.00  0.00    -0.038 NA
HETATM   20  O1  UNL     1      45.244  -2.120  26.283  1.00  0.00    -0.249 OA
ATOM     21  H2  UNL     1      43.205  -4.540  25.666  1.00  0.00     0.191 HD
ENDBRANCH   1  17
TORSDOF 2
ENDMDL
MODEL 5
REMARK VINA RESULT: -6.067641167      2.518      3.081
REMARK  2 active torsions:
REMARK  status: ('A' for Active; 'I' for Inactive)
REMARK       I    between atoms: C1_2  and  N2_4 
REMARK    1  A    between atoms: N2_4  and  N3_6 
REMARK       I    between atoms: N3_6  and  C2_8 
REMARK       I    between atoms: C2_8  and  N4_10 
REMARK    2  A    between atoms: N4_10  and  C3_12 
ROOT
HETATM    1  N3  UNL     1      44.121  -3.522  28.164  1.00  0.00    -0.248 N 
ATOM      2  H3  UNL     1      44.976  -3.887  28.584  1.00  0.00     0.192 HD
HETATM    3  C2  UNL     1      43.188  -2.886  29.010  1.00  0.00     0.335 C 
HETATM    4  O2  UNL     1      42.136  -2.435  28.504  1.00  0.00    -0.246 OA
HETATM    5  N4  UNL     1      43.413  -2.753  30.378  1.00  0.00    -0.332 N 
ATOM      6  H4  UNL     1      44.283  -3.136  30.747  1.00  0.00     0.165 HD
ENDROOT
BRANCH   5   7
HETATM    7  C3  UNL     1      42.525  -2.124  31.316  1.00  0.00     0.041 C 
HETATM    8  C4  UNL     1      41.978  -0.774  30.922  1.00  0.00     0.036 C 
HETATM    9  C5  UNL     1      40.657  -0.596  31.655  1.00  0.00    -0.010 C 
HETATM   10  C6  UNL     1      39.670  -1.524  30.967  1.00  0.00     0.025 C 
HETATM   11  C10 UNL     1      40.820  -1.047  33.097  1.00  0.00     0.010 C 
HETATM   12  C7  UNL     1      40.152  -2.919  31.136  1.00  0.00     0.089 C 
HETATM   13 CL1  UNL     1      38.969  -3.910  32.017  1.00  0.00    -0.124 Cl
HETATM   14  C8  UNL     1      41.479  -3.056  31.823  1.00  0.00     0.036 C 
HETATM   15  C9  UNL     1      41.584  -2.346  33.139  1.00  0.00    -0.004 C 
HETATM   16  C11 UNL     1      43.042  -2.050  32.745  1.00  0.00     0.036 C 
ENDBRANCH   5   7
BRANCH   1  17
HETATM   17  N2  UNL     1      43.949  -3.683  26.800  1.00  0.00    -0.250 N 
HETATM   18  C1  UNL     1      44.548  -2.792  25.882  1.00  0.00     0.347 C 
HETATM   19  N1  UNL     1      44.378  -2.945  24.468  1.00  0.00    -0.038 NA
HETATM   20  O1  UNL     1      45.250  -1.833  26.319  1.00  0.00    -0.249 OA
ATOM     21  H2  UNL     1      43.381  -4.456  26.452  1.00  0.00     0.191 HD
ENDBRANCH   1  17
TORSDOF 2
ENDMDL
