MODEL 1
REMARK VINA RESULT: -6.191793861      0.000      0.000
REMARK  3 active torsions:
REMARK  status: ('A' for Active; 'I' for Inactive)
REMARK       I    between atoms: C2_4  and  N2_5 
REMARK       I    between atoms: C2_4  and  N3_16 
REMARK    1  A    between atoms: N2_5  and  C3_7 
REMARK    2  A    between atoms: C3_7  and  C4_8 
REMARK    3  A    between atoms: N3_16  and  N4_18 
REMARK       I    between atoms: N4_18  and  C11_20 
ROOT
HETATM    1  C1  UNL     1      42.330  -3.785  32.895  1.00  0.00     0.165 C 
HETATM    2  N1  UNL     1      42.867  -2.451  33.026  1.00  0.00    -0.229 N 
ATOM      3  H1  UNL     1      43.527  -2.232  33.772  1.00  0.00     0.177 HD
HETATM    4  C2  UNL     1      42.507  -1.548  32.196  1.00  0.00     0.688 C 
HETATM    5  N2  UNL     1      41.582  -1.904  31.169  1.00  0.00    -0.225 N 
ATOM      6  H2  UNL     1      40.670  -2.307  31.384  1.00  0.00     0.177 HD
HETATM    7  N3  UNL     1      43.034  -0.235  32.319  1.00  0.00    -0.129 N 
ATOM      8  H3  UNL     1      42.928   0.436  31.559  1.00  0.00     0.205 HD
ENDROOT
BRANCH   5   9
HETATM    9  C3  UNL     1      42.008  -1.661  29.806  1.00  0.00     0.143 C 
BRANCH   9  10
HETATM   10  C4  UNL     1      43.154  -2.522  29.376  1.00  0.00     0.009 C 
HETATM   11  C5  UNL     1      44.392  -1.696  28.996  1.00  0.00     0.013 C 
HETATM   12  C6  UNL     1      43.731  -1.493  27.641  1.00  0.00     0.009 C 
HETATM   13  C7  UNL     1      44.634  -1.712  26.451  1.00  0.00     0.086 C 
HETATM   14  C10 UNL     1      43.014  -2.803  27.880  1.00  0.00    -0.003 C 
HETATM   15 CL1  UNL     1      44.041  -0.719  25.078  1.00  0.00    -0.125 Cl
HETATM   16  C8  UNL     1      44.472  -3.163  26.067  1.00  0.00     0.021 C 
HETATM   17  C9  UNL     1      43.949  -3.818  27.328  1.00  0.00     0.007 C 
ENDBRANCH   9  10
ENDBRANCH   5   9
BRANCH   7  18
HETATM   18  N4  UNL     1      43.695   0.124  33.488  1.00  0.00    -0.240 N 
HETATM   19  C11 UNL     1      45.078   0.422  33.533  1.00  0.00     0.347 C 
HETATM   20  N5  UNL     1      45.746   0.788  34.727  1.00  0.00    -0.038 NA
HETATM   21  O1  UNL     1      45.727   0.349  32.434  1.00  0.00    -0.249 OA
ATOM     22  H4  UNL     1      43.158   0.175  34.354  1.00  0.00     0.192 HD
ENDBRANCH   7  18
TORSDOF 3
ENDMDL
MODEL 2
REMARK VINA RESULT: -5.951905495      3.940      7.182
REMARK  3 active torsions:
REMARK  status: ('A' for Active; 'I' for Inactive)
REMARK       I    between atoms: C2_4  and  N2_5 
REMARK       I    between atoms: C2_4  and  N3_16 
REMARK    1  A    between atoms: N2_5  and  C3_7 
REMARK    2  A    between atoms: C3_7  and  C4_8 
REMARK    3  A    between atoms: N3_16  and  N4_18 
REMARK       I    between atoms: N4_18  and  C11_20 
ROOT
HETATM    1  C1  UNL     1      40.370  -0.245  30.884  1.00  0.00     0.165 C 
HETATM    2  N1  UNL     1      41.577  -0.696  30.231  1.00  0.00    -0.229 N 
ATOM      3  H1  UNL     1      41.598  -0.828  29.220  1.00  0.00     0.177 HD
HETATM    4  C2  UNL     1      42.619  -0.929  30.934  1.00  0.00     0.688 C 
HETATM    5  N2  UNL     1      42.540  -0.730  32.345  1.00  0.00    -0.225 N 
ATOM      6  H2  UNL     1      41.842  -1.207  32.916  1.00  0.00     0.177 HD
HETATM    7  N3  UNL     1      43.808  -1.371  30.297  1.00  0.00    -0.129 N 
ATOM      8  H3  UNL     1      44.696  -1.361  30.798  1.00  0.00     0.205 HD
ENDROOT
BRANCH   5   9
HETATM    9  C3  UNL     1      43.504   0.184  32.922  1.00  0.00     0.143 C 
BRANCH   9  10
HETATM   10  C4  UNL     1      44.002  -0.245  34.267  1.00  0.00     0.009 C 
HETATM   11  C5  UNL     1      43.079   0.218  35.404  1.00  0.00     0.013 C 
HETATM   12  C6  UNL     1      43.785   1.562  35.312  1.00  0.00     0.009 C 
HETATM   13  C7  UNL     1      44.207   2.153  36.635  1.00  0.00     0.086 C 
HETATM   14  C10 UNL     1      44.984   0.809  34.778  1.00  0.00    -0.003 C 
HETATM   15 CL1  UNL     1      44.258   3.942  36.483  1.00  0.00    -0.125 Cl
HETATM   16  C8  UNL     1      45.619   1.677  36.873  1.00  0.00     0.021 C 
HETATM   17  C9  UNL     1      45.738   0.441  36.005  1.00  0.00     0.007 C 
ENDBRANCH   9  10
ENDBRANCH   5   9
BRANCH   7  18
HETATM   18  N4  UNL     1      43.748  -1.817  28.982  1.00  0.00    -0.240 N 
HETATM   19  C11 UNL     1      44.494  -1.230  27.932  1.00  0.00     0.347 C 
HETATM   20  N5  UNL     1      44.429  -1.690  26.594  1.00  0.00    -0.038 NA
HETATM   21  O1  UNL     1      45.250  -0.245  28.233  1.00  0.00    -0.249 OA
ATOM     22  H4  UNL     1      43.137  -2.604  28.763  1.00  0.00     0.192 HD
ENDBRANCH   7  18
TORSDOF 3
ENDMDL
MODEL 3
REMARK VINA RESULT: -5.947032051      4.331      6.568
REMARK  3 active torsions:
REMARK  status: ('A' for Active; 'I' for Inactive)
REMARK       I    between atoms: C2_4  and  N2_5 
REMARK       I    between atoms: C2_4  and  N3_16 
REMARK    1  A    between atoms: N2_5  and  C3_7 
REMARK    2  A    between atoms: C3_7  and  C4_8 
REMARK    3  A    between atoms: N3_16  and  N4_18 
REMARK       I    between atoms: N4_18  and  C11_20 
ROOT
HETATM    1  C1  UNL     1      41.229  -4.589  29.758  1.00  0.00     0.165 C 
HETATM    2  N1  UNL     1      42.031  -3.967  28.731  1.00  0.00    -0.229 N 
ATOM      3  H1  UNL     1      42.143  -4.415  27.821  1.00  0.00     0.177 HD
HETATM    4  C2  UNL     1      42.601  -2.849  28.973  1.00  0.00     0.688 C 
HETATM    5  N2  UNL     1      42.416  -2.261  30.260  1.00  0.00    -0.225 N 
ATOM      6  H2  UNL     1      42.654  -2.760  31.118  1.00  0.00     0.177 HD
HETATM    7  N3  UNL     1      43.390  -2.232  27.966  1.00  0.00    -0.129 N 
ATOM      8  H3  UNL     1      43.676  -1.258  28.060  1.00  0.00     0.205 HD
ENDROOT
BRANCH   5   9
HETATM    9  C3  UNL     1      41.872  -0.919  30.284  1.00  0.00     0.143 C 
BRANCH   9  10
HETATM   10  C4  UNL     1      41.068  -0.622  31.512  1.00  0.00     0.009 C 
HETATM   11  C5  UNL     1      40.254  -1.837  31.982  1.00  0.00     0.013 C 
HETATM   12  C6  UNL     1      39.228  -1.446  30.930  1.00  0.00     0.009 C 
HETATM   13  C7  UNL     1      37.795  -1.445  31.406  1.00  0.00     0.086 C 
HETATM   14  C10 UNL     1      39.729  -0.026  31.080  1.00  0.00    -0.003 C 
HETATM   15 CL1  UNL     1      36.716  -1.765  30.006  1.00  0.00    -0.125 Cl
HETATM   16  C8  UNL     1      37.515  -0.041  31.884  1.00  0.00     0.021 C 
HETATM   17  C9  UNL     1      38.889   0.525  32.176  1.00  0.00     0.007 C 
ENDBRANCH   9  10
ENDBRANCH   5   9
BRANCH   7  18
HETATM   18  N4  UNL     1      43.767  -2.972  26.852  1.00  0.00    -0.240 N 
HETATM   19  C11 UNL     1      44.194  -2.380  25.640  1.00  0.00     0.347 C 
HETATM   20  N5  UNL     1      44.578  -3.140  24.508  1.00  0.00    -0.038 NA
HETATM   21  O1  UNL     1      44.225  -1.103  25.593  1.00  0.00    -0.249 OA
ATOM     22  H4  UNL     1      43.734  -3.990  26.910  1.00  0.00     0.192 HD
ENDBRANCH   7  18
TORSDOF 3
ENDMDL
MODEL 4
REMARK VINA RESULT: -5.905087998      4.021      6.913
REMARK  3 active torsions:
REMARK  status: ('A' for Active; 'I' for Inactive)
REMARK       I    between atoms: C2_4  and  N2_5 
REMARK       I    between atoms: C2_4  and  N3_16 
REMARK    1  A    between atoms: N2_5  and  C3_7 
REMARK    2  A    between atoms: C3_7  and  C4_8 
REMARK    3  A    between atoms: N3_16  and  N4_18 
REMARK       I    between atoms: N4_18  and  C11_20 
ROOT
HETATM    1  C1  UNL     1      40.627  -0.431  30.422  1.00  0.00     0.165 C 
HETATM    2  N1  UNL     1      41.947  -0.573  29.852  1.00  0.00    -0.229 N 
ATOM      3  H1  UNL     1      42.173  -0.134  28.959  1.00  0.00     0.177 HD
HETATM    4  C2  UNL     1      42.828  -1.256  30.477  1.00  0.00     0.688 C 
HETATM    5  N2  UNL     1      42.463  -1.852  31.721  1.00  0.00    -0.225 N 
ATOM      6  H2  UNL     1      41.671  -2.489  31.800  1.00  0.00     0.177 HD
HETATM    7  N3  UNL     1      44.127  -1.398  29.921  1.00  0.00    -0.129 N 
ATOM      8  H3  UNL     1      44.895  -1.753  30.490  1.00  0.00     0.205 HD
ENDROOT
BRANCH   5   9
HETATM    9  C3  UNL     1      43.279  -1.504  32.866  1.00  0.00     0.143 C 
BRANCH   9  10
HETATM   10  C4  UNL     1      43.289  -0.038  33.169  1.00  0.00     0.009 C 
HETATM   11  C5  UNL     1      44.713   0.512  33.341  1.00  0.00     0.013 C 
HETATM   12  C6  UNL     1      44.652  -0.020  34.764  1.00  0.00     0.009 C 
HETATM   13  C7  UNL     1      45.128   0.941  35.826  1.00  0.00     0.086 C 
HETATM   14  C10 UNL     1      43.150   0.145  34.681  1.00  0.00    -0.003 C 
HETATM   15 CL1  UNL     1      45.749   0.003  37.226  1.00  0.00    -0.125 Cl
HETATM   16  C8  UNL     1      43.903   1.691  36.289  1.00  0.00     0.021 C 
HETATM   17  C9  UNL     1      42.928   1.541  35.140  1.00  0.00     0.007 C 
ENDBRANCH   9  10
ENDBRANCH   5   9
BRANCH   7  18
HETATM   18  N4  UNL     1      44.339  -1.046  28.594  1.00  0.00    -0.240 N 
HETATM   19  C11 UNL     1      44.423  -1.995  27.547  1.00  0.00     0.347 C 
HETATM   20  N5  UNL     1      44.638  -1.630  26.196  1.00  0.00    -0.038 NA
HETATM   21  O1  UNL     1      44.296  -3.226  27.864  1.00  0.00    -0.249 OA
ATOM     22  H4  UNL     1      44.438  -0.057  28.362  1.00  0.00     0.192 HD
ENDBRANCH   7  18
TORSDOF 3
ENDMDL
MODEL 5
REMARK VINA RESULT: -5.900815158      3.949      6.453
REMARK  3 active torsions:
REMARK  status: ('A' for Active; 'I' for Inactive)
REMARK       I    between atoms: C2_4  and  N2_5 
REMARK       I    between atoms: C2_4  and  N3_16 
REMARK    1  A    between atoms: N2_5  and  C3_7 
REMARK    2  A    between atoms: C3_7  and  C4_8 
REMARK    3  A    between atoms: N3_16  and  N4_18 
REMARK       I    between atoms: N4_18  and  C11_20 
ROOT
HETATM    1  C1  UNL     1      41.750  -5.878  29.518  1.00  0.00     0.165 C 
HETATM    2  N1  UNL     1      42.374  -4.957  28.597  1.00  0.00    -0.229 N 
ATOM      3  H1  UNL     1      42.136  -4.978  27.606  1.00  0.00     0.177 HD
HETATM    4  C2  UNL     1      43.229  -4.115  29.037  1.00  0.00     0.688 C 
HETATM    5  N2  UNL     1      43.531  -4.125  30.432  1.00  0.00    -0.225 N 
ATOM      6  H2  UNL     1      43.865  -4.966  30.904  1.00  0.00     0.177 HD
HETATM    7  N3  UNL     1      43.845  -3.207  28.136  1.00  0.00    -0.129 N 
ATOM      8  H3  UNL     1      44.362  -2.402  28.488  1.00  0.00     0.205 HD
ENDROOT
BRANCH   5   9
HETATM    9  C3  UNL     1      43.337  -2.877  31.142  1.00  0.00     0.143 C 
BRANCH   9  10
HETATM   10  C4  UNL     1      42.483  -3.012  32.364  1.00  0.00     0.009 C 
HETATM   11  C5  UNL     1      41.002  -3.228  32.016  1.00  0.00     0.013 C 
HETATM   12  C6  UNL     1      40.915  -1.720  31.836  1.00  0.00     0.009 C 
HETATM   13  C7  UNL     1      39.727  -1.065  32.497  1.00  0.00     0.086 C 
HETATM   14  C10 UNL     1      42.063  -1.614  32.817  1.00  0.00    -0.003 C 
HETATM   15 CL1  UNL     1      39.309   0.430  31.596  1.00  0.00    -0.125 Cl
HETATM   16  C8  UNL     1      40.190  -0.653  33.873  1.00  0.00     0.021 C 
HETATM   17  C9  UNL     1      41.385  -1.545  34.138  1.00  0.00     0.007 C 
ENDBRANCH   9  10
ENDBRANCH   5   9
BRANCH   7  18
HETATM   18  N4  UNL     1      43.733  -3.428  26.769  1.00  0.00    -0.240 N 
HETATM   19  C11 UNL     1      44.484  -2.711  25.806  1.00  0.00     0.347 C 
HETATM   20  N5  UNL     1      44.367  -2.942  24.414  1.00  0.00    -0.038 NA
HETATM   21  O1  UNL     1      45.295  -1.825  26.241  1.00  0.00    -0.249 OA
ATOM     22  H4  UNL     1      43.079  -4.140  26.443  1.00  0.00     0.192 HD
ENDBRANCH   7  18
TORSDOF 3
ENDMDL
