MODEL 1
REMARK VINA RESULT: -5.850771393      0.000      0.000
REMARK  3 active torsions:
REMARK  status: ('A' for Active; 'I' for Inactive)
REMARK    1  A    between atoms: C5_5  and  C6_6 
REMARK    2  A    between atoms: C6_6  and  C8_9 
REMARK       I    between atoms: C8_9  and  N1_11 
REMARK    3  A    between atoms: N1_11  and  N2_13 
REMARK       I    between atoms: N2_13  and  C9_15 
ROOT
HETATM    1  C8  UNL     1      43.169  -2.203  28.954  1.00  0.00     0.255 C 
HETATM    2  O1  UNL     1      43.326  -0.973  28.793  1.00  0.00    -0.270 OA
HETATM    3  N1  UNL     1      43.389  -3.039  27.835  1.00  0.00    -0.266 N 
ATOM      4  H1  UNL     1      43.264  -4.045  27.953  1.00  0.00     0.190 HD
ENDROOT
BRANCH   1   5
HETATM    5  C6  UNL     1      42.769  -2.696  30.287  1.00  0.00     0.101 C 
HETATM    6  C7  UNL     1      43.544  -4.006  30.517  1.00  0.00     0.038 C 
HETATM    7 BR1  UNL     1      43.431  -1.496  31.685  1.00  0.00    -0.075 Br
BRANCH   5   8
HETATM    8  C5  UNL     1      41.329  -2.992  30.456  1.00  0.00     0.022 A 
HETATM    9  C2  UNL     1      40.238  -2.054  30.590  1.00  0.00    -0.042 A 
HETATM   10  C1  UNL     1      38.830  -2.584  30.253  1.00  0.00     0.015 C 
HETATM   11  C3  UNL     1      40.300  -0.570  30.424  1.00  0.00     0.015 C 
HETATM   12  C4  UNL     1      40.754  -2.686  31.850  1.00  0.00     0.016 A 
ENDBRANCH   5   8
ENDBRANCH   1   5
BRANCH   3  13
HETATM   13  N2  UNL     1      43.764  -2.570  26.589  1.00  0.00    -0.271 N 
HETATM   14  C9  UNL     1      44.179  -3.403  25.520  1.00  0.00     0.200 C 
HETATM   15  N3  UNL     1      44.151  -4.679  25.662  1.00  0.00    -0.372 N 
HETATM   16  N4  UNL     1      44.623  -2.862  24.304  1.00  0.00    -0.062 NA
ATOM     17  H32 UNL     1      43.829  -5.073  26.546  1.00  0.00     0.158 HD
ATOM     18  H31 UNL     1      44.449  -5.278  24.892  1.00  0.00     0.158 HD
ATOM     19  H2  UNL     1      43.742  -1.564  26.430  1.00  0.00     0.189 HD
ENDBRANCH   3  13
TORSDOF 3
ENDMDL
MODEL 2
REMARK VINA RESULT: -5.820036208      2.202      3.355
REMARK  3 active torsions:
REMARK  status: ('A' for Active; 'I' for Inactive)
REMARK    1  A    between atoms: C5_5  and  C6_6 
REMARK    2  A    between atoms: C6_6  and  C8_9 
REMARK       I    between atoms: C8_9  and  N1_11 
REMARK    3  A    between atoms: N1_11  and  N2_13 
REMARK       I    between atoms: N2_13  and  C9_15 
ROOT
HETATM    1  C8  UNL     1      42.907  -3.417  28.913  1.00  0.00     0.255 C 
HETATM    2  O1  UNL     1      41.819  -3.276  28.314  1.00  0.00    -0.270 OA
HETATM    3  N1  UNL     1      44.053  -3.682  28.127  1.00  0.00    -0.266 N 
ATOM      4  H1  UNL     1      44.947  -3.799  28.604  1.00  0.00     0.190 HD
ENDROOT
BRANCH   1   5
HETATM    5  C6  UNL     1      42.925  -3.298  30.385  1.00  0.00     0.101 C 
HETATM    6  C7  UNL     1      43.623  -1.964  30.705  1.00  0.00     0.038 C 
HETATM    7 BR1  UNL     1      41.107  -3.066  31.073  1.00  0.00    -0.075 Br
BRANCH   5   8
HETATM    8  C5  UNL     1      43.651  -4.367  31.106  1.00  0.00     0.022 A 
HETATM    9  C2  UNL     1      43.396  -5.790  31.079  1.00  0.00    -0.042 A 
HETATM   10  C1  UNL     1      44.564  -6.706  31.495  1.00  0.00     0.015 C 
HETATM   11  C3  UNL     1      42.441  -6.518  30.189  1.00  0.00     0.015 C 
HETATM   12  C4  UNL     1      42.877  -5.024  32.261  1.00  0.00     0.016 A 
ENDBRANCH   5   8
ENDBRANCH   1   5
BRANCH   3  13
HETATM   13  N2  UNL     1      44.029  -3.791  26.749  1.00  0.00    -0.271 N 
HETATM   14  C9  UNL     1      44.493  -2.785  25.865  1.00  0.00     0.200 C 
HETATM   15  N3  UNL     1      45.039  -1.725  26.342  1.00  0.00    -0.372 N 
HETATM   16  N4  UNL     1      44.370  -2.922  24.474  1.00  0.00    -0.062 NA
ATOM     17  H32 UNL     1      45.128  -1.625  27.353  1.00  0.00     0.158 HD
ATOM     18  H31 UNL     1      45.374  -1.001  25.706  1.00  0.00     0.158 HD
ATOM     19  H2  UNL     1      43.653  -4.648  26.343  1.00  0.00     0.189 HD
ENDBRANCH   3  13
TORSDOF 3
ENDMDL
MODEL 3
REMARK VINA RESULT: -5.768214503      2.102      2.379
REMARK  3 active torsions:
REMARK  status: ('A' for Active; 'I' for Inactive)
REMARK    1  A    between atoms: C5_5  and  C6_6 
REMARK    2  A    between atoms: C6_6  and  C8_9 
REMARK       I    between atoms: C8_9  and  N1_11 
REMARK    3  A    between atoms: N1_11  and  N2_13 
REMARK       I    between atoms: N2_13  and  C9_15 
ROOT
HETATM    1  C8  UNL     1      42.462  -3.828  28.947  1.00  0.00     0.255 C 
HETATM    2  O1  UNL     1      41.507  -3.108  28.581  1.00  0.00    -0.270 OA
HETATM    3  N1  UNL     1      43.620  -3.835  28.134  1.00  0.00    -0.266 N 
ATOM      4  H1  UNL     1      44.406  -4.418  28.422  1.00  0.00     0.190 HD
ENDROOT
BRANCH   1   5
HETATM    5  C6  UNL     1      42.321  -4.612  30.190  1.00  0.00     0.101 C 
HETATM    6  C7  UNL     1      41.309  -5.732  29.886  1.00  0.00     0.038 C 
HETATM    7 BR1  UNL     1      43.984  -5.565  30.588  1.00  0.00    -0.075 Br
BRANCH   5   8
HETATM    8  C5  UNL     1      41.823  -3.866  31.366  1.00  0.00     0.022 A 
HETATM    9  C2  UNL     1      42.390  -2.684  31.975  1.00  0.00    -0.042 A 
HETATM   10  C1  UNL     1      41.439  -1.833  32.841  1.00  0.00     0.015 C 
HETATM   11  C3  UNL     1      43.518  -1.854  31.453  1.00  0.00     0.015 C 
HETATM   12  C4  UNL     1      42.676  -4.000  32.639  1.00  0.00     0.016 A 
ENDBRANCH   5   8
ENDBRANCH   1   5
BRANCH   3  13
HETATM   13  N2  UNL     1      43.745  -3.097  26.972  1.00  0.00    -0.271 N 
HETATM   14  C9  UNL     1      44.171  -3.635  25.732  1.00  0.00     0.200 C 
HETATM   15  N3  UNL     1      44.397  -4.895  25.631  1.00  0.00    -0.372 N 
HETATM   16  N4  UNL     1      44.353  -2.817  24.606  1.00  0.00    -0.062 NA
ATOM     17  H32 UNL     1      44.265  -5.489  26.450  1.00  0.00     0.158 HD
ATOM     18  H31 UNL     1      44.703  -5.282  24.739  1.00  0.00     0.158 HD
ATOM     19  H2  UNL     1      43.517  -2.103  27.009  1.00  0.00     0.189 HD
ENDBRANCH   3  13
TORSDOF 3
ENDMDL
MODEL 4
REMARK VINA RESULT: -5.574325851      1.914      2.640
REMARK  3 active torsions:
REMARK  status: ('A' for Active; 'I' for Inactive)
REMARK    1  A    between atoms: C5_5  and  C6_6 
REMARK    2  A    between atoms: C6_6  and  C8_9 
REMARK       I    between atoms: C8_9  and  N1_11 
REMARK    3  A    between atoms: N1_11  and  N2_13 
REMARK       I    between atoms: N2_13  and  C9_15 
ROOT
HETATM    1  C8  UNL     1      42.776  -3.896  28.809  1.00  0.00     0.255 C 
HETATM    2  O1  UNL     1      41.801  -3.340  28.258  1.00  0.00    -0.270 OA
HETATM    3  N1  UNL     1      43.830  -4.338  27.975  1.00  0.00    -0.266 N 
ATOM      4  H1  UNL     1      44.631  -4.793  28.413  1.00  0.00     0.190 HD
ENDROOT
BRANCH   1   5
HETATM    5  C6  UNL     1      42.765  -4.051  30.277  1.00  0.00     0.101 C 
HETATM    6  C7  UNL     1      41.290  -4.218  30.687  1.00  0.00     0.038 C 
HETATM    7 BR1  UNL     1      43.600  -5.745  30.791  1.00  0.00    -0.075 Br
BRANCH   5   8
HETATM    8  C5  UNL     1      43.316  -2.913  31.047  1.00  0.00     0.022 A 
HETATM    9  C2  UNL     1      42.805  -1.564  31.129  1.00  0.00    -0.042 A 
HETATM   10  C1  UNL     1      43.247  -0.735  32.352  1.00  0.00     0.015 C 
HETATM   11  C3  UNL     1      41.509  -1.056  30.583  1.00  0.00     0.015 C 
HETATM   12  C4  UNL     1      43.963  -1.801  30.204  1.00  0.00     0.016 A 
ENDBRANCH   5   8
ENDBRANCH   1   5
BRANCH   3  13
HETATM   13  N2  UNL     1      43.834  -4.188  26.601  1.00  0.00    -0.271 N 
HETATM   14  C9  UNL     1      44.335  -3.045  25.929  1.00  0.00     0.200 C 
HETATM   15  N3  UNL     1      44.887  -2.103  26.605  1.00  0.00    -0.372 N 
HETATM   16  N4  UNL     1      44.239  -2.919  24.534  1.00  0.00    -0.062 NA
ATOM     17  H32 UNL     1      44.956  -2.195  27.618  1.00  0.00     0.158 HD
ATOM     18  H31 UNL     1      45.248  -1.281  26.121  1.00  0.00     0.158 HD
ATOM     19  H2  UNL     1      43.452  -4.947  26.036  1.00  0.00     0.189 HD
ENDBRANCH   3  13
TORSDOF 3
ENDMDL
MODEL 5
REMARK VINA RESULT: -5.466036207      2.448      3.574
REMARK  3 active torsions:
REMARK  status: ('A' for Active; 'I' for Inactive)
REMARK    1  A    between atoms: C5_5  and  C6_6 
REMARK    2  A    between atoms: C6_6  and  C8_9 
REMARK       I    between atoms: C8_9  and  N1_11 
REMARK    3  A    between atoms: N1_11  and  N2_13 
REMARK       I    between atoms: N2_13  and  C9_15 
ROOT
HETATM    1  C8  UNL     1      41.563  -1.777  29.626  1.00  0.00     0.255 C 
HETATM    2  O1  UNL     1      41.150  -2.787  29.016  1.00  0.00    -0.270 OA
HETATM    3  N1  UNL     1      42.712  -1.131  29.113  1.00  0.00    -0.266 N 
ATOM      4  H1  UNL     1      43.059  -0.305  29.602  1.00  0.00     0.190 HD
ENDROOT
BRANCH   1   5
HETATM    5  C6  UNL     1      40.832  -1.328  30.827  1.00  0.00     0.101 C 
HETATM    6  C7  UNL     1      39.889  -0.200  30.368  1.00  0.00     0.038 C 
HETATM    7 BR1  UNL     1      39.624  -2.735  31.456  1.00  0.00    -0.075 Br
BRANCH   5   8
HETATM    8  C5  UNL     1      41.667  -0.794  31.925  1.00  0.00     0.022 A 
HETATM    9  C2  UNL     1      42.561  -1.521  32.798  1.00  0.00    -0.042 A 
HETATM   10  C1  UNL     1      43.661  -0.697  33.497  1.00  0.00     0.015 C 
HETATM   11  C3  UNL     1      42.965  -2.955  32.682  1.00  0.00     0.015 C 
HETATM   12  C4  UNL     1      41.208  -1.169  33.344  1.00  0.00     0.016 A 
ENDBRANCH   5   8
ENDBRANCH   1   5
BRANCH   3  13
HETATM   13  N2  UNL     1      43.392  -1.556  27.987  1.00  0.00    -0.271 N 
HETATM   14  C9  UNL     1      44.737  -1.217  27.696  1.00  0.00     0.200 C 
HETATM   15  N3  UNL     1      45.416  -0.532  28.544  1.00  0.00    -0.372 N 
HETATM   16  N4  UNL     1      45.348  -1.615  26.497  1.00  0.00    -0.062 NA
ATOM     17  H32 UNL     1      44.972  -0.242  29.416  1.00  0.00     0.158 HD
ATOM     18  H31 UNL     1      46.384  -0.289  28.335  1.00  0.00     0.158 HD
ATOM     19  H2  UNL     1      42.894  -2.149  27.323  1.00  0.00     0.189 HD
ENDBRANCH   3  13
TORSDOF 3
ENDMDL
