MODEL 1
REMARK VINA RESULT: -5.991646025      0.000      0.000
REMARK  3 active torsions:
REMARK  status: ('A' for Active; 'I' for Inactive)
REMARK    1  A    between atoms: C5_5  and  N1_6 
REMARK    2  A    between atoms: N1_6  and  C6_8 
REMARK    3  A    between atoms: C6_8  and  C7_12 
REMARK       I    between atoms: N3_16  and  C10_17 
ROOT
HETATM    1  C6  UNL     1      42.384  -1.370  30.764  1.00  0.00     0.096 C 
HETATM    2  N2  UNL     1      43.183  -0.639  31.440  1.00  0.00    -0.387 N 
ATOM      3  H21 UNL     1      43.029  -0.528  32.443  1.00  0.00     0.157 HD
ATOM      4  H22 UNL     1      43.965  -0.174  30.981  1.00  0.00     0.157 HD
ENDROOT
BRANCH   1   5
HETATM    5  N1  UNL     1      42.597  -1.525  29.375  1.00  0.00    -0.374 N 
ATOM      6  H1  UNL     1      41.817  -1.407  28.727  1.00  0.00     0.161 HD
BRANCH   5   7
HETATM    7  C5  UNL     1      43.920  -1.850  28.863  1.00  0.00     0.082 C 
HETATM    8  C4  UNL     1      44.046  -3.309  28.580  1.00  0.00     0.025 C 
HETATM    9  C3  UNL     1      43.550  -3.738  27.239  1.00  0.00     0.006 C 
HETATM   10  C2  UNL     1      43.851  -2.767  26.133  1.00  0.00    -0.019 C 
HETATM   11  C1  UNL     1      44.419  -3.435  24.905  1.00  0.00     0.010 C 
HETATM   12  C12 UNL     1      44.875  -1.746  26.599  1.00  0.00     0.006 C 
HETATM   13  C11 UNL     1      44.198  -0.961  27.699  1.00  0.00     0.025 C 
ENDBRANCH   5   7
ENDBRANCH   1   5
BRANCH   1  14
HETATM   14  C7  UNL     1      41.255  -2.041  31.427  1.00  0.00     0.173 C 
HETATM   15  C8  UNL     1      39.903  -1.439  31.343  1.00  0.00     0.130 C 
HETATM   16 CL1  UNL     1      39.723   0.204  30.773  1.00  0.00    -0.121 Cl
HETATM   17  C9  UNL     1      39.652  -2.439  30.232  1.00  0.00     0.149 C 
HETATM   18  N3  UNL     1      40.774  -3.217  30.691  1.00  0.00    -0.341 N 
HETATM   19  C10 UNL     1      41.222  -4.538  30.510  1.00  0.00     0.184 C 
HETATM   20  N4  UNL     1      41.000  -5.195  29.392  1.00  0.00    -0.374 N 
HETATM   21  N5  UNL     1      41.934  -5.275  31.483  1.00  0.00    -0.064 NA
ATOM     22  H42 UNL     1      40.485  -4.663  28.690  1.00  0.00     0.158 HD
ATOM     23  H41 UNL     1      41.324  -6.154  29.261  1.00  0.00     0.158 HD
ENDBRANCH   1  14
TORSDOF 3
ENDMDL
MODEL 2
REMARK VINA RESULT: -5.873229624      2.512      5.806
REMARK  3 active torsions:
REMARK  status: ('A' for Active; 'I' for Inactive)
REMARK    1  A    between atoms: C5_5  and  N1_6 
REMARK    2  A    between atoms: N1_6  and  C6_8 
REMARK    3  A    between atoms: C6_8  and  C7_12 
REMARK       I    between atoms: N3_16  and  C10_17 
ROOT
HETATM    1  C6  UNL     1      42.726  -4.027  28.217  1.00  0.00     0.096 C 
HETATM    2  N2  UNL     1      42.367  -5.250  28.280  1.00  0.00    -0.387 N 
ATOM      3  H21 UNL     1      43.028  -5.979  28.010  1.00  0.00     0.157 HD
ATOM      4  H22 UNL     1      41.430  -5.493  28.600  1.00  0.00     0.157 HD
ENDROOT
BRANCH   1   5
HETATM    5  N1  UNL     1      41.811  -3.017  28.592  1.00  0.00    -0.374 N 
ATOM      6  H1  UNL     1      41.586  -2.268  27.936  1.00  0.00     0.161 HD
BRANCH   5   7
HETATM    7  C5  UNL     1      41.186  -3.038  29.907  1.00  0.00     0.082 C 
HETATM    8  C4  UNL     1      41.846  -2.075  30.835  1.00  0.00     0.025 C 
HETATM    9  C3  UNL     1      41.346  -0.671  30.749  1.00  0.00     0.006 C 
HETATM   10  C2  UNL     1      39.862  -0.560  30.540  1.00  0.00    -0.019 C 
HETATM   11  C1  UNL     1      39.213   0.442  31.463  1.00  0.00     0.010 C 
HETATM   12  C12 UNL     1      39.195  -1.901  30.797  1.00  0.00     0.006 C 
HETATM   13  C11 UNL     1      39.721  -2.830  29.727  1.00  0.00     0.025 C 
ENDBRANCH   5   7
ENDBRANCH   1   5
BRANCH   1  14
HETATM   14  C7  UNL     1      44.079  -3.676  27.757  1.00  0.00     0.173 C 
HETATM   15  C8  UNL     1      44.483  -4.015  26.370  1.00  0.00     0.130 C 
HETATM   16 CL1  UNL     1      43.503  -5.114  25.430  1.00  0.00    -0.121 Cl
HETATM   17  C9  UNL     1      44.160  -2.570  26.046  1.00  0.00     0.149 C 
HETATM   18  N3  UNL     1      44.228  -2.248  27.449  1.00  0.00    -0.341 N 
HETATM   19  C10 UNL     1      44.373  -1.070  28.203  1.00  0.00     0.184 C 
HETATM   20  N4  UNL     1      43.895   0.081  27.784  1.00  0.00    -0.374 N 
HETATM   21  N5  UNL     1      45.030  -1.004  29.453  1.00  0.00    -0.064 NA
ATOM     22  H42 UNL     1      43.421   0.033  26.881  1.00  0.00     0.158 HD
ATOM     23  H41 UNL     1      44.001   0.936  28.331  1.00  0.00     0.158 HD
ENDBRANCH   1  14
TORSDOF 3
ENDMDL
MODEL 3
REMARK VINA RESULT: -5.728901859      2.177      3.098
REMARK  3 active torsions:
REMARK  status: ('A' for Active; 'I' for Inactive)
REMARK    1  A    between atoms: C5_5  and  N1_6 
REMARK    2  A    between atoms: N1_6  and  C6_8 
REMARK    3  A    between atoms: C6_8  and  C7_12 
REMARK       I    between atoms: N3_16  and  C10_17 
ROOT
HETATM    1  C6  UNL     1      42.512  -1.154  30.757  1.00  0.00     0.096 C 
HETATM    2  N2  UNL     1      43.284  -0.654  31.642  1.00  0.00    -0.387 N 
ATOM      3  H21 UNL     1      43.037  -0.745  32.628  1.00  0.00     0.157 HD
ATOM      4  H22 UNL     1      44.137  -0.170  31.364  1.00  0.00     0.157 HD
ENDROOT
BRANCH   1   5
HETATM    5  N1  UNL     1      42.854  -1.028  29.390  1.00  0.00    -0.374 N 
ATOM      6  H1  UNL     1      42.218  -0.550  28.751  1.00  0.00     0.161 HD
BRANCH   5   7
HETATM    7  C5  UNL     1      44.107  -1.575  28.890  1.00  0.00     0.082 C 
HETATM    8  C4  UNL     1      44.010  -3.049  28.685  1.00  0.00     0.025 C 
HETATM    9  C3  UNL     1      43.437  -3.469  27.372  1.00  0.00     0.006 C 
HETATM   10  C2  UNL     1      43.865  -2.613  26.214  1.00  0.00    -0.019 C 
HETATM   11  C1  UNL     1      44.310  -3.423  25.020  1.00  0.00     0.010 C 
HETATM   12  C12 UNL     1      45.036  -1.734  26.618  1.00  0.00     0.006 C 
HETATM   13  C11 UNL     1      44.499  -0.800  27.678  1.00  0.00     0.025 C 
ENDBRANCH   5   7
ENDBRANCH   1   5
BRANCH   1  14
HETATM   14  C7  UNL     1      41.281  -1.852  31.158  1.00  0.00     0.173 C 
HETATM   15  C8  UNL     1      41.380  -3.175  31.822  1.00  0.00     0.130 C 
HETATM   16 CL1  UNL     1      42.900  -4.036  31.807  1.00  0.00    -0.121 Cl
HETATM   17  C9  UNL     1      41.191  -2.410  33.117  1.00  0.00     0.149 C 
HETATM   18  N3  UNL     1      40.673  -1.292  32.371  1.00  0.00    -0.341 N 
HETATM   19  C10 UNL     1      39.912  -0.149  32.674  1.00  0.00     0.184 C 
HETATM   20  N4  UNL     1      39.996   0.447  33.844  1.00  0.00    -0.374 N 
HETATM   21  N5  UNL     1      39.003   0.460  31.779  1.00  0.00    -0.064 NA
ATOM     22  H42 UNL     1      40.652   0.007  34.490  1.00  0.00     0.158 HD
ATOM     23  H41 UNL     1      39.443   1.276  34.064  1.00  0.00     0.158 HD
ENDBRANCH   1  14
TORSDOF 3
ENDMDL
MODEL 4
REMARK VINA RESULT: -5.692302988      3.030      5.939
REMARK  3 active torsions:
REMARK  status: ('A' for Active; 'I' for Inactive)
REMARK    1  A    between atoms: C5_5  and  N1_6 
REMARK    2  A    between atoms: N1_6  and  C6_8 
REMARK    3  A    between atoms: C6_8  and  C7_12 
REMARK       I    between atoms: N3_16  and  C10_17 
ROOT
HETATM    1  C6  UNL     1      42.936  -1.562  29.689  1.00  0.00     0.096 C 
HETATM    2  N2  UNL     1      41.878  -1.446  28.983  1.00  0.00    -0.387 N 
ATOM      3  H21 UNL     1      41.750  -2.053  28.172  1.00  0.00     0.157 HD
ATOM      4  H22 UNL     1      41.170  -0.756  29.230  1.00  0.00     0.157 HD
ENDROOT
BRANCH   1   5
HETATM    5  N1  UNL     1      43.113  -0.722  30.812  1.00  0.00    -0.374 N 
ATOM      6  H1  UNL     1      42.802   0.249  30.772  1.00  0.00     0.161 HD
BRANCH   5   7
HETATM    7  C5  UNL     1      43.737  -1.233  32.024  1.00  0.00     0.082 C 
HETATM    8  C4  UNL     1      44.697  -0.245  32.596  1.00  0.00     0.025 C 
HETATM    9  C3  UNL     1      44.087   0.788  33.485  1.00  0.00     0.006 C 
HETATM   10  C2  UNL     1      42.987   0.267  34.366  1.00  0.00    -0.019 C 
HETATM   11  C1  UNL     1      43.126   0.713  35.801  1.00  0.00     0.010 C 
HETATM   12  C12 UNL     1      42.994  -1.252  34.369  1.00  0.00     0.006 C 
HETATM   13  C11 UNL     1      42.655  -1.665  32.955  1.00  0.00     0.025 C 
ENDBRANCH   5   7
ENDBRANCH   1   5
BRANCH   1  14
HETATM   14  C7  UNL     1      43.957  -2.558  29.332  1.00  0.00     0.173 C 
HETATM   15  C8  UNL     1      43.706  -3.991  29.620  1.00  0.00     0.130 C 
HETATM   16 CL1  UNL     1      42.387  -4.440  30.675  1.00  0.00    -0.121 Cl
HETATM   17  C9  UNL     1      43.308  -4.096  28.162  1.00  0.00     0.149 C 
HETATM   18  N3  UNL     1      43.991  -2.857  27.895  1.00  0.00    -0.341 N 
HETATM   19  C10 UNL     1      44.480  -2.207  26.747  1.00  0.00     0.184 C 
HETATM   20  N4  UNL     1      43.894  -2.339  25.576  1.00  0.00    -0.374 N 
HETATM   21  N5  UNL     1      45.619  -1.370  26.734  1.00  0.00    -0.064 NA
ATOM     22  H42 UNL     1      43.072  -2.943  25.587  1.00  0.00     0.158 HD
ATOM     23  H41 UNL     1      44.249  -1.867  24.744  1.00  0.00     0.158 HD
ENDBRANCH   1  14
TORSDOF 3
ENDMDL
MODEL 5
REMARK VINA RESULT: -5.654675267      1.712      3.174
REMARK  3 active torsions:
REMARK  status: ('A' for Active; 'I' for Inactive)
REMARK    1  A    between atoms: C5_5  and  N1_6 
REMARK    2  A    between atoms: N1_6  and  C6_8 
REMARK    3  A    between atoms: C6_8  and  C7_12 
REMARK       I    between atoms: N3_16  and  C10_17 
ROOT
HETATM    1  C6  UNL     1      42.423  -1.760  30.877  1.00  0.00     0.096 C 
HETATM    2  N2  UNL     1      42.822  -2.646  31.705  1.00  0.00    -0.387 N 
ATOM      3  H21 UNL     1      42.699  -2.485  32.705  1.00  0.00     0.157 HD
ATOM      4  H22 UNL     1      43.256  -3.505  31.368  1.00  0.00     0.157 HD
ENDROOT
BRANCH   1   5
HETATM    5  N1  UNL     1      42.592  -1.983  29.491  1.00  0.00    -0.374 N 
ATOM      6  H1  UNL     1      41.781  -1.969  28.872  1.00  0.00     0.161 HD
BRANCH   5   7
HETATM    7  C5  UNL     1      43.917  -2.232  28.941  1.00  0.00     0.082 C 
HETATM    8  C4  UNL     1      44.054  -3.643  28.480  1.00  0.00     0.025 C 
HETATM    9  C3  UNL     1      43.558  -3.908  27.097  1.00  0.00     0.006 C 
HETATM   10  C2  UNL     1      43.849  -2.806  26.119  1.00  0.00    -0.019 C 
HETATM   11  C1  UNL     1      44.419  -3.313  24.817  1.00  0.00     0.010 C 
HETATM   12  C12 UNL     1      44.865  -1.841  26.705  1.00  0.00     0.006 C 
HETATM   13  C11 UNL     1      44.185  -1.203  27.895  1.00  0.00     0.025 C 
ENDBRANCH   5   7
ENDBRANCH   1   5
BRANCH   1  14
HETATM   14  C7  UNL     1      41.796  -0.521  31.364  1.00  0.00     0.173 C 
HETATM   15  C8  UNL     1      40.332  -0.492  31.596  1.00  0.00     0.130 C 
HETATM   16 CL1  UNL     1      39.332  -1.781  30.970  1.00  0.00    -0.121 Cl
HETATM   17  C9  UNL     1      40.674  -0.715  33.055  1.00  0.00     0.149 C 
HETATM   18  N3  UNL     1      42.025  -0.287  32.795  1.00  0.00    -0.341 N 
HETATM   19  C10 UNL     1      43.104   0.162  33.577  1.00  0.00     0.184 C 
HETATM   20  N4  UNL     1      43.291  -0.266  34.807  1.00  0.00    -0.374 N 
HETATM   21  N5  UNL     1      44.070   1.095  33.136  1.00  0.00    -0.064 NA
ATOM     22  H42 UNL     1      42.593  -0.939  35.125  1.00  0.00     0.158 HD
ATOM     23  H41 UNL     1      44.074   0.060  35.374  1.00  0.00     0.158 HD
ENDBRANCH   1  14
TORSDOF 3
ENDMDL
