MODEL 1
REMARK VINA RESULT: -7.507377033      0.000      0.000
REMARK  5 active torsions:
REMARK  status: ('A' for Active; 'I' for Inactive)
REMARK       I    between atoms: C2_4  and  N2_5 
REMARK       I    between atoms: C2_4  and  N8_27 
REMARK    1  A    between atoms: N2_5  and  C3_7 
REMARK    2  A    between atoms: C3_7  and  C4_8 
REMARK    3  A    between atoms: C4_8  and  C5_9 
REMARK    4  A    between atoms: C5_9  and  N3_10 
REMARK       I    between atoms: N3_10  and  C6_12 
REMARK       I    between atoms: N5_14  and  C7_16 
REMARK       I    between atoms: C7_16  and  N7_20 
REMARK    5  A    between atoms: N7_20  and  C8_22 
ROOT
HETATM    1  C5  UNL     1      43.016   0.096  33.243  1.00  0.00     0.124 C 
ENDROOT
BRANCH   1   2
HETATM    2  C4  UNL     1      43.631   0.222  34.607  1.00  0.00     0.040 C 
BRANCH   2   3
HETATM    3  C3  UNL     1      44.735   1.233  34.687  1.00  0.00     0.139 C 
BRANCH   3   4
HETATM    4  N2  UNL     1      45.938   0.604  35.125  1.00  0.00    -0.226 N 
HETATM    5  C2  UNL     1      46.209   0.315  36.478  1.00  0.00     0.672 C 
HETATM    6  N1  UNL     1      47.442   0.062  36.845  1.00  0.00    -0.231 N 
HETATM    7  N8  UNL     1      45.247   0.275  37.497  1.00  0.00    -0.209 N 
HETATM    8  C1  UNL     1      48.508   0.081  35.856  1.00  0.00     0.165 C 
ATOM      9  H1  UNL     1      47.652  -0.149  37.821  1.00  0.00     0.177 HD
HETATM   10  C13 UNL     1      44.407  -0.733  38.090  1.00  0.00     0.145 C 
HETATM   11  C15 UNL     1      44.671   1.221  38.412  1.00  0.00     0.051 C 
HETATM   12  C14 UNL     1      44.588   0.049  39.403  1.00  0.00     0.052 C 
HETATM   13  C16 UNL     1      43.319   1.777  38.071  1.00  0.00     0.032 C 
HETATM   14  C19 UNL     1      45.539   2.355  38.840  1.00  0.00     0.032 C 
HETATM   15  C17 UNL     1      43.491   3.253  37.894  1.00  0.00     0.002 C 
HETATM   16  C18 UNL     1      44.866   3.622  38.389  1.00  0.00     0.002 C 
ATOM     17  H2  UNL     1      46.636   0.352  34.425  1.00  0.00     0.177 HD
ENDBRANCH   3   4
ENDBRANCH   2   3
ENDBRANCH   1   2
BRANCH   1  18
HETATM   18  N3  UNL     1      43.725  -0.792  32.378  1.00  0.00    -0.364 N 
HETATM   19  C6  UNL     1      43.135  -1.257  31.175  1.00  0.00     0.202 C 
HETATM   20  N4  UNL     1      42.317  -0.377  30.416  1.00  0.00    -0.063 NA
HETATM   21  N5  UNL     1      43.326  -2.468  30.757  1.00  0.00    -0.164 N 
HETATM   22  C7  UNL     1      42.758  -2.959  29.574  1.00  0.00     0.674 C 
ATOM     23  H5  UNL     1      43.914  -3.090  31.312  1.00  0.00     0.187 HD
HETATM   24  N6  UNL     1      41.990  -3.981  29.602  1.00  0.00    -0.235 N 
HETATM   25  N7  UNL     1      43.010  -2.349  28.310  1.00  0.00    -0.222 N 
ATOM     26  H62 UNL     1      41.810  -4.417  30.506  1.00  0.00     0.174 HD
ATOM     27  H61 UNL     1      41.576  -4.339  28.741  1.00  0.00     0.174 HD
ATOM     28  H7  UNL     1      42.398  -1.591  28.008  1.00  0.00     0.178 HD
ATOM     29  H3  UNL     1      44.666  -1.096  32.628  1.00  0.00     0.162 HD
BRANCH  25  30
HETATM   30  C8  UNL     1      44.081  -2.746  27.443  1.00  0.00     0.099 C 
HETATM   31  C9  UNL     1      43.610  -3.708  26.370  1.00  0.00     0.026 C 
HETATM   32  C10 UNL     1      44.197  -3.208  25.073  1.00  0.00     0.002 C 
HETATM   33  C11 UNL     1      44.188  -1.706  25.269  1.00  0.00     0.002 C 
HETATM   34  C12 UNL     1      44.678  -1.554  26.699  1.00  0.00     0.026 C 
ENDBRANCH  25  30
ENDBRANCH   1  18
TORSDOF 5
ENDMDL
MODEL 2
REMARK VINA RESULT: -7.473894099      0.993      1.252
REMARK  5 active torsions:
REMARK  status: ('A' for Active; 'I' for Inactive)
REMARK       I    between atoms: C2_4  and  N2_5 
REMARK       I    between atoms: C2_4  and  N8_27 
REMARK    1  A    between atoms: N2_5  and  C3_7 
REMARK    2  A    between atoms: C3_7  and  C4_8 
REMARK    3  A    between atoms: C4_8  and  C5_9 
REMARK    4  A    between atoms: C5_9  and  N3_10 
REMARK       I    between atoms: N3_10  and  C6_12 
REMARK       I    between atoms: N5_14  and  C7_16 
REMARK       I    between atoms: C7_16  and  N7_20 
REMARK    5  A    between atoms: N7_20  and  C8_22 
ROOT
HETATM    1  C5  UNL     1      42.200  -0.177  33.740  1.00  0.00     0.124 C 
ENDROOT
BRANCH   1   2
HETATM    2  C4  UNL     1      43.166   0.508  34.662  1.00  0.00     0.040 C 
BRANCH   2   3
HETATM    3  C3  UNL     1      43.604  -0.334  35.822  1.00  0.00     0.139 C 
BRANCH   3   4
HETATM    4  N2  UNL     1      45.025  -0.308  35.933  1.00  0.00    -0.226 N 
HETATM    5  C2  UNL     1      45.714   0.538  36.825  1.00  0.00     0.672 C 
HETATM    6  N1  UNL     1      46.993   0.760  36.641  1.00  0.00    -0.231 N 
HETATM    7  N8  UNL     1      45.135   1.183  37.926  1.00  0.00    -0.209 N 
HETATM    8  C1  UNL     1      47.680   0.132  35.523  1.00  0.00     0.165 C 
ATOM      9  H1  UNL     1      47.504   1.371  37.278  1.00  0.00     0.177 HD
HETATM   10  C13 UNL     1      44.948   0.885  39.323  1.00  0.00     0.145 C 
HETATM   11  C15 UNL     1      44.469   2.436  38.157  1.00  0.00     0.051 C 
HETATM   12  C14 UNL     1      45.115   2.398  39.552  1.00  0.00     0.052 C 
HETATM   13  C16 UNL     1      42.971   2.421  38.222  1.00  0.00     0.032 C 
HETATM   14  C19 UNL     1      44.880   3.582  37.298  1.00  0.00     0.032 C 
HETATM   15  C17 UNL     1      42.481   3.276  37.094  1.00  0.00     0.002 C 
HETATM   16  C18 UNL     1      43.665   4.016  36.528  1.00  0.00     0.002 C 
ATOM     17  H2  UNL     1      45.570  -0.932  35.337  1.00  0.00     0.177 HD
ENDBRANCH   3   4
ENDBRANCH   2   3
ENDBRANCH   1   2
BRANCH   1  18
HETATM   18  N3  UNL     1      42.810  -1.160  32.902  1.00  0.00    -0.364 N 
HETATM   19  C6  UNL     1      42.462  -1.261  31.531  1.00  0.00     0.202 C 
HETATM   20  N4  UNL     1      42.198  -0.077  30.791  1.00  0.00    -0.063 NA
HETATM   21  N5  UNL     1      42.379  -2.411  30.942  1.00  0.00    -0.164 N 
HETATM   22  C7  UNL     1      42.037  -2.548  29.590  1.00  0.00     0.674 C 
ATOM     23  H5  UNL     1      42.569  -3.254  31.485  1.00  0.00     0.187 HD
HETATM   24  N6  UNL     1      41.015  -3.236  29.249  1.00  0.00    -0.235 N 
HETATM   25  N7  UNL     1      42.803  -1.933  28.557  1.00  0.00    -0.222 N 
ATOM     26  H62 UNL     1      40.467  -3.675  29.988  1.00  0.00     0.174 HD
ATOM     27  H61 UNL     1      40.766  -3.335  28.264  1.00  0.00     0.174 HD
ATOM     28  H7  UNL     1      42.563  -0.983  28.275  1.00  0.00     0.178 HD
ATOM     29  H3  UNL     1      43.504  -1.795  33.294  1.00  0.00     0.162 HD
BRANCH  25  30
HETATM   30  C8  UNL     1      43.895  -2.584  27.893  1.00  0.00     0.099 C 
HETATM   31  C9  UNL     1      43.426  -3.758  27.054  1.00  0.00     0.026 C 
HETATM   32  C10 UNL     1      44.119  -3.623  25.721  1.00  0.00     0.002 C 
HETATM   33  C11 UNL     1      44.197  -2.120  25.545  1.00  0.00     0.002 C 
HETATM   34  C12 UNL     1      44.611  -1.643  26.927  1.00  0.00     0.026 C 
ENDBRANCH  25  30
ENDBRANCH   1  18
TORSDOF 5
ENDMDL
MODEL 3
REMARK VINA RESULT: -7.261440981      1.414      2.539
REMARK  5 active torsions:
REMARK  status: ('A' for Active; 'I' for Inactive)
REMARK       I    between atoms: C2_4  and  N2_5 
REMARK       I    between atoms: C2_4  and  N8_27 
REMARK    1  A    between atoms: N2_5  and  C3_7 
REMARK    2  A    between atoms: C3_7  and  C4_8 
REMARK    3  A    between atoms: C4_8  and  C5_9 
REMARK    4  A    between atoms: C5_9  and  N3_10 
REMARK       I    between atoms: N3_10  and  C6_12 
REMARK       I    between atoms: N5_14  and  C7_16 
REMARK       I    between atoms: C7_16  and  N7_20 
REMARK    5  A    between atoms: N7_20  and  C8_22 
ROOT
HETATM    1  C5  UNL     1      42.657  -0.200  34.146  1.00  0.00     0.124 C 
ENDROOT
BRANCH   1   2
HETATM    2  C4  UNL     1      42.465  -0.814  35.502  1.00  0.00     0.040 C 
BRANCH   2   3
HETATM    3  C3  UNL     1      43.394  -0.280  36.551  1.00  0.00     0.139 C 
BRANCH   3   4
HETATM    4  N2  UNL     1      43.826   1.032  36.195  1.00  0.00    -0.226 N 
HETATM    5  C2  UNL     1      45.110   1.530  36.497  1.00  0.00     0.672 C 
HETATM    6  N1  UNL     1      45.323   2.822  36.454  1.00  0.00    -0.231 N 
HETATM    7  N8  UNL     1      46.212   0.739  36.850  1.00  0.00    -0.209 N 
HETATM    8  C1  UNL     1      44.237   3.721  36.096  1.00  0.00     0.165 C 
ATOM      9  H1  UNL     1      46.247   3.196  36.670  1.00  0.00     0.177 HD
HETATM   10  C13 UNL     1      47.298   0.102  36.151  1.00  0.00     0.145 C 
HETATM   11  C15 UNL     1      46.758   0.214  38.071  1.00  0.00     0.051 C 
HETATM   12  C14 UNL     1      48.134   0.398  37.409  1.00  0.00     0.052 C 
HETATM   13  C16 UNL     1      46.469  -1.221  38.396  1.00  0.00     0.032 C 
HETATM   14  C19 UNL     1      46.535   1.019  39.306  1.00  0.00     0.032 C 
HETATM   15  C17 UNL     1      45.689  -1.226  39.674  1.00  0.00     0.002 C 
HETATM   16  C18 UNL     1      45.743   0.163  40.255  1.00  0.00     0.002 C 
ATOM     17  H2  UNL     1      43.174   1.639  35.698  1.00  0.00     0.177 HD
ENDBRANCH   3   4
ENDBRANCH   2   3
ENDBRANCH   1   2
BRANCH   1  18
HETATM   18  N3  UNL     1      43.334  -1.055  33.223  1.00  0.00    -0.364 N 
HETATM   19  C6  UNL     1      42.825  -1.257  31.916  1.00  0.00     0.202 C 
HETATM   20  N4  UNL     1      42.220  -0.171  31.229  1.00  0.00    -0.063 NA
HETATM   21  N5  UNL     1      42.900  -2.414  31.337  1.00  0.00    -0.164 N 
HETATM   22  C7  UNL     1      42.407  -2.649  30.047  1.00  0.00     0.674 C 
ATOM     23  H5  UNL     1      43.336  -3.186  31.842  1.00  0.00     0.187 HD
HETATM   24  N6  UNL     1      41.512  -3.541  29.850  1.00  0.00    -0.235 N 
HETATM   25  N7  UNL     1      42.876  -1.914  28.919  1.00  0.00    -0.222 N 
ATOM     26  H62 UNL     1      41.177  -4.066  30.657  1.00  0.00     0.174 HD
ATOM     27  H61 UNL     1      41.153  -3.712  28.911  1.00  0.00     0.174 HD
ATOM     28  H7  UNL     1      42.406  -1.040  28.681  1.00  0.00     0.178 HD
ATOM     29  H3  UNL     1      44.193  -1.524  33.508  1.00  0.00     0.162 HD
BRANCH  25  30
HETATM   30  C8  UNL     1      43.974  -2.341  28.102  1.00  0.00     0.099 C 
HETATM   31  C9  UNL     1      43.540  -3.347  27.054  1.00  0.00     0.026 C 
HETATM   32  C10 UNL     1      44.165  -2.897  25.757  1.00  0.00     0.002 C 
HETATM   33  C11 UNL     1      44.145  -1.388  25.892  1.00  0.00     0.002 C 
HETATM   34  C12 UNL     1      44.590  -1.177  27.329  1.00  0.00     0.026 C 
ENDBRANCH  25  30
ENDBRANCH   1  18
TORSDOF 5
ENDMDL
MODEL 4
REMARK VINA RESULT: -7.248291277      1.856      3.128
REMARK  5 active torsions:
REMARK  status: ('A' for Active; 'I' for Inactive)
REMARK       I    between atoms: C2_4  and  N2_5 
REMARK       I    between atoms: C2_4  and  N8_27 
REMARK    1  A    between atoms: N2_5  and  C3_7 
REMARK    2  A    between atoms: C3_7  and  C4_8 
REMARK    3  A    between atoms: C4_8  and  C5_9 
REMARK    4  A    between atoms: C5_9  and  N3_10 
REMARK       I    between atoms: N3_10  and  C6_12 
REMARK       I    between atoms: N5_14  and  C7_16 
REMARK       I    between atoms: C7_16  and  N7_20 
REMARK    5  A    between atoms: N7_20  and  C8_22 
ROOT
HETATM    1  C5  UNL     1      42.428  -1.095  33.903  1.00  0.00     0.124 C 
ENDROOT
BRANCH   1   2
HETATM    2  C4  UNL     1      43.487  -0.410  34.717  1.00  0.00     0.040 C 
BRANCH   2   3
HETATM    3  C3  UNL     1      43.573   1.068  34.486  1.00  0.00     0.139 C 
BRANCH   3   4
HETATM    4  N2  UNL     1      42.362   1.696  34.901  1.00  0.00    -0.226 N 
HETATM    5  C2  UNL     1      42.261   2.485  36.065  1.00  0.00     0.672 C 
HETATM    6  N1  UNL     1      41.077   2.742  36.565  1.00  0.00    -0.231 N 
HETATM    7  N8  UNL     1      43.349   3.037  36.755  1.00  0.00    -0.209 N 
HETATM    8  C1  UNL     1      39.889   2.212  35.915  1.00  0.00     0.165 C 
ATOM      9  H1  UNL     1      40.990   3.311  37.407  1.00  0.00     0.177 HD
HETATM   10  C13 UNL     1      44.078   4.278  36.721  1.00  0.00     0.145 C 
HETATM   11  C15 UNL     1      44.224   2.611  37.814  1.00  0.00     0.051 C 
HETATM   12  C14 UNL     1      44.252   4.089  38.239  1.00  0.00     0.052 C 
HETATM   13  C16 UNL     1      45.582   2.104  37.426  1.00  0.00     0.032 C 
HETATM   14  C19 UNL     1      43.652   1.671  38.820  1.00  0.00     0.032 C 
HETATM   15  C17 UNL     1      45.651   0.675  37.869  1.00  0.00     0.002 C 
HETATM   16  C18 UNL     1      44.461   0.406  38.753  1.00  0.00     0.002 C 
ATOM     17  H2  UNL     1      41.528   1.568  34.328  1.00  0.00     0.177 HD
ENDBRANCH   3   4
ENDBRANCH   2   3
ENDBRANCH   1   2
BRANCH   1  18
HETATM   18  N3  UNL     1      42.954  -1.957  32.892  1.00  0.00    -0.364 N 
HETATM   19  C6  UNL     1      42.649  -1.741  31.525  1.00  0.00     0.202 C 
HETATM   20  N4  UNL     1      42.549  -0.411  31.035  1.00  0.00    -0.063 NA
HETATM   21  N5  UNL     1      42.458  -2.733  30.714  1.00  0.00    -0.164 N 
HETATM   22  C7  UNL     1      42.154  -2.555  29.357  1.00  0.00     0.674 C 
ATOM     23  H5  UNL     1      42.531  -3.683  31.078  1.00  0.00     0.187 HD
HETATM   24  N6  UNL     1      41.075  -3.035  28.869  1.00  0.00    -0.235 N 
HETATM   25  N7  UNL     1      43.024  -1.843  28.481  1.00  0.00    -0.222 N 
ATOM     26  H62 UNL     1      40.453  -3.545  29.496  1.00  0.00     0.174 HD
ATOM     27  H61 UNL     1      40.854  -2.906  27.882  1.00  0.00     0.174 HD
ATOM     28  H7  UNL     1      42.904  -0.834  28.394  1.00  0.00     0.178 HD
ATOM     29  H3  UNL     1      43.556  -2.736  33.157  1.00  0.00     0.162 HD
BRANCH  25  30
HETATM   30  C8  UNL     1      44.059  -2.473  27.715  1.00  0.00     0.099 C 
HETATM   31  C9  UNL     1      43.546  -3.686  26.963  1.00  0.00     0.026 C 
HETATM   32  C10 UNL     1      44.081  -3.565  25.558  1.00  0.00     0.002 C 
HETATM   33  C11 UNL     1      44.080  -2.066  25.337  1.00  0.00     0.002 C 
HETATM   34  C12 UNL     1      44.627  -1.536  26.652  1.00  0.00     0.026 C 
ENDBRANCH  25  30
ENDBRANCH   1  18
TORSDOF 5
ENDMDL
MODEL 5
REMARK VINA RESULT: -7.215777962      5.602      7.998
REMARK  5 active torsions:
REMARK  status: ('A' for Active; 'I' for Inactive)
REMARK       I    between atoms: C2_4  and  N2_5 
REMARK       I    between atoms: C2_4  and  N8_27 
REMARK    1  A    between atoms: N2_5  and  C3_7 
REMARK    2  A    between atoms: C3_7  and  C4_8 
REMARK    3  A    between atoms: C4_8  and  C5_9 
REMARK    4  A    between atoms: C5_9  and  N3_10 
REMARK       I    between atoms: N3_10  and  C6_12 
REMARK       I    between atoms: N5_14  and  C7_16 
REMARK       I    between atoms: C7_16  and  N7_20 
REMARK    5  A    between atoms: N7_20  and  C8_22 
ROOT
HETATM    1  C5  UNL     1      40.157  -1.544  32.014  1.00  0.00     0.124 C 
ENDROOT
BRANCH   1   2
HETATM    2  C4  UNL     1      39.971  -0.070  32.228  1.00  0.00     0.040 C 
BRANCH   2   3
HETATM    3  C3  UNL     1      38.804   0.512  31.488  1.00  0.00     0.139 C 
BRANCH   3   4
HETATM    4  N2  UNL     1      37.865   1.058  32.413  1.00  0.00    -0.226 N 
HETATM    5  C2  UNL     1      36.679   0.396  32.790  1.00  0.00     0.672 C 
HETATM    6  N1  UNL     1      35.716   1.079  33.359  1.00  0.00    -0.231 N 
HETATM    7  N8  UNL     1      36.431  -0.971  32.604  1.00  0.00    -0.209 N 
HETATM    8  C1  UNL     1      35.885   2.505  33.593  1.00  0.00     0.165 C 
ATOM      9  H1  UNL     1      34.853   0.613  33.636  1.00  0.00     0.177 HD
HETATM   10  C13 UNL     1      36.617  -2.173  33.374  1.00  0.00     0.145 C 
HETATM   11  C15 UNL     1      35.874  -1.787  31.560  1.00  0.00     0.051 C 
HETATM   12  C14 UNL     1      35.332  -2.675  32.692  1.00  0.00     0.052 C 
HETATM   13  C16 UNL     1      36.833  -2.520  30.669  1.00  0.00     0.032 C 
HETATM   14  C19 UNL     1      34.837  -1.155  30.696  1.00  0.00     0.032 C 
HETATM   15  C17 UNL     1      36.622  -1.996  29.283  1.00  0.00     0.002 C 
HETATM   16  C18 UNL     1      35.369  -1.160  29.290  1.00  0.00     0.002 C 
ATOM     17  H2  UNL     1      38.062   1.971  32.822  1.00  0.00     0.177 HD
ENDBRANCH   3   4
ENDBRANCH   2   3
ENDBRANCH   1   2
BRANCH   1  18
HETATM   18  N3  UNL     1      41.412  -1.879  31.418  1.00  0.00    -0.364 N 
HETATM   19  C6  UNL     1      41.473  -2.742  30.295  1.00  0.00     0.202 C 
HETATM   20  N4  UNL     1      40.461  -2.664  29.302  1.00  0.00    -0.063 NA
HETATM   21  N5  UNL     1      42.434  -3.600  30.159  1.00  0.00    -0.164 N 
HETATM   22  C7  UNL     1      42.525  -4.468  29.063  1.00  0.00     0.674 C 
ATOM     23  H5  UNL     1      43.154  -3.647  30.880  1.00  0.00     0.187 HD
HETATM   24  N6  UNL     1      42.542  -5.734  29.241  1.00  0.00    -0.235 N 
HETATM   25  N7  UNL     1      42.601  -3.982  27.725  1.00  0.00    -0.222 N 
ATOM     26  H62 UNL     1      42.487  -6.082  30.198  1.00  0.00     0.174 HD
ATOM     27  H61 UNL     1      42.607  -6.366  28.443  1.00  0.00     0.174 HD
ATOM     28  H7  UNL     1      41.731  -3.818  27.219  1.00  0.00     0.178 HD
ATOM     29  H3  UNL     1      42.273  -1.493  31.805  1.00  0.00     0.162 HD
BRANCH  25  30
HETATM   30  C8  UNL     1      43.839  -3.712  27.055  1.00  0.00     0.099 C 
HETATM   31  C9  UNL     1      43.705  -3.836  25.549  1.00  0.00     0.026 C 
HETATM   32  C10 UNL     1      44.379  -2.618  24.967  1.00  0.00     0.002 C 
HETATM   33  C11 UNL     1      44.080  -1.554  26.003  1.00  0.00     0.002 C 
HETATM   34  C12 UNL     1      44.322  -2.286  27.312  1.00  0.00     0.026 C 
ENDBRANCH  25  30
ENDBRANCH   1  18
TORSDOF 5
ENDMDL
