MODEL 1
REMARK VINA RESULT: -6.486531159      0.000      0.000
REMARK  5 active torsions:
REMARK  status: ('A' for Active; 'I' for Inactive)
REMARK    1  A    between atoms: C2_2  and  C3_3 
REMARK    2  A    between atoms: C2_2  and  N1_6 
REMARK    3  A    between atoms: C10_13  and  N2_14 
REMARK       I    between atoms: N2_14  and  C11_16 
REMARK    4  A    between atoms: C13_22  and  C14_23 
REMARK    5  A    between atoms: C13_22  and  C15_26 
ROOT
HETATM    1  N1  UNL     1      41.823  -3.153  31.557  1.00  0.00    -0.009 N 
HETATM    2  C4  UNL     1      41.270  -4.384  32.136  1.00  0.00     0.246 C 
HETATM    3  C5  UNL     1      41.267  -5.635  31.354  1.00  0.00     0.029 C 
HETATM    4  C6  UNL     1      42.709  -6.176  31.201  1.00  0.00     0.004 C 
HETATM    5  C7  UNL     1      43.540  -4.898  31.185  1.00  0.00     0.034 C 
HETATM    6  C8  UNL     1      42.748  -3.750  30.618  1.00  0.00     0.200 C 
HETATM    7  C9  UNL     1      43.415  -3.008  29.559  1.00  0.00     0.059 C 
HETATM    8  C10 UNL     1      42.382  -2.265  28.772  1.00  0.00     0.089 C 
HETATM    9  C12 UNL     1      41.431  -1.606  29.658  1.00  0.00     0.075 C 
HETATM   10  C13 UNL     1      40.871  -2.329  30.859  1.00  0.00     0.218 C 
ENDROOT
BRANCH  10  11
HETATM   11  C14 UNL     1      39.685  -3.097  30.321  1.00  0.00     0.269 C 
HETATM   12  N5  UNL     1      39.502  -3.352  28.930  1.00  0.00    -0.060 NA
HETATM   13  O3  UNL     1      38.766  -3.575  31.019  1.00  0.00    -0.274 OA
ENDBRANCH  10  11
BRANCH  10  14
HETATM   14  C15 UNL     1      40.299  -1.168  31.651  1.00  0.00     0.032 C 
HETATM   15  C16 UNL     1      39.213  -1.265  32.560  1.00  0.00     0.007 C 
HETATM   16  C17 UNL     1      38.073  -0.307  32.113  1.00  0.00     0.000 C 
HETATM   17  C18 UNL     1      38.969   0.794  31.575  1.00  0.00     0.000 C 
HETATM   18  C19 UNL     1      39.797  -0.115  30.640  1.00  0.00     0.007 C 
ENDBRANCH  10  14
BRANCH   1  19
HETATM   19  C2  UNL     1      42.415  -2.507  32.696  1.00  0.00     0.205 C 
HETATM   20  C1  UNL     1      42.301  -3.044  33.945  1.00  0.00     0.058 C 
BRANCH  19  21
HETATM   21  C3  UNL     1      43.183  -1.292  32.772  1.00  0.00     0.234 C 
HETATM   22  O1  UNL     1      43.279  -0.593  33.854  1.00  0.00    -0.643 OA
HETATM   23  O2  UNL     1      43.890  -0.713  31.775  1.00  0.00    -0.643 OA
ENDBRANCH  19  21
ENDBRANCH   1  19
BRANCH   8  24
HETATM   24  N2  UNL     1      42.981  -1.229  27.937  1.00  0.00    -0.360 N 
HETATM   25  C11 UNL     1      44.393  -1.144  27.787  1.00  0.00     0.182 C 
HETATM   26  N3  UNL     1      45.071  -0.602  28.766  1.00  0.00    -0.374 N 
HETATM   27  N4  UNL     1      45.081  -1.607  26.653  1.00  0.00    -0.064 NA
ATOM     28  H32 UNL     1      44.571  -0.266  29.590  1.00  0.00     0.158 HD
ATOM     29  H31 UNL     1      46.083  -0.542  28.659  1.00  0.00     0.158 HD
ATOM     30  H2  UNL     1      42.382  -0.559  27.457  1.00  0.00     0.162 HD
ENDBRANCH   8  24
TORSDOF 5
ENDMDL
MODEL 2
REMARK VINA RESULT: -6.177593635      2.443      5.258
REMARK  5 active torsions:
REMARK  status: ('A' for Active; 'I' for Inactive)
REMARK    1  A    between atoms: C2_2  and  C3_3 
REMARK    2  A    between atoms: C2_2  and  N1_6 
REMARK    3  A    between atoms: C10_13  and  N2_14 
REMARK       I    between atoms: N2_14  and  C11_16 
REMARK    4  A    between atoms: C13_22  and  C14_23 
REMARK    5  A    between atoms: C13_22  and  C15_26 
ROOT
HETATM    1  N1  UNL     1      42.021  -3.811  31.296  1.00  0.00    -0.009 N 
HETATM    2  C4  UNL     1      42.695  -3.428  32.544  1.00  0.00     0.246 C 
HETATM    3  C5  UNL     1      41.947  -2.731  33.607  1.00  0.00     0.029 C 
HETATM    4  C6  UNL     1      40.935  -3.694  34.273  1.00  0.00     0.004 C 
HETATM    5  C7  UNL     1      40.558  -4.622  33.123  1.00  0.00     0.034 C 
HETATM    6  C8  UNL     1      40.668  -3.910  31.801  1.00  0.00     0.200 C 
HETATM    7  C9  UNL     1      39.494  -4.016  30.948  1.00  0.00     0.059 C 
HETATM    8  C10 UNL     1      39.528  -2.903  29.948  1.00  0.00     0.089 C 
HETATM    9  C12 UNL     1      40.858  -2.766  29.371  1.00  0.00     0.075 C 
HETATM   10  C13 UNL     1      42.086  -2.830  30.245  1.00  0.00     0.218 C 
ENDROOT
BRANCH  10  11
HETATM   11  C14 UNL     1      42.268  -1.415  30.747  1.00  0.00     0.269 C 
HETATM   12  N5  UNL     1      41.202  -0.470  30.782  1.00  0.00    -0.060 NA
HETATM   13  O3  UNL     1      43.342  -0.939  31.172  1.00  0.00    -0.274 OA
ENDBRANCH  10  11
BRANCH  10  14
HETATM   14  C15 UNL     1      43.169  -3.051  29.204  1.00  0.00     0.032 C 
HETATM   15  C16 UNL     1      44.024  -2.038  28.697  1.00  0.00     0.007 C 
HETATM   16  C17 UNL     1      43.862  -1.944  27.154  1.00  0.00     0.000 C 
HETATM   17  C18 UNL     1      43.638  -3.425  26.910  1.00  0.00     0.000 C 
HETATM   18  C19 UNL     1      42.486  -3.583  27.926  1.00  0.00     0.007 C 
ENDBRANCH  10  14
BRANCH   1  19
HETATM   19  C2  UNL     1      42.658  -5.055  30.962  1.00  0.00     0.205 C 
HETATM   20  C1  UNL     1      43.994  -5.236  31.168  1.00  0.00     0.058 C 
BRANCH  19  21
HETATM   21  C3  UNL     1      42.099  -6.258  30.405  1.00  0.00     0.234 C 
HETATM   22  O1  UNL     1      42.295  -7.424  30.924  1.00  0.00    -0.643 OA
HETATM   23  O2  UNL     1      41.318  -6.359  29.305  1.00  0.00    -0.643 OA
ENDBRANCH  19  21
ENDBRANCH   1  19
BRANCH   8  24
HETATM   24  N2  UNL     1      38.602  -3.140  28.846  1.00  0.00    -0.360 N 
HETATM   25  C11 UNL     1      37.196  -3.094  29.056  1.00  0.00     0.182 C 
HETATM   26  N3  UNL     1      36.636  -4.136  29.614  1.00  0.00    -0.374 N 
HETATM   27  N4  UNL     1      36.395  -1.998  28.696  1.00  0.00    -0.064 NA
ATOM     28  H32 UNL     1      37.218  -4.932  29.876  1.00  0.00     0.158 HD
ATOM     29  H31 UNL     1      35.628  -4.103  29.765  1.00  0.00     0.158 HD
ATOM     30  H2  UNL     1      38.967  -3.341  27.915  1.00  0.00     0.162 HD
ENDBRANCH   8  24
TORSDOF 5
ENDMDL
MODEL 3
REMARK VINA RESULT: -6.101349994      2.052      3.434
REMARK  5 active torsions:
REMARK  status: ('A' for Active; 'I' for Inactive)
REMARK    1  A    between atoms: C2_2  and  C3_3 
REMARK    2  A    between atoms: C2_2  and  N1_6 
REMARK    3  A    between atoms: C10_13  and  N2_14 
REMARK       I    between atoms: N2_14  and  C11_16 
REMARK    4  A    between atoms: C13_22  and  C14_23 
REMARK    5  A    between atoms: C13_22  and  C15_26 
ROOT
HETATM    1  N1  UNL     1      40.415  -1.787  32.484  1.00  0.00    -0.009 N 
HETATM    2  C4  UNL     1      40.438  -2.424  33.807  1.00  0.00     0.246 C 
HETATM    3  C5  UNL     1      41.718  -2.869  34.393  1.00  0.00     0.029 C 
HETATM    4  C6  UNL     1      42.577  -1.648  34.799  1.00  0.00     0.004 C 
HETATM    5  C7  UNL     1      42.172  -0.603  33.765  1.00  0.00     0.034 C 
HETATM    6  C8  UNL     1      41.761  -1.257  32.473  1.00  0.00     0.200 C 
HETATM    7  C9  UNL     1      42.411  -0.727  31.283  1.00  0.00     0.059 C 
HETATM    8  C10 UNL     1      42.312  -1.745  30.192  1.00  0.00     0.089 C 
HETATM    9  C12 UNL     1      40.968  -2.301  30.121  1.00  0.00     0.075 C 
HETATM   10  C13 UNL     1      40.230  -2.691  31.379  1.00  0.00     0.218 C 
ENDROOT
BRANCH  10  11
HETATM   11  C14 UNL     1      40.689  -4.102  31.666  1.00  0.00     0.269 C 
HETATM   12  N5  UNL     1      41.924  -4.622  31.178  1.00  0.00    -0.060 NA
HETATM   13  O3  UNL     1      40.053  -4.938  32.342  1.00  0.00    -0.274 OA
ENDBRANCH  10  11
BRANCH  10  14
HETATM   14  C15 UNL     1      38.810  -2.807  30.854  1.00  0.00     0.032 C 
HETATM   15  C16 UNL     1      37.934  -3.892  31.121  1.00  0.00     0.007 C 
HETATM   16  C17 UNL     1      37.490  -4.543  29.781  1.00  0.00     0.000 C 
HETATM   17  C18 UNL     1      37.446  -3.263  28.968  1.00  0.00     0.000 C 
HETATM   18  C19 UNL     1      38.881  -2.805  29.312  1.00  0.00     0.007 C 
ENDBRANCH  10  14
BRANCH   1  19
HETATM   19  C2  UNL     1      39.361  -0.820  32.618  1.00  0.00     0.205 C 
HETATM   20  C1  UNL     1      38.407  -0.952  33.584  1.00  0.00     0.058 C 
BRANCH  19  21
HETATM   21  C3  UNL     1      39.103   0.375  31.859  1.00  0.00     0.234 C 
HETATM   22  O1  UNL     1      38.246   1.266  32.230  1.00  0.00    -0.643 OA
HETATM   23  O2  UNL     1      39.684   0.740  30.693  1.00  0.00    -0.643 OA
ENDBRANCH  19  21
ENDBRANCH   1  19
BRANCH   8  24
HETATM   24  N2  UNL     1      42.608  -1.166  28.886  1.00  0.00    -0.360 N 
HETATM   25  C11 UNL     1      43.866  -1.390  28.260  1.00  0.00     0.182 C 
HETATM   26  N3  UNL     1      44.884  -0.688  28.688  1.00  0.00    -0.374 N 
HETATM   27  N4  UNL     1      44.061  -2.315  27.221  1.00  0.00    -0.064 NA
ATOM     28  H32 UNL     1      44.742  -0.016  29.442  1.00  0.00     0.158 HD
ATOM     29  H31 UNL     1      45.786  -0.848  28.240  1.00  0.00     0.158 HD
ATOM     30  H2  UNL     1      41.906  -0.595  28.416  1.00  0.00     0.162 HD
ENDBRANCH   8  24
TORSDOF 5
ENDMDL
MODEL 4
REMARK VINA RESULT: -5.989292699      6.186      8.508
REMARK  5 active torsions:
REMARK  status: ('A' for Active; 'I' for Inactive)
REMARK    1  A    between atoms: C2_2  and  C3_3 
REMARK    2  A    between atoms: C2_2  and  N1_6 
REMARK    3  A    between atoms: C10_13  and  N2_14 
REMARK       I    between atoms: N2_14  and  C11_16 
REMARK    4  A    between atoms: C13_22  and  C14_23 
REMARK    5  A    between atoms: C13_22  and  C15_26 
ROOT
HETATM    1  N1  UNL     1      43.661   1.441  37.926  1.00  0.00    -0.009 N 
HETATM    2  C4  UNL     1      42.840   1.311  39.137  1.00  0.00     0.246 C 
HETATM    3  C5  UNL     1      43.478   1.036  40.439  1.00  0.00     0.029 C 
HETATM    4  C6  UNL     1      44.266   2.277  40.924  1.00  0.00     0.004 C 
HETATM    5  C7  UNL     1      44.722   2.910  39.613  1.00  0.00     0.034 C 
HETATM    6  C8  UNL     1      44.899   1.864  38.545  1.00  0.00     0.200 C 
HETATM    7  C9  UNL     1      46.176   1.906  37.849  1.00  0.00     0.059 C 
HETATM    8  C10 UNL     1      46.416   0.575  37.211  1.00  0.00     0.089 C 
HETATM    9  C12 UNL     1      45.216   0.100  36.535  1.00  0.00     0.075 C 
HETATM   10  C13 UNL     1      43.865   0.217  37.197  1.00  0.00     0.218 C 
ENDROOT
BRANCH  10  11
HETATM   11  C14 UNL     1      43.753  -1.024  38.053  1.00  0.00     0.269 C 
HETATM   12  N5  UNL     1      44.894  -1.733  38.530  1.00  0.00    -0.060 NA
HETATM   13  O3  UNL     1      42.678  -1.545  38.421  1.00  0.00    -0.274 OA
ENDBRANCH  10  11
BRANCH  10  14
HETATM   14  C15 UNL     1      42.944  -0.004  36.009  1.00  0.00     0.032 C 
HETATM   15  C16 UNL     1      42.003  -1.061  35.900  1.00  0.00     0.007 C 
HETATM   16  C17 UNL     1      42.311  -1.903  34.630  1.00  0.00     0.000 C 
HETATM   17  C18 UNL     1      42.782  -0.749  33.764  1.00  0.00     0.000 C 
HETATM   18  C19 UNL     1      43.831  -0.215  34.764  1.00  0.00     0.007 C 
ENDBRANCH  10  14
BRANCH   1  19
HETATM   19  C2  UNL     1      42.959   2.446  37.176  1.00  0.00     0.205 C 
HETATM   20  C1  UNL     1      41.615   2.624  37.327  1.00  0.00     0.058 C 
BRANCH  19  21
HETATM   21  C3  UNL     1      43.455   3.392  36.211  1.00  0.00     0.234 C 
HETATM   22  O1  UNL     1      43.907   4.555  36.542  1.00  0.00    -0.643 OA
HETATM   23  O2  UNL     1      43.524   3.226  34.870  1.00  0.00    -0.643 OA
ENDBRANCH  19  21
ENDBRANCH   1  19
BRANCH   8  24
HETATM   24  N2  UNL     1      47.476   0.640  36.210  1.00  0.00    -0.360 N 
HETATM   25  C11 UNL     1      48.621  -0.197  36.309  1.00  0.00     0.182 C 
HETATM   26  N3  UNL     1      49.549   0.151  37.164  1.00  0.00    -0.374 N 
HETATM   27  N4  UNL     1      48.800  -1.361  35.544  1.00  0.00    -0.064 NA
ATOM     28  H32 UNL     1      49.419   0.997  37.721  1.00  0.00     0.158 HD
ATOM     29  H31 UNL     1      50.370  -0.449  37.237  1.00  0.00     0.158 HD
ATOM     30  H2  UNL     1      47.395   1.293  35.431  1.00  0.00     0.162 HD
ENDBRANCH   8  24
TORSDOF 5
ENDMDL
MODEL 5
REMARK VINA RESULT: -5.870271237      2.448      5.269
REMARK  5 active torsions:
REMARK  status: ('A' for Active; 'I' for Inactive)
REMARK    1  A    between atoms: C2_2  and  C3_3 
REMARK    2  A    between atoms: C2_2  and  N1_6 
REMARK    3  A    between atoms: C10_13  and  N2_14 
REMARK       I    between atoms: N2_14  and  C11_16 
REMARK    4  A    between atoms: C13_22  and  C14_23 
REMARK    5  A    between atoms: C13_22  and  C15_26 
ROOT
HETATM    1  N1  UNL     1      40.708  -2.801  32.042  1.00  0.00    -0.009 N 
HETATM    2  C4  UNL     1      41.103  -1.982  33.195  1.00  0.00     0.246 C 
HETATM    3  C5  UNL     1      40.157  -1.005  33.768  1.00  0.00     0.029 C 
HETATM    4  C6  UNL     1      39.001  -1.736  34.493  1.00  0.00     0.004 C 
HETATM    5  C7  UNL     1      38.863  -3.019  33.679  1.00  0.00     0.034 C 
HETATM    6  C8  UNL     1      39.276  -2.795  32.249  1.00  0.00     0.200 C 
HETATM    7  C9  UNL     1      38.315  -3.247  31.255  1.00  0.00     0.059 C 
HETATM    8  C10 UNL     1      38.593  -2.541  29.966  1.00  0.00     0.089 C 
HETATM    9  C12 UNL     1      40.019  -2.538  29.674  1.00  0.00     0.075 C 
HETATM   10  C13 UNL     1      41.025  -2.234  30.757  1.00  0.00     0.218 C 
ENDROOT
BRANCH  10  11
HETATM   11  C14 UNL     1      41.127  -0.726  30.769  1.00  0.00     0.269 C 
HETATM   12  N5  UNL     1      40.028   0.120  30.438  1.00  0.00    -0.060 NA
HETATM   13  O3  UNL     1      42.155  -0.080  31.061  1.00  0.00    -0.274 OA
ENDBRANCH  10  11
BRANCH  10  14
HETATM   14  C15 UNL     1      42.303  -2.739  30.112  1.00  0.00     0.032 C 
HETATM   15  C16 UNL     1      43.487  -1.972  29.952  1.00  0.00     0.007 C 
HETATM   16  C17 UNL     1      43.859  -1.897  28.445  1.00  0.00     0.000 C 
HETATM   17  C18 UNL     1      43.388  -3.292  28.077  1.00  0.00     0.000 C 
HETATM   18  C19 UNL     1      41.966  -3.141  28.660  1.00  0.00     0.007 C 
ENDBRANCH  10  14
BRANCH   1  19
HETATM   19  C2  UNL     1      41.374  -4.049  32.299  1.00  0.00     0.205 C 
HETATM   20  C1  UNL     1      42.509  -4.095  33.054  1.00  0.00     0.058 C 
BRANCH  19  21
HETATM   21  C3  UNL     1      41.032  -5.381  31.878  1.00  0.00     0.234 C 
HETATM   22  O1  UNL     1      41.113  -6.404  32.661  1.00  0.00    -0.643 OA
HETATM   23  O2  UNL     1      40.594  -5.760  30.655  1.00  0.00    -0.643 OA
ENDBRANCH  19  21
ENDBRANCH   1  19
BRANCH   8  24
HETATM   24  N2  UNL     1      37.924  -3.188  28.841  1.00  0.00    -0.360 N 
HETATM   25  C11 UNL     1      37.166  -4.376  29.033  1.00  0.00     0.182 C 
HETATM   26  N3  UNL     1      37.826  -5.499  29.154  1.00  0.00    -0.374 N 
HETATM   27  N4  UNL     1      35.763  -4.397  29.097  1.00  0.00    -0.064 NA
ATOM     28  H32 UNL     1      38.846  -5.484  29.107  1.00  0.00     0.158 HD
ATOM     29  H31 UNL     1      37.283  -6.351  29.292  1.00  0.00     0.158 HD
ATOM     30  H2  UNL     1      38.002  -2.785  27.908  1.00  0.00     0.162 HD
ENDBRANCH   8  24
TORSDOF 5
ENDMDL
