MODEL 1
REMARK VINA RESULT: -6.675740070      0.000      0.000
REMARK  6 active torsions:
REMARK  status: ('A' for Active; 'I' for Inactive)
REMARK       I    between atoms: N1_2  and  C2_4 
REMARK    1  A    between atoms: C2_4  and  C3_6 
REMARK    2  A    between atoms: C6_9  and  C7_10 
REMARK    3  A    between atoms: C7_10  and  N2_11 
REMARK    4  A    between atoms: N2_11  and  C8_13 
REMARK    5  A    between atoms: C8_13  and  N3_15 
REMARK       I    between atoms: N3_15  and  C9_17 
REMARK       I    between atoms: C9_17  and  N4_19 
REMARK    6  A    between atoms: N4_19  and  C10_21 
ROOT
HETATM    1  N2  UNL     1      44.070   0.752  33.330  1.00  0.00    -0.367 N 
ATOM      2  H2  UNL     1      44.323   1.171  32.435  1.00  0.00     0.161 HD
ENDROOT
BRANCH   1   3
HETATM    3  C7  UNL     1      42.960  -0.137  33.268  1.00  0.00     0.126 C 
BRANCH   3   4
HETATM    4  C6  UNL     1      42.734  -0.488  31.776  1.00  0.00     0.003 C 
HETATM    5  C5  UNL     1      43.625  -1.614  31.351  1.00  0.00     0.007 C 
HETATM    6  C4  UNL     1      42.828  -2.823  30.881  1.00  0.00     0.014 C 
HETATM    7  C3  UNL     1      41.864  -2.473  29.795  1.00  0.00     0.078 C 
HETATM    8  C15 UNL     1      41.164  -1.181  30.063  1.00  0.00     0.014 C 
HETATM    9  C14 UNL     1      41.289  -0.870  31.541  1.00  0.00     0.007 C 
BRANCH   7  10
HETATM   10  C2  UNL     1      42.601  -2.465  28.509  1.00  0.00     0.221 C 
HETATM   11  N1  UNL     1      43.317  -1.305  28.155  1.00  0.00    -0.365 N 
HETATM   12  C1  UNL     1      44.041  -1.275  26.909  1.00  0.00     0.149 C 
ATOM     13  H1  UNL     1      43.324  -0.495  28.774  1.00  0.00     0.161 HD
HETATM   14  O1  UNL     1      42.588  -3.467  27.754  1.00  0.00    -0.273 OA
ENDBRANCH   7  10
ENDBRANCH   3   4
ENDBRANCH   1   3
BRANCH   1  15
HETATM   15  C8  UNL     1      44.860   1.146  34.385  1.00  0.00     0.175 C 
HETATM   16  S1  UNL     1      44.029   2.133  35.539  1.00  0.00    -0.041 SA
BRANCH  15  17
HETATM   17  N3  UNL     1      46.170   0.926  34.721  1.00  0.00    -0.286 N 
HETATM   18  C9  UNL     1      46.826   0.180  35.691  1.00  0.00     0.323 C 
HETATM   19  O2  UNL     1      46.308  -0.517  36.544  1.00  0.00    -0.247 OA
HETATM   20  N4  UNL     1      48.295   0.226  35.698  1.00  0.00    -0.335 N 
ATOM     21  H4  UNL     1      48.784   0.793  35.005  1.00  0.00     0.165 HD
ATOM     22  H3  UNL     1      46.817   1.429  34.114  1.00  0.00     0.173 HD
BRANCH  20  23
HETATM   23  C10 UNL     1      49.056  -0.520  36.671  1.00  0.00     0.023 C 
HETATM   24  C11 UNL     1      48.547  -1.947  36.715  1.00  0.00     0.037 C 
HETATM   25  C12 UNL     1      48.917   0.155  38.016  1.00  0.00     0.037 C 
HETATM   26  C13 UNL     1      50.506  -0.531  36.222  1.00  0.00     0.037 C 
ENDBRANCH  20  23
ENDBRANCH  15  17
ENDBRANCH   1  15
TORSDOF 6
ENDMDL
MODEL 2
REMARK VINA RESULT: -6.388049715      6.185      6.933
REMARK  6 active torsions:
REMARK  status: ('A' for Active; 'I' for Inactive)
REMARK       I    between atoms: N1_2  and  C2_4 
REMARK    1  A    between atoms: C2_4  and  C3_6 
REMARK    2  A    between atoms: C6_9  and  C7_10 
REMARK    3  A    between atoms: C7_10  and  N2_11 
REMARK    4  A    between atoms: N2_11  and  C8_13 
REMARK    5  A    between atoms: C8_13  and  N3_15 
REMARK       I    between atoms: N3_15  and  C9_17 
REMARK       I    between atoms: C9_17  and  N4_19 
REMARK    6  A    between atoms: N4_19  and  C10_21 
ROOT
HETATM    1  N2  UNL     1      42.373  -4.834  30.524  1.00  0.00    -0.367 N 
ATOM      2  H2  UNL     1      42.672  -5.510  29.821  1.00  0.00     0.161 HD
ENDROOT
BRANCH   1   3
HETATM    3  C7  UNL     1      41.470  -3.845  30.040  1.00  0.00     0.126 C 
BRANCH   3   4
HETATM    4  C6  UNL     1      42.052  -3.304  28.710  1.00  0.00     0.003 C 
HETATM    5  C5  UNL     1      42.598  -1.921  28.890  1.00  0.00     0.007 C 
HETATM    6  C4  UNL     1      44.089  -1.854  28.590  1.00  0.00     0.014 C 
HETATM    7  C3  UNL     1      44.411  -2.376  27.227  1.00  0.00     0.078 C 
HETATM    8  C15 UNL     1      43.644  -3.618  26.908  1.00  0.00     0.014 C 
HETATM    9  C14 UNL     1      43.149  -4.218  28.208  1.00  0.00     0.007 C 
BRANCH   7  10
HETATM   10  C2  UNL     1      44.170  -1.290  26.248  1.00  0.00     0.221 C 
HETATM   11  N1  UNL     1      44.159  -1.614  24.878  1.00  0.00    -0.365 N 
HETATM   12  C1  UNL     1      43.927  -0.574  23.908  1.00  0.00     0.149 C 
ATOM     13  H1  UNL     1      44.315  -2.575  24.575  1.00  0.00     0.161 HD
HETATM   14  O1  UNL     1      43.979  -0.110  26.630  1.00  0.00    -0.273 OA
ENDBRANCH   7  10
ENDBRANCH   3   4
ENDBRANCH   1   3
BRANCH   1  15
HETATM   15  C8  UNL     1      42.911  -5.038  31.774  1.00  0.00     0.175 C 
HETATM   16  S1  UNL     1      42.317  -3.937  32.969  1.00  0.00    -0.041 SA
BRANCH  15  17
HETATM   17  N3  UNL     1      43.821  -5.930  32.278  1.00  0.00    -0.286 N 
HETATM   18  C9  UNL     1      44.302  -7.173  31.889  1.00  0.00     0.323 C 
HETATM   19  O2  UNL     1      43.976  -7.800  30.898  1.00  0.00    -0.247 OA
HETATM   20  N4  UNL     1      45.310  -7.806  32.752  1.00  0.00    -0.335 N 
ATOM     21  H4  UNL     1      45.623  -7.326  33.596  1.00  0.00     0.165 HD
ATOM     22  H3  UNL     1      44.245  -5.603  33.147  1.00  0.00     0.173 HD
BRANCH  20  23
HETATM   23  C10 UNL     1      45.864  -9.096  32.422  1.00  0.00     0.023 C 
HETATM   24  C11 UNL     1      46.916  -9.464  33.450  1.00  0.00     0.037 C 
HETATM   25  C12 UNL     1      46.456  -9.030  31.032  1.00  0.00     0.037 C 
HETATM   26  C13 UNL     1      44.743 -10.117  32.481  1.00  0.00     0.037 C 
ENDBRANCH  20  23
ENDBRANCH  15  17
ENDBRANCH   1  15
TORSDOF 6
ENDMDL
MODEL 3
REMARK VINA RESULT: -6.368915406      2.927      4.282
REMARK  6 active torsions:
REMARK  status: ('A' for Active; 'I' for Inactive)
REMARK       I    between atoms: N1_2  and  C2_4 
REMARK    1  A    between atoms: C2_4  and  C3_6 
REMARK    2  A    between atoms: C6_9  and  C7_10 
REMARK    3  A    between atoms: C7_10  and  N2_11 
REMARK    4  A    between atoms: N2_11  and  C8_13 
REMARK    5  A    between atoms: C8_13  and  N3_15 
REMARK       I    between atoms: N3_15  and  C9_17 
REMARK       I    between atoms: C9_17  and  N4_19 
REMARK    6  A    between atoms: N4_19  and  C10_21 
ROOT
HETATM    1  N2  UNL     1      41.280  -3.013  31.954  1.00  0.00    -0.367 N 
ATOM      2  H2  UNL     1      41.885  -3.751  32.315  1.00  0.00     0.161 HD
ENDROOT
BRANCH   1   3
HETATM    3  C7  UNL     1      40.505  -3.391  30.821  1.00  0.00     0.126 C 
BRANCH   3   4
HETATM    4  C6  UNL     1      41.462  -3.435  29.604  1.00  0.00     0.003 C 
HETATM    5  C5  UNL     1      41.674  -2.064  29.042  1.00  0.00     0.007 C 
HETATM    6  C4  UNL     1      43.136  -1.642  29.104  1.00  0.00     0.014 C 
HETATM    7  C3  UNL     1      44.034  -2.632  28.436  1.00  0.00     0.078 C 
HETATM    8  C15 UNL     1      43.653  -4.040  28.758  1.00  0.00     0.014 C 
HETATM    9  C14 UNL     1      42.796  -4.027  30.007  1.00  0.00     0.007 C 
BRANCH   7  10
HETATM   10  C2  UNL     1      44.022  -2.357  26.980  1.00  0.00     0.221 C 
HETATM   11  N1  UNL     1      44.094  -3.448  26.092  1.00  0.00    -0.365 N 
HETATM   12  C1  UNL     1      44.084  -3.204  24.672  1.00  0.00     0.149 C 
ATOM     13  H1  UNL     1      44.153  -4.400  26.450  1.00  0.00     0.161 HD
HETATM   14  O1  UNL     1      43.950  -1.182  26.548  1.00  0.00    -0.273 OA
ENDBRANCH   7  10
ENDBRANCH   3   4
ENDBRANCH   1   3
BRANCH   1  15
HETATM   15  C8  UNL     1      41.356  -1.827  32.647  1.00  0.00     0.175 C 
HETATM   16  S1  UNL     1      40.037  -0.754  32.326  1.00  0.00    -0.041 SA
BRANCH  15  17
HETATM   17  N3  UNL     1      42.256  -1.309  33.541  1.00  0.00    -0.286 N 
HETATM   18  C9  UNL     1      43.181  -0.273  33.521  1.00  0.00     0.323 C 
HETATM   19  O2  UNL     1      43.408   0.479  32.591  1.00  0.00    -0.247 OA
HETATM   20  N4  UNL     1      43.972  -0.051  34.739  1.00  0.00    -0.335 N 
ATOM     21  H4  UNL     1      43.824  -0.651  35.551  1.00  0.00     0.165 HD
ATOM     22  H3  UNL     1      42.244  -1.802  34.434  1.00  0.00     0.173 HD
BRANCH  20  23
HETATM   23  C10 UNL     1      44.955   1.003  34.805  1.00  0.00     0.023 C 
HETATM   24  C11 UNL     1      44.256   2.318  35.091  1.00  0.00     0.037 C 
HETATM   25  C12 UNL     1      45.701   1.053  33.491  1.00  0.00     0.037 C 
HETATM   26  C13 UNL     1      45.901   0.691  35.950  1.00  0.00     0.037 C 
ENDBRANCH  20  23
ENDBRANCH  15  17
ENDBRANCH   1  15
TORSDOF 6
ENDMDL
MODEL 4
REMARK VINA RESULT: -6.368130701      2.854      4.161
REMARK  6 active torsions:
REMARK  status: ('A' for Active; 'I' for Inactive)
REMARK       I    between atoms: N1_2  and  C2_4 
REMARK    1  A    between atoms: C2_4  and  C3_6 
REMARK    2  A    between atoms: C6_9  and  C7_10 
REMARK    3  A    between atoms: C7_10  and  N2_11 
REMARK    4  A    between atoms: N2_11  and  C8_13 
REMARK    5  A    between atoms: C8_13  and  N3_15 
REMARK       I    between atoms: N3_15  and  C9_17 
REMARK       I    between atoms: C9_17  and  N4_19 
REMARK    6  A    between atoms: N4_19  and  C10_21 
ROOT
HETATM    1  N2  UNL     1      41.138  -2.429  31.683  1.00  0.00    -0.367 N 
ATOM      2  H2  UNL     1      41.764  -3.219  31.842  1.00  0.00     0.161 HD
ENDROOT
BRANCH   1   3
HETATM    3  C7  UNL     1      40.307  -2.562  30.535  1.00  0.00     0.126 C 
BRANCH   3   4
HETATM    4  C6  UNL     1      41.220  -2.971  29.351  1.00  0.00     0.003 C 
HETATM    5  C5  UNL     1      42.150  -1.856  28.986  1.00  0.00     0.007 C 
HETATM    6  C4  UNL     1      43.610  -2.257  29.148  1.00  0.00     0.014 C 
HETATM    7  C3  UNL     1      43.941  -3.495  28.380  1.00  0.00     0.078 C 
HETATM    8  C15 UNL     1      42.870  -4.530  28.498  1.00  0.00     0.014 C 
HETATM    9  C14 UNL     1      42.024  -4.202  29.711  1.00  0.00     0.007 C 
BRANCH   7  10
HETATM   10  C2  UNL     1      44.209  -3.109  26.975  1.00  0.00     0.221 C 
HETATM   11  N1  UNL     1      43.787  -3.978  25.950  1.00  0.00    -0.365 N 
HETATM   12  C1  UNL     1      44.037  -3.623  24.576  1.00  0.00     0.149 C 
ATOM     13  H1  UNL     1      43.311  -4.850  26.178  1.00  0.00     0.161 HD
HETATM   14  O1  UNL     1      44.796  -2.034  26.704  1.00  0.00    -0.273 OA
ENDBRANCH   7  10
ENDBRANCH   3   4
ENDBRANCH   1   3
BRANCH   1  15
HETATM   15  C8  UNL     1      41.245  -1.423  32.615  1.00  0.00     0.175 C 
HETATM   16  S1  UNL     1      39.879  -0.360  32.643  1.00  0.00    -0.041 SA
BRANCH  15  17
HETATM   17  N3  UNL     1      42.204  -1.078  33.530  1.00  0.00    -0.286 N 
HETATM   18  C9  UNL     1      43.235  -0.149  33.575  1.00  0.00     0.323 C 
HETATM   19  O2  UNL     1      43.532   0.648  32.704  1.00  0.00    -0.247 OA
HETATM   20  N4  UNL     1      44.057  -0.112  34.793  1.00  0.00    -0.335 N 
ATOM     21  H4  UNL     1      43.854  -0.757  35.556  1.00  0.00     0.165 HD
ATOM     22  H3  UNL     1      42.148  -1.638  34.382  1.00  0.00     0.173 HD
BRANCH  20  23
HETATM   23  C10 UNL     1      45.149   0.823  34.923  1.00  0.00     0.023 C 
HETATM   24  C11 UNL     1      45.789   1.033  33.565  1.00  0.00     0.037 C 
HETATM   25  C12 UNL     1      46.143   0.272  35.920  1.00  0.00     0.037 C 
HETATM   26  C13 UNL     1      44.578   2.144  35.406  1.00  0.00     0.037 C 
ENDBRANCH  20  23
ENDBRANCH  15  17
ENDBRANCH   1  15
TORSDOF 6
ENDMDL
MODEL 5
REMARK VINA RESULT: -6.153570798      2.784      3.872
REMARK  6 active torsions:
REMARK  status: ('A' for Active; 'I' for Inactive)
REMARK       I    between atoms: N1_2  and  C2_4 
REMARK    1  A    between atoms: C2_4  and  C3_6 
REMARK    2  A    between atoms: C6_9  and  C7_10 
REMARK    3  A    between atoms: C7_10  and  N2_11 
REMARK    4  A    between atoms: N2_11  and  C8_13 
REMARK    5  A    between atoms: C8_13  and  N3_15 
REMARK       I    between atoms: N3_15  and  C9_17 
REMARK       I    between atoms: C9_17  and  N4_19 
REMARK    6  A    between atoms: N4_19  and  C10_21 
ROOT
HETATM    1  N2  UNL     1      40.389  -0.987  32.322  1.00  0.00    -0.367 N 
ATOM      2  H2  UNL     1      40.473   0.026  32.227  1.00  0.00     0.161 HD
ENDROOT
BRANCH   1   3
HETATM    3  C7  UNL     1      39.713  -1.622  31.241  1.00  0.00     0.126 C 
BRANCH   3   4
HETATM    4  C6  UNL     1      40.740  -1.792  30.094  1.00  0.00     0.003 C 
HETATM    5  C5  UNL     1      41.896  -0.858  30.269  1.00  0.00     0.007 C 
HETATM    6  C4  UNL     1      43.214  -1.606  30.423  1.00  0.00     0.014 C 
HETATM    7  C3  UNL     1      43.461  -2.546  29.287  1.00  0.00     0.078 C 
HETATM    8  C15 UNL     1      42.225  -3.290  28.898  1.00  0.00     0.014 C 
HETATM    9  C14 UNL     1      41.245  -3.219  30.051  1.00  0.00     0.007 C 
BRANCH   7  10
HETATM   10  C2  UNL     1      44.037  -1.771  28.163  1.00  0.00     0.221 C 
HETATM   11  N1  UNL     1      43.768  -2.197  26.848  1.00  0.00    -0.365 N 
HETATM   12  C1  UNL     1      44.318  -1.459  25.740  1.00  0.00     0.149 C 
ATOM     13  H1  UNL     1      43.189  -3.020  26.683  1.00  0.00     0.161 HD
HETATM   14  O1  UNL     1      44.748  -0.759  28.377  1.00  0.00    -0.273 OA
ENDBRANCH   7  10
ENDBRANCH   3   4
ENDBRANCH   1   3
BRANCH   1  15
HETATM   15  C8  UNL     1      40.947  -1.499  33.470  1.00  0.00     0.175 C 
HETATM   16  S1  UNL     1      40.078  -2.848  34.118  1.00  0.00    -0.041 SA
BRANCH  15  17
HETATM   17  N3  UNL     1      42.049  -1.169  34.215  1.00  0.00    -0.286 N 
HETATM   18  C9  UNL     1      43.058  -0.219  34.116  1.00  0.00     0.323 C 
HETATM   19  O2  UNL     1      43.182   0.618  33.241  1.00  0.00    -0.247 OA
HETATM   20  N4  UNL     1      44.083  -0.212  35.169  1.00  0.00    -0.335 N 
ATOM     21  H4  UNL     1      44.028  -0.891  35.928  1.00  0.00     0.165 HD
ATOM     22  H3  UNL     1      42.154  -1.763  35.037  1.00  0.00     0.173 HD
BRANCH  20  23
HETATM   23  C10 UNL     1      45.165   0.741  35.144  1.00  0.00     0.023 C 
HETATM   24  C11 UNL     1      44.670   2.072  35.676  1.00  0.00     0.037 C 
HETATM   25  C12 UNL     1      45.666   0.870  33.724  1.00  0.00     0.037 C 
HETATM   26  C13 UNL     1      46.263   0.227  36.057  1.00  0.00     0.037 C 
ENDBRANCH  20  23
ENDBRANCH  15  17
ENDBRANCH   1  15
TORSDOF 6
ENDMDL
