MODEL 1
REMARK VINA RESULT: -7.076250705      0.000      0.000
REMARK  3 active torsions:
REMARK  status: ('A' for Active; 'I' for Inactive)
REMARK    1  A    between atoms: C2_2  and  N1_4 
REMARK    2  A    between atoms: C6_7  and  N2_8 
REMARK       I    between atoms: N2_8  and  C7_10 
REMARK       I    between atoms: C7_10  and  N3_12 
REMARK    3  A    between atoms: N3_12  and  C8_14 
ROOT
HETATM    1  N2  UNL     1      43.477  -2.015  30.688  1.00  0.00    -0.338 N 
ATOM      2  H2  UNL     1      43.972  -2.805  31.102  1.00  0.00     0.164 HD
HETATM    3  C7  UNL     1      43.067  -0.960  31.515  1.00  0.00     0.316 C 
HETATM    4  O1  UNL     1      42.458   0.013  31.012  1.00  0.00    -0.247 OA
HETATM    5  N3  UNL     1      43.311  -0.942  32.910  1.00  0.00    -0.336 N 
ATOM      6  H3  UNL     1      43.806  -1.736  33.317  1.00  0.00     0.164 HD
ENDROOT
BRANCH   5   7
HETATM    7  C8  UNL     1      42.905   0.127  33.797  1.00  0.00     0.122 C 
HETATM    8  C9  UNL     1      41.818  -0.344  34.727  1.00  0.00     0.032 C 
HETATM    9  C10 UNL     1      42.081   0.256  36.099  1.00  0.00    -0.010 C 
HETATM   10  C11 UNL     1      42.071   1.737  36.104  1.00  0.00     0.037 C 
HETATM   11  C15 UNL     1      43.382  -0.366  36.561  1.00  0.00     0.012 C 
HETATM   12  C12 UNL     1      43.359   2.431  35.869  1.00  0.00     0.187 C 
HETATM   13  C13 UNL     1      44.554   1.734  36.535  1.00  0.00     0.040 C 
HETATM   14  N4  UNL     1      43.767   2.249  34.467  1.00  0.00    -0.060 N 
HETATM   15  C14 UNL     1      44.467   0.392  35.783  1.00  0.00     0.026 C 
HETATM   16  C16 UNL     1      44.041   0.825  34.433  1.00  0.00     0.146 C 
HETATM   17  C17 UNL     1      45.257   0.646  33.511  1.00  0.00     0.049 C 
ATOM     18  H42 UNL     1      43.100   2.582  33.771  1.00  0.00     0.278 HD
ATOM     19  H41 UNL     1      44.532   2.848  34.153  1.00  0.00     0.278 HD
ENDBRANCH   5   7
BRANCH   1  20
HETATM   20  C6  UNL     1      43.221  -2.016  29.275  1.00  0.00     0.089 C 
HETATM   21  C5  UNL     1      43.170  -3.397  28.694  1.00  0.00     0.055 C 
HETATM   22  C4  UNL     1      44.127  -3.518  27.501  1.00  0.00     0.275 C 
HETATM   23  N1  UNL     1      43.773  -2.487  26.570  1.00  0.00     0.092 N 
HETATM   24  C19 UNL     1      44.177  -1.218  27.105  1.00  0.00     0.275 C 
HETATM   25  C18 UNL     1      44.339  -1.242  28.599  1.00  0.00     0.055 C 
BRANCH  23  26
HETATM   26  C2  UNL     1      44.388  -2.668  25.270  1.00  0.00     0.215 C 
HETATM   27  C1  UNL     1      43.816  -3.825  24.513  1.00  0.00     0.042 C 
HETATM   28  C3  UNL     1      44.096  -1.388  24.478  1.00  0.00     0.042 C 
ENDBRANCH  23  26
ENDBRANCH   1  20
TORSDOF 3
ENDMDL
MODEL 2
REMARK VINA RESULT: -6.519635204      3.631      4.478
REMARK  3 active torsions:
REMARK  status: ('A' for Active; 'I' for Inactive)
REMARK    1  A    between atoms: C2_2  and  N1_4 
REMARK    2  A    between atoms: C6_7  and  N2_8 
REMARK       I    between atoms: N2_8  and  C7_10 
REMARK       I    between atoms: C7_10  and  N3_12 
REMARK    3  A    between atoms: N3_12  and  C8_14 
ROOT
HETATM    1  N2  UNL     1      40.597  -1.511  31.129  1.00  0.00    -0.338 N 
ATOM      2  H2  UNL     1      40.700  -2.299  31.769  1.00  0.00     0.164 HD
HETATM    3  C7  UNL     1      39.862  -0.392  31.541  1.00  0.00     0.316 C 
HETATM    4  O1  UNL     1      39.732   0.579  30.759  1.00  0.00    -0.247 OA
HETATM    5  N3  UNL     1      39.249  -0.305  32.815  1.00  0.00    -0.336 N 
ATOM      6  H3  UNL     1      39.356  -1.097  33.449  1.00  0.00     0.164 HD
ENDROOT
BRANCH   5   7
HETATM    7  C8  UNL     1      38.483   0.833  33.277  1.00  0.00     0.122 C 
HETATM    8  C9  UNL     1      37.073   0.766  32.752  1.00  0.00     0.032 C 
HETATM    9  C10 UNL     1      36.137   1.225  33.859  1.00  0.00    -0.010 C 
HETATM   10  C11 UNL     1      36.391   2.616  34.303  1.00  0.00     0.037 C 
HETATM   11  C15 UNL     1      36.270   0.183  34.950  1.00  0.00     0.012 C 
HETATM   12  C12 UNL     1      37.345   2.815  35.419  1.00  0.00     0.187 C 
HETATM   13  C13 UNL     1      37.239   1.738  36.508  1.00  0.00     0.040 C 
HETATM   14  N4  UNL     1      38.710   2.512  34.958  1.00  0.00    -0.060 N 
HETATM   15  C14 UNL     1      37.601   0.518  35.640  1.00  0.00     0.026 C 
HETATM   16  C16 UNL     1      38.620   1.083  34.727  1.00  0.00     0.146 C 
HETATM   17  C17 UNL     1      39.972   0.495  35.163  1.00  0.00     0.049 C 
ATOM     18  H42 UNL     1      39.036   3.063  34.164  1.00  0.00     0.278 HD
ATOM     19  H41 UNL     1      39.458   2.806  35.586  1.00  0.00     0.278 HD
ENDBRANCH   5   7
BRANCH   1  20
HETATM   20  C6  UNL     1      41.211  -1.582  29.832  1.00  0.00     0.089 C 
HETATM   21  C5  UNL     1      41.110  -2.944  29.214  1.00  0.00     0.055 C 
HETATM   22  C4  UNL     1      42.494  -3.448  28.786  1.00  0.00     0.275 C 
HETATM   23  N1  UNL     1      43.052  -2.457  27.913  1.00  0.00     0.092 N 
HETATM   24  C19 UNL     1      43.419  -1.307  28.687  1.00  0.00     0.275 C 
HETATM   25  C18 UNL     1      42.679  -1.225  29.993  1.00  0.00     0.055 C 
BRANCH  23  26
HETATM   26  C2  UNL     1      44.218  -2.934  27.195  1.00  0.00     0.215 C 
HETATM   27  C1  UNL     1      43.879  -3.933  26.134  1.00  0.00     0.042 C 
HETATM   28  C3  UNL     1      44.832  -1.704  26.515  1.00  0.00     0.042 C 
ENDBRANCH  23  26
ENDBRANCH   1  20
TORSDOF 3
ENDMDL
MODEL 3
REMARK VINA RESULT: -6.432687915      0.845      1.117
REMARK  3 active torsions:
REMARK  status: ('A' for Active; 'I' for Inactive)
REMARK    1  A    between atoms: C2_2  and  N1_4 
REMARK    2  A    between atoms: C6_7  and  N2_8 
REMARK       I    between atoms: N2_8  and  C7_10 
REMARK       I    between atoms: C7_10  and  N3_12 
REMARK    3  A    between atoms: N3_12  and  C8_14 
ROOT
HETATM    1  N2  UNL     1      43.348  -1.992  31.349  1.00  0.00    -0.338 N 
ATOM      2  H2  UNL     1      43.843  -2.779  31.769  1.00  0.00     0.164 HD
HETATM    3  C7  UNL     1      43.051  -0.874  32.140  1.00  0.00     0.316 C 
HETATM    4  O1  UNL     1      42.443   0.095  31.628  1.00  0.00    -0.247 OA
HETATM    5  N3  UNL     1      43.410  -0.786  33.506  1.00  0.00    -0.336 N 
ATOM      6  H3  UNL     1      43.905  -1.577  33.921  1.00  0.00     0.164 HD
ENDROOT
BRANCH   5   7
HETATM    7  C8  UNL     1      43.123   0.351  34.355  1.00  0.00     0.122 C 
HETATM    8  C9  UNL     1      42.335  -0.081  35.564  1.00  0.00     0.032 C 
HETATM    9  C10 UNL     1      42.855   0.695  36.765  1.00  0.00    -0.010 C 
HETATM   10  C11 UNL     1      42.704   2.162  36.625  1.00  0.00     0.037 C 
HETATM   11  C15 UNL     1      44.282   0.225  36.955  1.00  0.00     0.012 C 
HETATM   12  C12 UNL     1      43.828   2.911  36.016  1.00  0.00     0.187 C 
HETATM   13  C13 UNL     1      45.208   2.383  36.435  1.00  0.00     0.040 C 
HETATM   14  N4  UNL     1      43.911   2.592  34.581  1.00  0.00    -0.060 N 
HETATM   15  C14 UNL     1      45.075   0.959  35.864  1.00  0.00     0.026 C 
HETATM   16  C16 UNL     1      44.304   1.197  34.623  1.00  0.00     0.146 C 
HETATM   17  C17 UNL     1      45.282   0.994  33.454  1.00  0.00     0.049 C 
ATOM     18  H42 UNL     1      43.070   2.792  34.040  1.00  0.00     0.278 HD
ATOM     19  H41 UNL     1      44.519   3.201  34.033  1.00  0.00     0.278 HD
ENDBRANCH   5   7
BRANCH   1  20
HETATM   20  C6  UNL     1      42.975  -2.064  29.963  1.00  0.00     0.089 C 
HETATM   21  C5  UNL     1      42.862  -3.473  29.464  1.00  0.00     0.055 C 
HETATM   22  C4  UNL     1      43.716  -3.671  28.205  1.00  0.00     0.275 C 
HETATM   23  N1  UNL     1      43.297  -2.684  27.252  1.00  0.00     0.092 N 
HETATM   24  C19 UNL     1      43.757  -1.396  27.683  1.00  0.00     0.275 C 
HETATM   25  C18 UNL     1      44.042  -1.343  29.157  1.00  0.00     0.055 C 
BRANCH  23  26
HETATM   26  C2  UNL     1      43.800  -2.943  25.917  1.00  0.00     0.215 C 
HETATM   27  C1  UNL     1      44.832  -1.951  25.482  1.00  0.00     0.042 C 
HETATM   28  C3  UNL     1      44.459  -4.326  25.970  1.00  0.00     0.042 C 
ENDBRANCH  23  26
ENDBRANCH   1  20
TORSDOF 3
ENDMDL
MODEL 4
REMARK VINA RESULT: -6.258815393      1.786      3.178
REMARK  3 active torsions:
REMARK  status: ('A' for Active; 'I' for Inactive)
REMARK    1  A    between atoms: C2_2  and  N1_4 
REMARK    2  A    between atoms: C6_7  and  N2_8 
REMARK       I    between atoms: N2_8  and  C7_10 
REMARK       I    between atoms: C7_10  and  N3_12 
REMARK    3  A    between atoms: N3_12  and  C8_14 
ROOT
HETATM    1  N2  UNL     1      42.146  -0.515  32.556  1.00  0.00    -0.338 N 
ATOM      2  H2  UNL     1      41.285  -0.851  32.987  1.00  0.00     0.164 HD
HETATM    3  C7  UNL     1      43.033   0.256  33.319  1.00  0.00     0.316 C 
HETATM    4  O1  UNL     1      44.093   0.671  32.794  1.00  0.00    -0.247 OA
HETATM    5  N3  UNL     1      42.785   0.592  34.672  1.00  0.00    -0.336 N 
ATOM      6  H3  UNL     1      41.921   0.254  35.096  1.00  0.00     0.164 HD
ENDROOT
BRANCH   5   7
HETATM    7  C8  UNL     1      43.676   1.385  35.493  1.00  0.00     0.122 C 
HETATM    8  C9  UNL     1      43.364   2.851  35.344  1.00  0.00     0.032 C 
HETATM    9  C10 UNL     1      43.492   3.499  36.714  1.00  0.00    -0.010 C 
HETATM   10  C11 UNL     1      44.849   3.381  37.296  1.00  0.00     0.037 C 
HETATM   11  C15 UNL     1      42.392   2.879  37.551  1.00  0.00     0.012 C 
HETATM   12  C12 UNL     1      45.128   2.200  38.146  1.00  0.00     0.187 C 
HETATM   13  C13 UNL     1      43.944   1.799  39.037  1.00  0.00     0.040 C 
HETATM   14  N4  UNL     1      45.176   0.991  37.308  1.00  0.00    -0.060 N 
HETATM   15  C14 UNL     1      42.929   1.489  37.920  1.00  0.00     0.026 C 
HETATM   16  C16 UNL     1      43.794   0.888  36.880  1.00  0.00     0.146 C 
HETATM   17  C17 UNL     1      43.467  -0.614  36.852  1.00  0.00     0.049 C 
ATOM     18  H42 UNL     1      45.865   1.007  36.556  1.00  0.00     0.278 HD
ATOM     19  H41 UNL     1      45.556   0.159  37.761  1.00  0.00     0.278 HD
ENDBRANCH   5   7
BRANCH   1  20
HETATM   20  C6  UNL     1      42.415  -0.847  31.184  1.00  0.00     0.089 C 
HETATM   21  C5  UNL     1      41.172  -1.171  30.410  1.00  0.00     0.055 C 
HETATM   22  C4  UNL     1      41.306  -2.532  29.715  1.00  0.00     0.275 C 
HETATM   23  N1  UNL     1      42.491  -2.479  28.910  1.00  0.00     0.092 N 
HETATM   24  C19 UNL     1      43.640  -2.506  29.768  1.00  0.00     0.275 C 
HETATM   25  C18 UNL     1      43.330  -2.059  31.169  1.00  0.00     0.055 C 
BRANCH  23  26
HETATM   26  C2  UNL     1      42.580  -3.577  27.967  1.00  0.00     0.215 C 
HETATM   27  C1  UNL     1      43.736  -3.444  27.026  1.00  0.00     0.042 C 
HETATM   28  C3  UNL     1      42.790  -4.843  28.806  1.00  0.00     0.042 C 
ENDBRANCH  23  26
ENDBRANCH   1  20
TORSDOF 3
ENDMDL
MODEL 5
REMARK VINA RESULT: -6.130603267      3.507      4.666
REMARK  3 active torsions:
REMARK  status: ('A' for Active; 'I' for Inactive)
REMARK    1  A    between atoms: C2_2  and  N1_4 
REMARK    2  A    between atoms: C6_7  and  N2_8 
REMARK       I    between atoms: N2_8  and  C7_10 
REMARK       I    between atoms: C7_10  and  N3_12 
REMARK    3  A    between atoms: N3_12  and  C8_14 
ROOT
HETATM    1  N2  UNL     1      42.305  -2.931  30.857  1.00  0.00    -0.338 N 
ATOM      2  H2  UNL     1      42.434  -3.468  31.715  1.00  0.00     0.164 HD
HETATM    3  C7  UNL     1      41.177  -2.109  30.733  1.00  0.00     0.316 C 
HETATM    4  O1  UNL     1      41.014  -1.447  29.681  1.00  0.00    -0.247 OA
HETATM    5  N3  UNL     1      40.201  -1.990  31.752  1.00  0.00    -0.336 N 
ATOM      6  H3  UNL     1      40.336  -2.531  32.606  1.00  0.00     0.164 HD
ENDROOT
BRANCH   5   7
HETATM    7  C8  UNL     1      39.023  -1.152  31.661  1.00  0.00     0.122 C 
HETATM    8  C9  UNL     1      37.833  -1.963  31.220  1.00  0.00     0.032 C 
HETATM    9  C10 UNL     1      36.623  -1.487  32.008  1.00  0.00    -0.010 C 
HETATM   10  C11 UNL     1      36.304  -0.057  31.789  1.00  0.00     0.037 C 
HETATM   11  C15 UNL     1      36.918  -1.853  33.448  1.00  0.00     0.012 C 
HETATM   12  C12 UNL     1      36.928   0.930  32.701  1.00  0.00     0.187 C 
HETATM   13  C13 UNL     1      37.014   0.443  34.155  1.00  0.00     0.040 C 
HETATM   14  N4  UNL     1      38.371   1.013  32.424  1.00  0.00    -0.060 N 
HETATM   15  C14 UNL     1      37.914  -0.784  33.918  1.00  0.00     0.026 C 
HETATM   16  C16 UNL     1      38.818  -0.299  32.850  1.00  0.00     0.146 C 
HETATM   17  C17 UNL     1      40.194  -0.090  33.502  1.00  0.00     0.049 C 
ATOM     18  H42 UNL     1      38.618   1.269  31.468  1.00  0.00     0.278 HD
ATOM     19  H41 UNL     1      38.854   1.800  32.856  1.00  0.00     0.278 HD
ENDBRANCH   5   7
BRANCH   1  20
HETATM   20  C6  UNL     1      43.285  -3.039  29.813  1.00  0.00     0.089 C 
HETATM   21  C5  UNL     1      43.928  -1.726  29.480  1.00  0.00     0.055 C 
HETATM   22  C4  UNL     1      43.827  -1.440  27.976  1.00  0.00     0.275 C 
HETATM   23  N1  UNL     1      44.410  -2.558  27.294  1.00  0.00     0.092 N 
HETATM   24  C19 UNL     1      43.530  -3.685  27.408  1.00  0.00     0.275 C 
HETATM   25  C18 UNL     1      42.587  -3.570  28.573  1.00  0.00     0.055 C 
BRANCH  23  26
HETATM   26  C2  UNL     1      44.658  -2.293  25.891  1.00  0.00     0.215 C 
HETATM   27  C1  UNL     1      43.993  -3.282  24.986  1.00  0.00     0.042 C 
HETATM   28  C3  UNL     1      44.063  -0.909  25.606  1.00  0.00     0.042 C 
ENDBRANCH  23  26
ENDBRANCH   1  20
TORSDOF 3
ENDMDL
