MODEL 1
REMARK VINA RESULT: -6.526748094      0.000      0.000
REMARK  5 active torsions:
REMARK  status: ('A' for Active; 'I' for Inactive)
REMARK    1  A    between atoms: C3_3  and  C4_4 
REMARK    2  A    between atoms: C4_4  and  C7_7 
REMARK    3  A    between atoms: C7_7  and  N1_9 
REMARK       I    between atoms: N1_9  and  C9_11 
REMARK       I    between atoms: C9_11  and  N2_13 
REMARK    4  A    between atoms: N2_13  and  C10_15 
REMARK    5  A    between atoms: C17_22  and  C18_23 
REMARK       I    between atoms: C18_23  and  N3_25 
ROOT
HETATM    1  C1  UNL     1      38.328   1.017  32.311  1.00  0.00     0.112 C 
HETATM    2  C2  UNL     1      39.441   0.101  32.051  1.00  0.00    -0.110 C 
HETATM    3  C3  UNL     1      40.338  -0.659  31.842  1.00  0.00    -0.096 C 
ENDROOT
BRANCH   3   4
HETATM    4  C4  UNL     1      41.420  -1.609  31.590  1.00  0.00     0.036 C 
HETATM    5  C5  UNL     1      41.401  -2.673  32.657  1.00  0.00     0.031 C 
HETATM    6  C6  UNL     1      41.210  -2.272  30.256  1.00  0.00     0.031 C 
BRANCH   4   7
HETATM    7  C7  UNL     1      42.728  -0.872  31.680  1.00  0.00     0.102 C 
HETATM    8  C8  UNL     1      43.733  -1.603  30.830  1.00  0.00     0.034 C 
BRANCH   7   9
HETATM    9  N1  UNL     1      43.141  -0.739  33.048  1.00  0.00    -0.337 N 
HETATM   10  C9  UNL     1      43.772   0.405  33.569  1.00  0.00     0.316 C 
HETATM   11  O1  UNL     1      43.994   1.370  32.812  1.00  0.00    -0.247 OA
HETATM   12  N2  UNL     1      44.167   0.509  34.919  1.00  0.00    -0.337 N 
ATOM     13  H2  UNL     1      43.984  -0.282  35.536  1.00  0.00     0.164 HD
ATOM     14  H1  UNL     1      42.966  -1.520  33.680  1.00  0.00     0.164 HD
BRANCH  12  15
HETATM   15  C10 UNL     1      44.818   1.675  35.478  1.00  0.00     0.103 C 
HETATM   16  C11 UNL     1      43.761   2.501  36.181  1.00  0.00     0.010 C 
HETATM   17  C12 UNL     1      44.335   3.808  36.679  1.00  0.00     0.007 C 
HETATM   18  C16 UNL     1      43.482   1.629  37.386  1.00  0.00     0.012 C 
HETATM   19  C13 UNL     1      44.611   3.825  38.140  1.00  0.00     0.001 C 
HETATM   20  C14 UNL     1      45.285   2.602  38.678  1.00  0.00     0.005 C 
HETATM   21  C15 UNL     1      44.913   1.364  37.850  1.00  0.00     0.001 C 
HETATM   22  C17 UNL     1      45.757   1.392  36.600  1.00  0.00     0.105 C 
BRANCH  22  23
HETATM   23  C18 UNL     1      46.582   0.203  36.429  1.00  0.00     0.223 C 
HETATM   24  O2  UNL     1      46.177  -0.896  36.862  1.00  0.00    -0.273 OA
HETATM   25  N3  UNL     1      47.834   0.253  35.787  1.00  0.00    -0.365 N 
HETATM   26  C19 UNL     1      48.628  -0.946  35.635  1.00  0.00     0.149 C 
ATOM     27  H3  UNL     1      48.183   1.141  35.427  1.00  0.00     0.161 HD
ENDBRANCH  22  23
ENDBRANCH  12  15
ENDBRANCH   7   9
ENDBRANCH   4   7
ENDBRANCH   3   4
TORSDOF 5
ENDMDL
MODEL 2
REMARK VINA RESULT: -6.412320048      1.610      7.859
REMARK  5 active torsions:
REMARK  status: ('A' for Active; 'I' for Inactive)
REMARK    1  A    between atoms: C3_3  and  C4_4 
REMARK    2  A    between atoms: C4_4  and  C7_7 
REMARK    3  A    between atoms: C7_7  and  N1_9 
REMARK       I    between atoms: N1_9  and  C9_11 
REMARK       I    between atoms: C9_11  and  N2_13 
REMARK    4  A    between atoms: N2_13  and  C10_15 
REMARK    5  A    between atoms: C17_22  and  C18_23 
REMARK       I    between atoms: C18_23  and  N3_25 
ROOT
HETATM    1  C1  UNL     1      48.947  -1.212  35.674  1.00  0.00     0.112 C 
HETATM    2  C2  UNL     1      47.709  -0.511  36.021  1.00  0.00    -0.110 C 
HETATM    3  C3  UNL     1      46.697   0.049  36.318  1.00  0.00    -0.096 C 
ENDROOT
BRANCH   3   4
HETATM    4  C4  UNL     1      45.453   0.718  36.698  1.00  0.00     0.036 C 
HETATM    5  C5  UNL     1      44.496  -0.303  37.257  1.00  0.00     0.031 C 
HETATM    6  C6  UNL     1      45.736   1.738  37.767  1.00  0.00     0.031 C 
BRANCH   4   7
HETATM    7  C7  UNL     1      44.840   1.316  35.462  1.00  0.00     0.102 C 
HETATM    8  C8  UNL     1      44.163   2.602  35.855  1.00  0.00     0.034 C 
BRANCH   7   9
HETATM    9  N1  UNL     1      43.949   0.381  34.837  1.00  0.00    -0.337 N 
HETATM   10  C9  UNL     1      43.695   0.344  33.454  1.00  0.00     0.316 C 
HETATM   11  O1  UNL     1      44.270   1.165  32.712  1.00  0.00    -0.247 OA
HETATM   12  N2  UNL     1      42.813  -0.587  32.865  1.00  0.00    -0.337 N 
ATOM     13  H2  UNL     1      42.344  -1.257  33.474  1.00  0.00     0.164 HD
ATOM     14  H1  UNL     1      43.471  -0.297  35.431  1.00  0.00     0.164 HD
BRANCH  12  15
HETATM   15  C10 UNL     1      42.537  -0.643  31.445  1.00  0.00     0.103 C 
HETATM   16  C11 UNL     1      43.314  -1.809  30.870  1.00  0.00     0.010 C 
HETATM   17  C12 UNL     1      43.185  -1.858  29.365  1.00  0.00     0.007 C 
HETATM   18  C16 UNL     1      42.532  -2.973  31.439  1.00  0.00     0.012 C 
HETATM   19  C13 UNL     1      42.236  -2.893  28.876  1.00  0.00     0.001 C 
HETATM   20  C14 UNL     1      40.937  -2.971  29.616  1.00  0.00     0.005 C 
HETATM   21  C15 UNL     1      41.114  -2.534  31.077  1.00  0.00     0.001 C 
HETATM   22  C17 UNL     1      41.139  -1.026  31.094  1.00  0.00     0.105 C 
BRANCH  22  23
HETATM   23  C18 UNL     1      40.108  -0.437  31.937  1.00  0.00     0.223 C 
HETATM   24  O2  UNL     1      40.001  -0.801  33.126  1.00  0.00    -0.273 OA
HETATM   25  N3  UNL     1      39.217   0.538  31.449  1.00  0.00    -0.365 N 
HETATM   26  C19 UNL     1      38.203   1.102  32.313  1.00  0.00     0.149 C 
ATOM     27  H3  UNL     1      39.287   0.849  30.480  1.00  0.00     0.161 HD
ENDBRANCH  22  23
ENDBRANCH  12  15
ENDBRANCH   7   9
ENDBRANCH   4   7
ENDBRANCH   3   4
TORSDOF 5
ENDMDL
MODEL 3
REMARK VINA RESULT: -6.199703808      0.897      2.224
REMARK  5 active torsions:
REMARK  status: ('A' for Active; 'I' for Inactive)
REMARK    1  A    between atoms: C3_3  and  C4_4 
REMARK    2  A    between atoms: C4_4  and  C7_7 
REMARK    3  A    between atoms: C7_7  and  N1_9 
REMARK       I    between atoms: N1_9  and  C9_11 
REMARK       I    between atoms: C9_11  and  N2_13 
REMARK    4  A    between atoms: N2_13  and  C10_15 
REMARK    5  A    between atoms: C17_22  and  C18_23 
REMARK       I    between atoms: C18_23  and  N3_25 
ROOT
HETATM    1  C1  UNL     1      42.921  -5.700  32.471  1.00  0.00     0.112 C 
HETATM    2  C2  UNL     1      42.445  -4.341  32.206  1.00  0.00    -0.110 C 
HETATM    3  C3  UNL     1      42.043  -3.239  31.980  1.00  0.00    -0.096 C 
ENDROOT
BRANCH   3   4
HETATM    4  C4  UNL     1      41.534  -1.900  31.691  1.00  0.00     0.036 C 
HETATM    5  C5  UNL     1      40.951  -1.884  30.300  1.00  0.00     0.031 C 
HETATM    6  C6  UNL     1      40.443  -1.553  32.666  1.00  0.00     0.031 C 
BRANCH   4   7
HETATM    7  C7  UNL     1      42.687  -0.935  31.732  1.00  0.00     0.102 C 
HETATM    8  C8  UNL     1      43.694  -1.373  30.701  1.00  0.00     0.034 C 
BRANCH   7   9
HETATM    9  N1  UNL     1      43.236  -0.858  33.055  1.00  0.00    -0.337 N 
HETATM   10  C9  UNL     1      43.833   0.298  33.590  1.00  0.00     0.316 C 
HETATM   11  O1  UNL     1      43.898   1.325  32.887  1.00  0.00    -0.247 OA
HETATM   12  N2  UNL     1      44.364   0.346  34.897  1.00  0.00    -0.337 N 
ATOM     13  H2  UNL     1      44.309  -0.496  35.470  1.00  0.00     0.164 HD
ATOM     14  H1  UNL     1      43.189  -1.691  33.643  1.00  0.00     0.164 HD
BRANCH  12  15
HETATM   15  C10 UNL     1      44.983   1.523  35.469  1.00  0.00     0.103 C 
HETATM   16  C11 UNL     1      43.898   2.328  36.153  1.00  0.00     0.010 C 
HETATM   17  C12 UNL     1      44.438   3.644  36.664  1.00  0.00     0.007 C 
HETATM   18  C16 UNL     1      43.612   1.449  37.351  1.00  0.00     0.012 C 
HETATM   19  C13 UNL     1      44.687   3.664  38.130  1.00  0.00     0.001 C 
HETATM   20  C14 UNL     1      45.373   2.452  38.679  1.00  0.00     0.005 C 
HETATM   21  C15 UNL     1      45.040   1.209  37.842  1.00  0.00     0.001 C 
HETATM   22  C17 UNL     1      45.906   1.255  36.608  1.00  0.00     0.105 C 
BRANCH  22  23
HETATM   23  C18 UNL     1      46.755   0.082  36.451  1.00  0.00     0.223 C 
HETATM   24  O2  UNL     1      46.409  -1.003  36.961  1.00  0.00    -0.273 OA
HETATM   25  N3  UNL     1      47.967   0.133  35.736  1.00  0.00    -0.365 N 
HETATM   26  C19 UNL     1      48.788  -1.051  35.600  1.00  0.00     0.149 C 
ATOM     27  H3  UNL     1      48.269   1.009  35.312  1.00  0.00     0.161 HD
ENDBRANCH  22  23
ENDBRANCH  12  15
ENDBRANCH   7   9
ENDBRANCH   4   7
ENDBRANCH   3   4
TORSDOF 5
ENDMDL
MODEL 4
REMARK VINA RESULT: -5.877467405      2.685      4.204
REMARK  5 active torsions:
REMARK  status: ('A' for Active; 'I' for Inactive)
REMARK    1  A    between atoms: C3_3  and  C4_4 
REMARK    2  A    between atoms: C4_4  and  C7_7 
REMARK    3  A    between atoms: C7_7  and  N1_9 
REMARK       I    between atoms: N1_9  and  C9_11 
REMARK       I    between atoms: C9_11  and  N2_13 
REMARK    4  A    between atoms: N2_13  and  C10_15 
REMARK    5  A    between atoms: C17_22  and  C18_23 
REMARK       I    between atoms: C18_23  and  N3_25 
ROOT
HETATM    1  C1  UNL     1      44.090  -3.733  24.895  1.00  0.00     0.112 C 
HETATM    2  C2  UNL     1      43.727  -3.551  26.302  1.00  0.00    -0.110 C 
HETATM    3  C3  UNL     1      43.424  -3.419  27.450  1.00  0.00    -0.096 C 
ENDROOT
BRANCH   3   4
HETATM    4  C4  UNL     1      43.045  -3.280  28.855  1.00  0.00     0.036 C 
HETATM    5  C5  UNL     1      41.568  -3.545  28.995  1.00  0.00     0.031 C 
HETATM    6  C6  UNL     1      43.789  -4.294  29.680  1.00  0.00     0.031 C 
BRANCH   4   7
HETATM    7  C7  UNL     1      43.315  -1.863  29.281  1.00  0.00     0.102 C 
HETATM    8  C8  UNL     1      44.384  -1.304  28.381  1.00  0.00     0.034 C 
BRANCH   7   9
HETATM    9  N1  UNL     1      43.668  -1.811  30.671  1.00  0.00    -0.337 N 
HETATM   10  C9  UNL     1      43.187  -0.838  31.566  1.00  0.00     0.316 C 
HETATM   11  O1  UNL     1      42.408   0.039  31.144  1.00  0.00    -0.247 OA
HETATM   12  N2  UNL     1      43.551  -0.810  32.929  1.00  0.00    -0.337 N 
ATOM     13  H2  UNL     1      44.189  -1.529  33.271  1.00  0.00     0.164 HD
ATOM     14  H1  UNL     1      44.305  -2.522  31.031  1.00  0.00     0.164 HD
BRANCH  12  15
HETATM   15  C10 UNL     1      43.069   0.181  33.868  1.00  0.00     0.103 C 
HETATM   16  C11 UNL     1      41.803  -0.359  34.499  1.00  0.00     0.010 C 
HETATM   17  C12 UNL     1      41.161   0.674  35.398  1.00  0.00     0.007 C 
HETATM   18  C16 UNL     1      42.373  -1.448  35.381  1.00  0.00     0.012 C 
HETATM   19  C13 UNL     1      41.393   0.437  36.847  1.00  0.00     0.001 C 
HETATM   20  C14 UNL     1      42.796   0.072  37.219  1.00  0.00     0.005 C 
HETATM   21  C15 UNL     1      43.493  -0.666  36.068  1.00  0.00     0.001 C 
HETATM   22  C17 UNL     1      43.931   0.376  35.069  1.00  0.00     0.105 C 
BRANCH  22  23
HETATM   23  C18 UNL     1      45.364   0.365  34.809  1.00  0.00     0.223 C 
HETATM   24  O2  UNL     1      45.790   0.703  33.686  1.00  0.00    -0.273 OA
HETATM   25  N3  UNL     1      46.295  -0.020  35.793  1.00  0.00    -0.365 N 
HETATM   26  C19 UNL     1      47.711  -0.020  35.501  1.00  0.00     0.149 C 
ATOM     27  H3  UNL     1      45.968  -0.300  36.718  1.00  0.00     0.161 HD
ENDBRANCH  22  23
ENDBRANCH  12  15
ENDBRANCH   7   9
ENDBRANCH   4   7
ENDBRANCH   3   4
TORSDOF 5
ENDMDL
MODEL 5
REMARK VINA RESULT: -5.778343272      1.804      7.644
REMARK  5 active torsions:
REMARK  status: ('A' for Active; 'I' for Inactive)
REMARK    1  A    between atoms: C3_3  and  C4_4 
REMARK    2  A    between atoms: C4_4  and  C7_7 
REMARK    3  A    between atoms: C7_7  and  N1_9 
REMARK       I    between atoms: N1_9  and  C9_11 
REMARK       I    between atoms: C9_11  and  N2_13 
REMARK    4  A    between atoms: N2_13  and  C10_15 
REMARK    5  A    between atoms: C17_22  and  C18_23 
REMARK       I    between atoms: C18_23  and  N3_25 
ROOT
HETATM    1  C1  UNL     1      43.219  -1.906  38.716  1.00  0.00     0.112 C 
HETATM    2  C2  UNL     1      44.017  -0.961  37.932  1.00  0.00    -0.110 C 
HETATM    3  C3  UNL     1      44.683  -0.198  37.299  1.00  0.00    -0.096 C 
ENDROOT
BRANCH   3   4
HETATM    4  C4  UNL     1      45.518   0.726  36.533  1.00  0.00     0.036 C 
HETATM    5  C5  UNL     1      45.976   1.842  37.437  1.00  0.00     0.031 C 
HETATM    6  C6  UNL     1      46.732   0.002  36.022  1.00  0.00     0.031 C 
BRANCH   4   7
HETATM    7  C7  UNL     1      44.681   1.320  35.434  1.00  0.00     0.102 C 
HETATM    8  C8  UNL     1      43.841   2.418  36.032  1.00  0.00     0.034 C 
BRANCH   7   9
HETATM    9  N1  UNL     1      43.901   0.305  34.787  1.00  0.00    -0.337 N 
HETATM   10  C9  UNL     1      43.638   0.280  33.405  1.00  0.00     0.316 C 
HETATM   11  O1  UNL     1      44.103   1.185  32.685  1.00  0.00    -0.247 OA
HETATM   12  N2  UNL     1      42.867  -0.732  32.794  1.00  0.00    -0.337 N 
ATOM     13  H2  UNL     1      42.488  -1.471  33.386  1.00  0.00     0.164 HD
ATOM     14  H1  UNL     1      43.513  -0.443  35.363  1.00  0.00     0.164 HD
BRANCH  12  15
HETATM   15  C10 UNL     1      42.584  -0.779  31.375  1.00  0.00     0.103 C 
HETATM   16  C11 UNL     1      43.340  -1.954  30.793  1.00  0.00     0.010 C 
HETATM   17  C12 UNL     1      43.204  -1.995  29.288  1.00  0.00     0.007 C 
HETATM   18  C16 UNL     1      42.543  -3.108  31.360  1.00  0.00     0.012 C 
HETATM   19  C13 UNL     1      42.237  -3.013  28.798  1.00  0.00     0.001 C 
HETATM   20  C14 UNL     1      40.941  -3.074  29.544  1.00  0.00     0.005 C 
HETATM   21  C15 UNL     1      41.130  -2.646  31.006  1.00  0.00     0.001 C 
HETATM   22  C17 UNL     1      41.179  -1.138  31.028  1.00  0.00     0.105 C 
BRANCH  22  23
HETATM   23  C18 UNL     1      40.160  -0.537  31.878  1.00  0.00     0.223 C 
HETATM   24  O2  UNL     1      40.050  -0.906  33.065  1.00  0.00    -0.273 OA
HETATM   25  N3  UNL     1      39.285   0.457  31.399  1.00  0.00    -0.365 N 
HETATM   26  C19 UNL     1      38.284   1.033  32.269  1.00  0.00     0.149 C 
ATOM     27  H3  UNL     1      39.357   0.772  30.432  1.00  0.00     0.161 HD
ENDBRANCH  22  23
ENDBRANCH  12  15
ENDBRANCH   7   9
ENDBRANCH   4   7
ENDBRANCH   3   4
TORSDOF 5
ENDMDL
