MODEL 1
REMARK VINA RESULT: -6.866148455      0.000      0.000
REMARK  4 active torsions:
REMARK  status: ('A' for Active; 'I' for Inactive)
REMARK    1  A    between atoms: C2_2  and  N2_6 
REMARK    2  A    between atoms: N2_6  and  C3_8 
REMARK    3  A    between atoms: C6_11  and  N3_12 
REMARK       I    between atoms: N3_12  and  C7_14 
REMARK       I    between atoms: C7_14  and  N4_15 
REMARK    4  A    between atoms: N7_20  and  C9_22 
ROOT
HETATM    1  N3  UNL     1      43.321  -1.401  32.460  1.00  0.00    -0.222 N 
ATOM      2  H3  UNL     1      43.531  -2.292  32.909  1.00  0.00     0.178 HD
HETATM    3  C7  UNL     1      42.859  -1.426  31.133  1.00  0.00     0.677 C 
HETATM    4  N4  UNL     1      41.456  -1.327  30.925  1.00  0.00    -0.166 N 
ATOM      5  H4  UNL     1      41.051  -0.501  30.484  1.00  0.00     0.186 HD
HETATM    6  C8  UNL     1      40.707  -2.301  31.305  1.00  0.00     0.215 C 
HETATM    7  N5  UNL     1      39.283  -2.277  31.130  1.00  0.00    -0.066 NA
HETATM    8  N6  UNL     1      41.245  -3.454  31.917  1.00  0.00    -0.066 NA
HETATM    9  N7  UNL     1      43.641  -1.532  30.106  1.00  0.00    -0.212 N 
ATOM     10  H7  UNL     1      44.650  -1.603  30.235  1.00  0.00     0.179 HD
ENDROOT
BRANCH   1  11
HETATM   11  C6  UNL     1      43.515  -0.196  33.226  1.00  0.00     0.099 C 
HETATM   12  C5  UNL     1      43.336  -0.495  34.679  1.00  0.00     0.028 C 
HETATM   13  C4  UNL     1      44.187   0.388  35.539  1.00  0.00     0.027 C 
HETATM   14  C3  UNL     1      44.263   1.786  34.983  1.00  0.00     0.083 C 
HETATM   15  C17 UNL     1      44.883   1.779  33.613  1.00  0.00     0.027 C 
HETATM   16  C16 UNL     1      44.907   0.383  33.022  1.00  0.00     0.028 C 
BRANCH  14  17
HETATM   17  N2  UNL     1      45.067   2.582  35.910  1.00  0.00    -0.376 N 
ATOM     18  H2  UNL     1      46.085   2.524  35.884  1.00  0.00     0.161 HD
BRANCH  17  19
HETATM   19  C2  UNL     1      44.427   3.430  36.842  1.00  0.00     0.066 C 
HETATM   20  C1  UNL     1      44.872   3.498  38.253  1.00  0.00     0.088 C 
HETATM   21  N1  UNL     1      43.443   4.148  36.440  1.00  0.00    -0.389 N 
ATOM     22  H12 UNL     1      42.982   4.760  37.113  1.00  0.00     0.157 HD
ATOM     23  H11 UNL     1      43.137   4.102  35.469  1.00  0.00     0.157 HD
ENDBRANCH  17  19
ENDBRANCH  14  17
ENDBRANCH   1  11
BRANCH   9  24
HETATM   24  C9  UNL     1      43.066  -1.549  28.751  1.00  0.00     0.169 C 
HETATM   25  C10 UNL     1      43.986  -0.589  27.916  1.00  0.00     0.064 C 
HETATM   26  C11 UNL     1      44.232  -1.129  26.513  1.00  0.00    -0.028 C 
HETATM   27  C12 UNL     1      44.810  -2.415  26.254  1.00  0.00    -0.030 C 
HETATM   28  C13 UNL     1      43.970  -3.680  26.069  1.00  0.00     0.038 C 
HETATM   29  C14 UNL     1      43.093  -3.975  27.334  1.00  0.00     0.086 C 
HETATM   30  C15 UNL     1      43.053  -2.777  28.070  1.00  0.00    -0.157 C 
ENDBRANCH   9  24
TORSDOF 4
ENDMDL
MODEL 2
REMARK VINA RESULT: -6.802118334      3.204      8.254
REMARK  4 active torsions:
REMARK  status: ('A' for Active; 'I' for Inactive)
REMARK    1  A    between atoms: C2_2  and  N2_6 
REMARK    2  A    between atoms: N2_6  and  C3_8 
REMARK    3  A    between atoms: C6_11  and  N3_12 
REMARK       I    between atoms: N3_12  and  C7_14 
REMARK       I    between atoms: C7_14  and  N4_15 
REMARK    4  A    between atoms: N7_20  and  C9_22 
ROOT
HETATM    1  N3  UNL     1      42.434  -2.478  32.399  1.00  0.00    -0.222 N 
ATOM      2  H3  UNL     1      42.614  -3.191  33.107  1.00  0.00     0.178 HD
HETATM    3  C7  UNL     1      41.726  -1.329  32.789  1.00  0.00     0.677 C 
HETATM    4  N4  UNL     1      42.484  -0.165  33.094  1.00  0.00    -0.166 N 
ATOM      5  H4  UNL     1      42.434   0.661  32.496  1.00  0.00     0.186 HD
HETATM    6  C8  UNL     1      43.233  -0.174  34.139  1.00  0.00     0.215 C 
HETATM    7  N5  UNL     1      44.027   0.962  34.513  1.00  0.00    -0.066 NA
HETATM    8  N6  UNL     1      43.317  -1.305  34.980  1.00  0.00    -0.066 NA
HETATM    9  N7  UNL     1      40.435  -1.281  32.881  1.00  0.00    -0.212 N 
ATOM     10  H7  UNL     1      39.875  -2.106  32.665  1.00  0.00     0.179 HD
ENDROOT
BRANCH   1  11
HETATM   11  C6  UNL     1      42.921  -2.714  31.064  1.00  0.00     0.099 C 
HETATM   12  C5  UNL     1      43.297  -4.153  30.917  1.00  0.00     0.028 C 
HETATM   13  C4  UNL     1      43.095  -4.643  29.517  1.00  0.00     0.027 C 
HETATM   14  C3  UNL     1      43.458  -3.584  28.508  1.00  0.00     0.083 C 
HETATM   15  C17 UNL     1      42.587  -2.370  28.678  1.00  0.00     0.027 C 
HETATM   16  C16 UNL     1      41.870  -2.384  30.014  1.00  0.00     0.028 C 
BRANCH  14  17
HETATM   17  N2  UNL     1      43.278  -4.167  27.179  1.00  0.00    -0.376 N 
ATOM     18  H2  UNL     1      42.547  -4.859  27.019  1.00  0.00     0.161 HD
BRANCH  17  19
HETATM   19  C2  UNL     1      44.123  -3.766  26.118  1.00  0.00     0.066 C 
HETATM   20  C1  UNL     1      44.591  -2.367  25.994  1.00  0.00     0.088 C 
HETATM   21  N1  UNL     1      44.479  -4.646  25.256  1.00  0.00    -0.389 N 
ATOM     22  H12 UNL     1      45.088  -4.357  24.491  1.00  0.00     0.157 HD
ATOM     23  H11 UNL     1      44.156  -5.609  25.341  1.00  0.00     0.157 HD
ENDBRANCH  17  19
ENDBRANCH  14  17
ENDBRANCH   1  11
BRANCH   9  24
HETATM   24  C9  UNL     1      39.780  -0.031  33.298  1.00  0.00     0.169 C 
HETATM   25  C10 UNL     1      38.990   0.447  32.027  1.00  0.00     0.064 C 
HETATM   26  C11 UNL     1      37.630   1.026  32.398  1.00  0.00    -0.028 C 
HETATM   27  C12 UNL     1      36.635   0.294  33.126  1.00  0.00    -0.030 C 
HETATM   28  C13 UNL     1      36.527   0.334  34.652  1.00  0.00     0.038 C 
HETATM   29  C14 UNL     1      37.847  -0.164  35.332  1.00  0.00     0.086 C 
HETATM   30  C15 UNL     1      38.843  -0.108  34.340  1.00  0.00    -0.157 C 
ENDBRANCH   9  24
TORSDOF 4
ENDMDL
MODEL 3
REMARK VINA RESULT: -6.617575061      3.103      8.149
REMARK  4 active torsions:
REMARK  status: ('A' for Active; 'I' for Inactive)
REMARK    1  A    between atoms: C2_2  and  N2_6 
REMARK    2  A    between atoms: N2_6  and  C3_8 
REMARK    3  A    between atoms: C6_11  and  N3_12 
REMARK       I    between atoms: N3_12  and  C7_14 
REMARK       I    between atoms: C7_14  and  N4_15 
REMARK    4  A    between atoms: N7_20  and  C9_22 
ROOT
HETATM    1  N3  UNL     1      41.411  -3.089  31.554  1.00  0.00    -0.222 N 
ATOM      2  H3  UNL     1      41.330  -3.991  32.025  1.00  0.00     0.178 HD
HETATM    3  C7  UNL     1      40.979  -1.945  32.246  1.00  0.00     0.677 C 
HETATM    4  N4  UNL     1      41.969  -1.163  32.903  1.00  0.00    -0.166 N 
ATOM      5  H4  UNL     1      42.193  -0.224  32.574  1.00  0.00     0.186 HD
HETATM    6  C8  UNL     1      42.577  -1.665  33.919  1.00  0.00     0.215 C 
HETATM    7  N5  UNL     1      43.587  -0.939  34.634  1.00  0.00    -0.066 NA
HETATM    8  N6  UNL     1      42.283  -2.964  34.390  1.00  0.00    -0.066 NA
HETATM    9  N7  UNL     1      39.739  -1.575  32.311  1.00  0.00    -0.212 N 
ATOM     10  H7  UNL     1      39.016  -2.123  31.846  1.00  0.00     0.179 HD
ENDROOT
BRANCH   1  11
HETATM   11  C6  UNL     1      41.962  -3.069  30.223  1.00  0.00     0.099 C 
HETATM   12  C5  UNL     1      42.003  -1.662  29.721  1.00  0.00     0.028 C 
HETATM   13  C4  UNL     1      43.146  -1.438  28.780  1.00  0.00     0.027 C 
HETATM   14  C3  UNL     1      43.374  -2.640  27.899  1.00  0.00     0.083 C 
HETATM   15  C17 UNL     1      43.718  -3.846  28.729  1.00  0.00     0.027 C 
HETATM   16  C16 UNL     1      43.376  -3.632  30.190  1.00  0.00     0.028 C 
BRANCH  14  17
HETATM   17  N2  UNL     1      44.468  -2.311  26.986  1.00  0.00    -0.376 N 
ATOM     18  H2  UNL     1      45.394  -2.091  27.354  1.00  0.00     0.161 HD
BRANCH  17  19
HETATM   19  C2  UNL     1      44.237  -2.298  25.591  1.00  0.00     0.066 C 
HETATM   20  C1  UNL     1      44.111  -3.556  24.821  1.00  0.00     0.088 C 
HETATM   21  N1  UNL     1      44.137  -1.165  24.999  1.00  0.00    -0.389 N 
ATOM     22  H12 UNL     1      43.970  -1.156  23.993  1.00  0.00     0.157 HD
ATOM     23  H11 UNL     1      44.224  -0.299  25.529  1.00  0.00     0.157 HD
ENDBRANCH  17  19
ENDBRANCH  14  17
ENDBRANCH   1  11
BRANCH   9  24
HETATM   24  C9  UNL     1      39.381  -0.360  33.061  1.00  0.00     0.169 C 
HETATM   25  C10 UNL     1      38.853   0.639  31.969  1.00  0.00     0.064 C 
HETATM   26  C11 UNL     1      37.652   1.431  32.469  1.00  0.00    -0.028 C 
HETATM   27  C12 UNL     1      36.445   0.819  32.940  1.00  0.00    -0.030 C 
HETATM   28  C13 UNL     1      36.211   0.466  34.409  1.00  0.00     0.038 C 
HETATM   29  C14 UNL     1      37.298  -0.531  34.939  1.00  0.00     0.086 C 
HETATM   30  C15 UNL     1      38.364  -0.469  34.021  1.00  0.00    -0.157 C 
ENDBRANCH   9  24
TORSDOF 4
ENDMDL
MODEL 4
REMARK VINA RESULT: -6.433486357      2.113      8.131
REMARK  4 active torsions:
REMARK  status: ('A' for Active; 'I' for Inactive)
REMARK    1  A    between atoms: C2_2  and  N2_6 
REMARK    2  A    between atoms: N2_6  and  C3_8 
REMARK    3  A    between atoms: C6_11  and  N3_12 
REMARK       I    between atoms: N3_12  and  C7_14 
REMARK       I    between atoms: C7_14  and  N4_15 
REMARK    4  A    between atoms: N7_20  and  C9_22 
ROOT
HETATM    1  N3  UNL     1      41.450  -0.593  32.120  1.00  0.00    -0.222 N 
ATOM      2  H3  UNL     1      40.561  -0.098  32.202  1.00  0.00     0.178 HD
HETATM    3  C7  UNL     1      42.235  -0.732  33.277  1.00  0.00     0.677 C 
HETATM    4  N4  UNL     1      42.151  -1.964  33.982  1.00  0.00    -0.166 N 
ATOM      5  H4  UNL     1      42.948  -2.601  34.014  1.00  0.00     0.186 HD
HETATM    6  C8  UNL     1      41.051  -2.259  34.578  1.00  0.00     0.215 C 
HETATM    7  N5  UNL     1      40.888  -3.483  35.309  1.00  0.00    -0.066 NA
HETATM    8  N6  UNL     1      39.936  -1.393  34.546  1.00  0.00    -0.066 NA
HETATM    9  N7  UNL     1      43.020   0.197  33.724  1.00  0.00    -0.212 N 
ATOM     10  H7  UNL     1      43.094   1.086  33.231  1.00  0.00     0.179 HD
ENDROOT
BRANCH   1  11
HETATM   11  C6  UNL     1      41.820  -1.105  30.825  1.00  0.00     0.099 C 
HETATM   12  C5  UNL     1      43.293  -1.355  30.790  1.00  0.00     0.028 C 
HETATM   13  C4  UNL     1      43.645  -2.494  29.883  1.00  0.00     0.027 C 
HETATM   14  C3  UNL     1      42.772  -2.505  28.655  1.00  0.00     0.083 C 
HETATM   15  C17 UNL     1      41.327  -2.675  29.033  1.00  0.00     0.027 C 
HETATM   16  C16 UNL     1      41.104  -2.409  30.509  1.00  0.00     0.028 C 
BRANCH  14  17
HETATM   17  N2  UNL     1      43.220  -3.612  27.811  1.00  0.00    -0.376 N 
ATOM     18  H2  UNL     1      42.971  -4.572  28.052  1.00  0.00     0.161 HD
BRANCH  17  19
HETATM   19  C2  UNL     1      43.999  -3.347  26.661  1.00  0.00     0.066 C 
HETATM   20  C1  UNL     1      44.414  -1.969  26.314  1.00  0.00     0.088 C 
HETATM   21  N1  UNL     1      44.343  -4.333  25.916  1.00  0.00    -0.389 N 
ATOM     22  H12 UNL     1      44.905  -4.141  25.087  1.00  0.00     0.157 HD
ATOM     23  H11 UNL     1      44.057  -5.282  26.155  1.00  0.00     0.157 HD
ENDBRANCH  17  19
ENDBRANCH  14  17
ENDBRANCH   1  11
BRANCH   9  24
HETATM   24  C9  UNL     1      43.806  -0.040  34.945  1.00  0.00     0.169 C 
HETATM   25  C10 UNL     1      45.233   0.528  34.617  1.00  0.00     0.064 C 
HETATM   26  C11 UNL     1      45.838   1.249  35.815  1.00  0.00    -0.028 C 
HETATM   27  C12 UNL     1      45.206   2.357  36.468  1.00  0.00    -0.030 C 
HETATM   28  C13 UNL     1      44.264   2.189  37.661  1.00  0.00     0.038 C 
HETATM   29  C14 UNL     1      43.031   1.293  37.294  1.00  0.00     0.086 C 
HETATM   30  C15 UNL     1      43.385   0.604  36.120  1.00  0.00    -0.157 C 
ENDBRANCH   9  24
TORSDOF 4
ENDMDL
MODEL 5
REMARK VINA RESULT: -6.415141938      2.218      8.199
REMARK  4 active torsions:
REMARK  status: ('A' for Active; 'I' for Inactive)
REMARK    1  A    between atoms: C2_2  and  N2_6 
REMARK    2  A    between atoms: N2_6  and  C3_8 
REMARK    3  A    between atoms: C6_11  and  N3_12 
REMARK       I    between atoms: N3_12  and  C7_14 
REMARK       I    between atoms: C7_14  and  N4_15 
REMARK    4  A    between atoms: N7_20  and  C9_22 
ROOT
HETATM    1  N3  UNL     1      41.306  -1.970  31.005  1.00  0.00    -0.222 N 
ATOM      2  H3  UNL     1      40.289  -1.960  31.085  1.00  0.00     0.178 HD
HETATM    3  C7  UNL     1      42.061  -1.714  32.162  1.00  0.00     0.677 C 
HETATM    4  N4  UNL     1      42.575  -2.835  32.870  1.00  0.00    -0.166 N 
ATOM      5  H4  UNL     1      43.579  -3.013  32.905  1.00  0.00     0.186 HD
HETATM    6  C8  UNL     1      41.748  -3.618  33.467  1.00  0.00     0.215 C 
HETATM    7  N5  UNL     1      42.189  -4.769  34.203  1.00  0.00    -0.066 NA
HETATM    8  N6  UNL     1      40.355  -3.390  33.433  1.00  0.00    -0.066 NA
HETATM    9  N7  UNL     1      42.306  -0.522  32.606  1.00  0.00    -0.212 N 
ATOM     10  H7  UNL     1      41.947   0.294  32.111  1.00  0.00     0.179 HD
ENDROOT
BRANCH   1  11
HETATM   11  C6  UNL     1      41.878  -2.246  29.711  1.00  0.00     0.099 C 
HETATM   12  C5  UNL     1      42.985  -1.280  29.439  1.00  0.00     0.028 C 
HETATM   13  C4  UNL     1      44.055  -1.883  28.581  1.00  0.00     0.027 C 
HETATM   14  C3  UNL     1      43.467  -2.789  27.530  1.00  0.00     0.083 C 
HETATM   15  C17 UNL     1      42.722  -3.929  28.169  1.00  0.00     0.027 C 
HETATM   16  C16 UNL     1      42.442  -3.657  29.634  1.00  0.00     0.028 C 
BRANCH  14  17
HETATM   17  N2  UNL     1      44.574  -3.288  26.715  1.00  0.00    -0.376 N 
ATOM     18  H2  UNL     1      45.517  -3.329  27.102  1.00  0.00     0.161 HD
BRANCH  17  19
HETATM   19  C2  UNL     1      44.332  -3.713  25.388  1.00  0.00     0.066 C 
HETATM   20  C1  UNL     1      44.050  -2.740  24.308  1.00  0.00     0.088 C 
HETATM   21  N1  UNL     1      44.360  -4.970  25.135  1.00  0.00    -0.389 N 
ATOM     22  H12 UNL     1      44.185  -5.276  24.178  1.00  0.00     0.157 HD
ATOM     23  H11 UNL     1      44.553  -5.640  25.879  1.00  0.00     0.157 HD
ENDBRANCH  17  19
ENDBRANCH  14  17
ENDBRANCH   1  11
BRANCH   9  24
HETATM   24  C9  UNL     1      43.107  -0.351  33.829  1.00  0.00     0.169 C 
HETATM   25  C10 UNL     1      44.320   0.544  33.388  1.00  0.00     0.064 C 
HETATM   26  C11 UNL     1      44.677   1.569  34.457  1.00  0.00    -0.028 C 
HETATM   27  C12 UNL     1      43.747   2.534  34.965  1.00  0.00    -0.030 C 
HETATM   28  C13 UNL     1      42.872   2.277  36.193  1.00  0.00     0.038 C 
HETATM   29  C14 UNL     1      41.950   1.027  35.987  1.00  0.00     0.086 C 
HETATM   30  C15 UNL     1      42.503   0.307  34.911  1.00  0.00    -0.157 C 
ENDBRANCH   9  24
TORSDOF 4
ENDMDL
