MODEL 1
REMARK VINA RESULT: -7.064177218      0.000      0.000
REMARK  4 active torsions:
REMARK  status: ('A' for Active; 'I' for Inactive)
REMARK       I    between atoms: C1_4  and  N2_5 
REMARK       I    between atoms: C1_4  and  N5_24 
REMARK    1  A    between atoms: N2_5  and  C2_7 
REMARK    2  A    between atoms: C4_11  and  C5_12 
REMARK    3  A    between atoms: N5_24  and  C15_26 
REMARK    4  A    between atoms: C15_26  and  C16_27 
ROOT
HETATM    1  C2  UNL     1      44.289  -0.138  33.893  1.00  0.00     0.697 A 
HETATM    2  N3  UNL     1      43.587   0.332  34.905  1.00  0.00    -0.199 N 
ATOM      3  H3  UNL     1      42.636   0.693  34.847  1.00  0.00     0.183 HD
HETATM    4  C3  UNL     1      44.330   0.257  36.032  1.00  0.00     0.132 A 
HETATM    5  C4  UNL     1      45.569  -0.294  35.719  1.00  0.00     0.051 A 
HETATM    6  N4  UNL     1      45.504  -0.529  34.393  1.00  0.00    -0.193 N 
ATOM      7  H4  UNL     1      46.255  -0.940  33.839  1.00  0.00     0.184 HD
ENDROOT
BRANCH   1   8
HETATM    8  N2  UNL     1      43.972  -0.152  32.649  1.00  0.00    -0.023 N 
HETATM    9  C1  UNL     1      43.703  -1.368  31.899  1.00  0.00     0.686 C 
HETATM   10  N1  UNL     1      43.125  -2.329  32.489  1.00  0.00    -0.234 N 
HETATM   11  N5  UNL     1      44.051  -1.412  30.540  1.00  0.00    -0.226 N 
ATOM     12  H12 UNL     1      42.872  -2.297  33.477  1.00  0.00     0.174 HD
ATOM     13  H11 UNL     1      42.937  -3.182  31.963  1.00  0.00     0.174 HD
ATOM     14  H5  UNL     1      44.438  -0.551  30.153  1.00  0.00     0.177 HD
ATOM     15  H2  UNL     1      43.904   0.741  32.160  1.00  0.00     0.203 HD
BRANCH  11  16
HETATM   16  C15 UNL     1      43.933  -2.509  29.623  1.00  0.00     0.142 C 
BRANCH  16  17
HETATM   17  C16 UNL     1      43.394  -2.067  28.283  1.00  0.00     0.004 C 
HETATM   18  C17 UNL     1      44.140  -0.935  27.620  1.00  0.00     0.006 C 
HETATM   19  C18 UNL     1      44.933  -1.950  26.833  1.00  0.00     0.001 C 
HETATM   20  C19 UNL     1      43.863  -2.957  27.115  1.00  0.00     0.006 C 
ENDBRANCH  16  17
ENDBRANCH  11  16
ENDBRANCH   1   8
BRANCH   5  21
HETATM   21  C5  UNL     1      46.662  -0.445  36.698  1.00  0.00     0.005 C 
HETATM   22  C6  UNL     1      47.864  -1.025  35.955  1.00  0.00     0.020 C 
HETATM   23  C7  UNL     1      48.950  -1.441  36.921  1.00  0.00    -0.013 C 
HETATM   24  C8  UNL     1      49.434  -0.206  37.603  1.00  0.00     0.009 C 
HETATM   25  C12 UNL     1      48.362  -2.477  37.836  1.00  0.00     0.009 C 
HETATM   26  C9  UNL     1      48.251   0.422  38.320  1.00  0.00    -0.013 C 
HETATM   27  C10 UNL     1      47.822  -0.566  39.355  1.00  0.00     0.009 C 
HETATM   28  C14 UNL     1      47.151   0.813  37.342  1.00  0.00     0.020 C 
HETATM   29  C11 UNL     1      47.309  -1.830  38.688  1.00  0.00    -0.013 C 
HETATM   30  C13 UNL     1      46.178  -1.389  37.775  1.00  0.00     0.020 C 
ENDBRANCH   5  21
TORSDOF 4
ENDMDL
MODEL 2
REMARK VINA RESULT: -6.952037937      0.858      1.749
REMARK  4 active torsions:
REMARK  status: ('A' for Active; 'I' for Inactive)
REMARK       I    between atoms: C1_4  and  N2_5 
REMARK       I    between atoms: C1_4  and  N5_24 
REMARK    1  A    between atoms: N2_5  and  C2_7 
REMARK    2  A    between atoms: C4_11  and  C5_12 
REMARK    3  A    between atoms: N5_24  and  C15_26 
REMARK    4  A    between atoms: C15_26  and  C16_27 
ROOT
HETATM    1  C2  UNL     1      45.125   0.215  34.048  1.00  0.00     0.697 A 
HETATM    2  N3  UNL     1      44.888   1.152  34.943  1.00  0.00    -0.199 N 
ATOM      3  H3  UNL     1      44.216   1.912  34.840  1.00  0.00     0.183 HD
HETATM    4  C3  UNL     1      45.677   0.946  36.021  1.00  0.00     0.132 A 
HETATM    5  C4  UNL     1      46.455  -0.187  35.799  1.00  0.00     0.051 A 
HETATM    6  N4  UNL     1      46.083  -0.612  34.575  1.00  0.00    -0.193 N 
ATOM      7  H4  UNL     1      46.462  -1.435  34.106  1.00  0.00     0.184 HD
ENDROOT
BRANCH   1   8
HETATM    8  N2  UNL     1      44.648   0.117  32.860  1.00  0.00    -0.023 N 
HETATM    9  C1  UNL     1      43.959  -1.064  32.363  1.00  0.00     0.686 C 
HETATM   10  N1  UNL     1      43.230  -1.721  33.163  1.00  0.00    -0.234 N 
HETATM   11  N5  UNL     1      44.091  -1.400  31.007  1.00  0.00    -0.226 N 
ATOM     12  H12 UNL     1      43.133  -1.477  34.149  1.00  0.00     0.174 HD
ATOM     13  H11 UNL     1      42.747  -2.549  32.814  1.00  0.00     0.174 HD
ATOM     14  H5  UNL     1      44.640  -0.752  30.441  1.00  0.00     0.177 HD
ATOM     15  H2  UNL     1      44.758   0.912  32.230  1.00  0.00     0.203 HD
BRANCH  11  16
HETATM   16  C15 UNL     1      43.556  -2.534  30.312  1.00  0.00     0.142 C 
BRANCH  16  17
HETATM   17  C16 UNL     1      43.017  -2.158  28.952  1.00  0.00     0.004 C 
HETATM   18  C17 UNL     1      43.947  -1.350  28.081  1.00  0.00     0.006 C 
HETATM   19  C18 UNL     1      44.399  -2.628  27.417  1.00  0.00     0.001 C 
HETATM   20  C19 UNL     1      43.150  -3.287  27.911  1.00  0.00     0.006 C 
ENDBRANCH  16  17
ENDBRANCH  11  16
ENDBRANCH   1   8
BRANCH   5  21
HETATM   21  C5  UNL     1      47.492  -0.657  36.736  1.00  0.00     0.005 C 
HETATM   22  C6  UNL     1      46.825  -1.631  37.707  1.00  0.00     0.020 C 
HETATM   23  C7  UNL     1      47.751  -1.977  38.851  1.00  0.00    -0.013 C 
HETATM   24  C8  UNL     1      48.921  -2.697  38.271  1.00  0.00     0.009 C 
HETATM   25  C12 UNL     1      48.087  -0.695  39.558  1.00  0.00     0.009 C 
HETATM   26  C9  UNL     1      49.586  -1.771  37.268  1.00  0.00    -0.013 C 
HETATM   27  C10 UNL     1      50.079  -0.598  38.050  1.00  0.00     0.009 C 
HETATM   28  C14 UNL     1      48.637  -1.406  36.133  1.00  0.00     0.020 C 
HETATM   29  C11 UNL     1      48.906   0.165  38.639  1.00  0.00    -0.013 C 
HETATM   30  C13 UNL     1      48.029   0.556  37.462  1.00  0.00     0.020 C 
ENDBRANCH   5  21
TORSDOF 4
ENDMDL
MODEL 3
REMARK VINA RESULT: -6.929631380      1.225      2.043
REMARK  4 active torsions:
REMARK  status: ('A' for Active; 'I' for Inactive)
REMARK       I    between atoms: C1_4  and  N2_5 
REMARK       I    between atoms: C1_4  and  N5_24 
REMARK    1  A    between atoms: N2_5  and  C2_7 
REMARK    2  A    between atoms: C4_11  and  C5_12 
REMARK    3  A    between atoms: N5_24  and  C15_26 
REMARK    4  A    between atoms: C15_26  and  C16_27 
ROOT
HETATM    1  C2  UNL     1      45.576   0.252  34.328  1.00  0.00     0.697 A 
HETATM    2  N3  UNL     1      45.483   1.298  35.123  1.00  0.00    -0.199 N 
ATOM      3  H3  UNL     1      45.000   2.168  34.900  1.00  0.00     0.183 HD
HETATM    4  C3  UNL     1      46.130   1.035  36.279  1.00  0.00     0.132 A 
HETATM    5  C4  UNL     1      46.658  -0.251  36.218  1.00  0.00     0.051 A 
HETATM    6  N4  UNL     1      46.292  -0.704  35.001  1.00  0.00    -0.193 N 
ATOM      7  H4  UNL     1      46.517  -1.628  34.634  1.00  0.00     0.184 HD
ENDROOT
BRANCH   1   8
HETATM    8  N2  UNL     1      45.175   0.143  33.113  1.00  0.00    -0.023 N 
HETATM    9  C1  UNL     1      44.025  -0.652  32.711  1.00  0.00     0.686 C 
HETATM   10  N1  UNL     1      43.026  -0.708  33.489  1.00  0.00    -0.234 N 
HETATM   11  N5  UNL     1      44.048  -1.285  31.459  1.00  0.00    -0.226 N 
ATOM     12  H12 UNL     1      43.009  -0.247  34.398  1.00  0.00     0.174 HD
ATOM     13  H11 UNL     1      42.220  -1.265  33.206  1.00  0.00     0.174 HD
ATOM     14  H5  UNL     1      44.872  -1.104  30.886  1.00  0.00     0.177 HD
ATOM     15  H2  UNL     1      45.692   0.643  32.389  1.00  0.00     0.203 HD
BRANCH  11  16
HETATM   16  C15 UNL     1      43.064  -2.153  30.879  1.00  0.00     0.142 C 
BRANCH  16  17
HETATM   17  C16 UNL     1      42.893  -1.901  29.400  1.00  0.00     0.004 C 
HETATM   18  C17 UNL     1      44.169  -1.812  28.600  1.00  0.00     0.006 C 
HETATM   19  C18 UNL     1      44.022  -3.273  28.247  1.00  0.00     0.001 C 
HETATM   20  C19 UNL     1      42.571  -3.178  28.599  1.00  0.00     0.006 C 
ENDBRANCH  16  17
ENDBRANCH  11  16
ENDBRANCH   1   8
BRANCH   5  21
HETATM   21  C5  UNL     1      47.500  -0.837  37.278  1.00  0.00     0.005 C 
HETATM   22  C6  UNL     1      48.057   0.317  38.109  1.00  0.00     0.020 C 
HETATM   23  C7  UNL     1      49.122  -0.169  39.066  1.00  0.00    -0.013 C 
HETATM   24  C8  UNL     1      48.463  -1.100  40.028  1.00  0.00     0.009 C 
HETATM   25  C12 UNL     1      50.216  -0.786  38.243  1.00  0.00     0.009 C 
HETATM   26  C9  UNL     1      47.859  -2.242  39.229  1.00  0.00    -0.013 C 
HETATM   27  C10 UNL     1      49.005  -2.947  38.582  1.00  0.00     0.009 C 
HETATM   28  C14 UNL     1      46.806  -1.739  38.248  1.00  0.00     0.020 C 
HETATM   29  C11 UNL     1      49.687  -2.027  37.585  1.00  0.00    -0.013 C 
HETATM   30  C13 UNL     1      48.609  -1.609  36.600  1.00  0.00     0.020 C 
ENDBRANCH   5  21
TORSDOF 4
ENDMDL
MODEL 4
REMARK VINA RESULT: -6.840052436      1.203      1.339
REMARK  4 active torsions:
REMARK  status: ('A' for Active; 'I' for Inactive)
REMARK       I    between atoms: C1_4  and  N2_5 
REMARK       I    between atoms: C1_4  and  N5_24 
REMARK    1  A    between atoms: N2_5  and  C2_7 
REMARK    2  A    between atoms: C4_11  and  C5_12 
REMARK    3  A    between atoms: N5_24  and  C15_26 
REMARK    4  A    between atoms: C15_26  and  C16_27 
ROOT
HETATM    1  C2  UNL     1      45.533   0.312  34.264  1.00  0.00     0.697 A 
HETATM    2  N3  UNL     1      45.327   1.340  35.061  1.00  0.00    -0.199 N 
ATOM      3  H3  UNL     1      44.764   2.160  34.835  1.00  0.00     0.183 HD
HETATM    4  C3  UNL     1      45.980   1.136  36.226  1.00  0.00     0.132 A 
HETATM    5  C4  UNL     1      46.633  -0.091  36.167  1.00  0.00     0.051 A 
HETATM    6  N4  UNL     1      46.330  -0.572  34.944  1.00  0.00    -0.193 N 
ATOM      7  H4  UNL     1      46.650  -1.468  34.577  1.00  0.00     0.184 HD
ENDROOT
BRANCH   1   8
HETATM    8  N2  UNL     1      45.162   0.170  33.043  1.00  0.00    -0.023 N 
HETATM    9  C1  UNL     1      44.026  -0.641  32.634  1.00  0.00     0.686 C 
HETATM   10  N1  UNL     1      43.009  -0.683  33.389  1.00  0.00    -0.234 N 
HETATM   11  N5  UNL     1      44.082  -1.305  31.399  1.00  0.00    -0.226 N 
ATOM     12  H12 UNL     1      42.968  -0.200  34.286  1.00  0.00     0.174 HD
ATOM     13  H11 UNL     1      42.213  -1.252  33.102  1.00  0.00     0.174 HD
ATOM     14  H5  UNL     1      44.919  -1.134  30.841  1.00  0.00     0.177 HD
ATOM     15  H2  UNL     1      45.693   0.655  32.319  1.00  0.00     0.203 HD
BRANCH  11  16
HETATM   16  C15 UNL     1      43.117  -2.194  30.819  1.00  0.00     0.142 C 
BRANCH  16  17
HETATM   17  C16 UNL     1      42.916  -1.922  29.347  1.00  0.00     0.004 C 
HETATM   18  C17 UNL     1      44.177  -1.742  28.537  1.00  0.00     0.006 C 
HETATM   19  C18 UNL     1      44.113  -3.202  28.156  1.00  0.00     0.001 C 
HETATM   20  C19 UNL     1      42.662  -3.200  28.522  1.00  0.00     0.006 C 
ENDBRANCH  16  17
ENDBRANCH  11  16
ENDBRANCH   1   8
BRANCH   5  21
HETATM   21  C5  UNL     1      47.513  -0.597  37.237  1.00  0.00     0.005 C 
HETATM   22  C6  UNL     1      48.605  -1.434  36.575  1.00  0.00     0.020 C 
HETATM   23  C7  UNL     1      49.410  -2.192  37.606  1.00  0.00    -0.013 C 
HETATM   24  C8  UNL     1      50.110  -1.182  38.452  1.00  0.00     0.009 C 
HETATM   25  C12 UNL     1      48.457  -3.084  38.350  1.00  0.00     0.009 C 
HETATM   26  C9  UNL     1      49.052  -0.302  39.096  1.00  0.00    -0.013 C 
HETATM   27  C10 UNL     1      48.248  -1.199  39.979  1.00  0.00     0.009 C 
HETATM   28  C14 UNL     1      48.229   0.436  38.048  1.00  0.00     0.020 C 
HETATM   29  C11 UNL     1      47.511  -2.230  39.143  1.00  0.00    -0.013 C 
HETATM   30  C13 UNL     1      46.663  -1.440  38.161  1.00  0.00     0.020 C 
ENDBRANCH   5  21
TORSDOF 4
ENDMDL
MODEL 5
REMARK VINA RESULT: -6.737819167      2.177      8.635
REMARK  4 active torsions:
REMARK  status: ('A' for Active; 'I' for Inactive)
REMARK       I    between atoms: C1_4  and  N2_5 
REMARK       I    between atoms: C1_4  and  N5_24 
REMARK    1  A    between atoms: N2_5  and  C2_7 
REMARK    2  A    between atoms: C4_11  and  C5_12 
REMARK    3  A    between atoms: N5_24  and  C15_26 
REMARK    4  A    between atoms: C15_26  and  C16_27 
ROOT
HETATM    1  C2  UNL     1      44.306   0.262  33.443  1.00  0.00     0.697 A 
HETATM    2  N3  UNL     1      43.014   0.406  33.658  1.00  0.00    -0.199 N 
ATOM      3  H3  UNL     1      42.594   1.048  34.330  1.00  0.00     0.183 HD
HETATM    4  C3  UNL     1      42.334  -0.432  32.844  1.00  0.00     0.132 A 
HETATM    5  C4  UNL     1      43.244  -1.143  32.068  1.00  0.00     0.051 A 
HETATM    6  N4  UNL     1      44.449  -0.684  32.463  1.00  0.00    -0.193 N 
ATOM      7  H4  UNL     1      45.342  -0.999  32.084  1.00  0.00     0.184 HD
ENDROOT
BRANCH   1   8
HETATM    8  N2  UNL     1      45.279   0.810  34.078  1.00  0.00    -0.023 N 
HETATM    9  C1  UNL     1      45.761   0.347  35.370  1.00  0.00     0.686 C 
HETATM   10  N1  UNL     1      45.751  -0.897  35.609  1.00  0.00    -0.234 N 
HETATM   11  N5  UNL     1      46.260   1.291  36.281  1.00  0.00    -0.226 N 
ATOM     12  H12 UNL     1      45.389  -1.583  34.948  1.00  0.00     0.174 HD
ATOM     13  H11 UNL     1      46.090  -1.222  36.515  1.00  0.00     0.174 HD
ATOM     14  H5  UNL     1      46.291   2.255  35.948  1.00  0.00     0.177 HD
ATOM     15  H2  UNL     1      45.739   1.615  33.653  1.00  0.00     0.203 HD
BRANCH  11  16
HETATM   16  C15 UNL     1      46.733   1.078  37.618  1.00  0.00     0.142 C 
BRANCH  16  17
HETATM   17  C16 UNL     1      45.612   1.146  38.628  1.00  0.00     0.004 C 
HETATM   18  C17 UNL     1      45.916   1.917  39.890  1.00  0.00     0.006 C 
HETATM   19  C18 UNL     1      45.274   3.136  39.272  1.00  0.00     0.001 C 
HETATM   20  C19 UNL     1      44.570   2.235  38.307  1.00  0.00     0.006 C 
ENDBRANCH  16  17
ENDBRANCH  11  16
ENDBRANCH   1   8
BRANCH   5  21
HETATM   21  C5  UNL     1      42.852  -2.209  31.127  1.00  0.00     0.005 C 
HETATM   22  C6  UNL     1      42.766  -3.512  31.920  1.00  0.00     0.020 C 
HETATM   23  C7  UNL     1      42.609  -4.699  30.998  1.00  0.00    -0.013 C 
HETATM   24  C8  UNL     1      41.301  -4.547  30.297  1.00  0.00     0.009 C 
HETATM   25  C12 UNL     1      43.809  -4.725  30.094  1.00  0.00     0.009 C 
HETATM   26  C9  UNL     1      41.336  -3.237  29.528  1.00  0.00    -0.013 C 
HETATM   27  C10 UNL     1      42.417  -3.383  28.509  1.00  0.00     0.009 C 
HETATM   28  C14 UNL     1      41.521  -2.048  30.464  1.00  0.00     0.020 C 
HETATM   29  C11 UNL     1      43.765  -3.524  29.195  1.00  0.00    -0.013 C 
HETATM   30  C13 UNL     1      43.923  -2.287  30.061  1.00  0.00     0.020 C 
ENDBRANCH   5  21
TORSDOF 4
ENDMDL
