MODEL 1
REMARK VINA RESULT: -6.308970128      0.000      0.000
REMARK  7 active torsions:
REMARK  status: ('A' for Active; 'I' for Inactive)
REMARK    1  A    between atoms: C2_2  and  C3_3 
REMARK    2  A    between atoms: C3_3  and  C4_4 
REMARK    3  A    between atoms: C5_9  and  N3_10 
REMARK    4  A    between atoms: N3_10  and  C6_12 
REMARK    5  A    between atoms: C8_17  and  N5_18 
REMARK       I    between atoms: N5_18  and  C9_20 
REMARK       I    between atoms: C9_20  and  N6_22 
REMARK    6  A    between atoms: N6_22  and  C10_24 
REMARK    7  A    between atoms: C14_28  and  C15_29 
ROOT
HETATM    1  C4  UNL     1      39.914  -3.020  30.136  1.00  0.00     0.034 A 
HETATM    2  N1  UNL     1      40.670  -3.762  29.271  1.00  0.00    -0.303 N 
ATOM      3  H1  UNL     1      40.246  -4.579  28.830  1.00  0.00     0.186 HD
HETATM    4  N2  UNL     1      41.912  -3.470  28.985  1.00  0.00    -0.283 N 
ATOM      5  H2  UNL     1      42.418  -4.067  28.331  1.00  0.00     0.188 HD
HETATM    6  C5  UNL     1      42.553  -2.402  29.528  1.00  0.00     0.149 A 
HETATM    7  C8  UNL     1      41.872  -1.610  30.402  1.00  0.00     0.090 A 
HETATM    8  C14 UNL     1      40.542  -1.934  30.699  1.00  0.00    -0.004 A 
ENDROOT
BRANCH   7   9
HETATM    9  N5  UNL     1      42.414  -0.593  30.949  1.00  0.00    -0.305 N 
HETATM   10  C9  UNL     1      43.180  -0.481  32.090  1.00  0.00     0.321 C 
HETATM   11  O1  UNL     1      44.446  -0.635  32.023  1.00  0.00    -0.247 OA
HETATM   12  N6  UNL     1      42.679  -0.196  33.395  1.00  0.00    -0.335 N 
ATOM     13  H6  UNL     1      41.671  -0.070  33.493  1.00  0.00     0.165 HD
ATOM     14  H5  UNL     1      42.253   0.288  30.459  1.00  0.00     0.171 HD
BRANCH  12  15
HETATM   15  C10 UNL     1      43.471  -0.075  34.571  1.00  0.00     0.023 C 
HETATM   16  C11 UNL     1      42.592  -0.249  35.810  1.00  0.00     0.037 C 
HETATM   17  C12 UNL     1      44.593  -1.066  34.697  1.00  0.00     0.037 C 
HETATM   18  C13 UNL     1      44.006   1.361  34.598  1.00  0.00     0.037 C 
ENDBRANCH  12  15
ENDBRANCH   7   9
BRANCH   6  19
HETATM   19  N3  UNL     1      43.784  -2.147  29.218  1.00  0.00    -0.330 N 
ATOM     20  H3  UNL     1      44.516  -2.401  29.882  1.00  0.00     0.168 HD
BRANCH  19  21
HETATM   21  C6  UNL     1      44.160  -1.533  28.000  1.00  0.00     0.072 C 
HETATM   22  C7  UNL     1      44.565  -2.327  26.799  1.00  0.00     0.088 C 
HETATM   23  N4  UNL     1      44.165  -0.250  27.887  1.00  0.00    -0.389 N 
ATOM     24  H42 UNL     1      43.888   0.292  28.707  1.00  0.00     0.157 HD
ATOM     25  H41 UNL     1      44.436   0.193  27.010  1.00  0.00     0.157 HD
ENDBRANCH  19  21
ENDBRANCH   6  19
BRANCH   8  26
HETATM   26  C15 UNL     1      39.824  -1.095  31.669  1.00  0.00     0.039 C 
HETATM   27  C16 UNL     1      39.271   0.136  30.978  1.00  0.00     0.010 C 
ENDBRANCH   8  26
BRANCH   1  28
HETATM   28  C3  UNL     1      38.501  -3.404  30.380  1.00  0.00     0.059 C 
BRANCH  28  29
HETATM   29  C2  UNL     1      37.595  -3.272  29.211  1.00  0.00     0.002 C 
HETATM   30  C1  UNL     1      36.654  -2.069  29.355  1.00  0.00     0.005 C 
ENDBRANCH  28  29
ENDBRANCH   1  28
TORSDOF 7
ENDMDL
MODEL 2
REMARK VINA RESULT: -6.278582681      1.134      1.483
REMARK  7 active torsions:
REMARK  status: ('A' for Active; 'I' for Inactive)
REMARK    1  A    between atoms: C2_2  and  C3_3 
REMARK    2  A    between atoms: C3_3  and  C4_4 
REMARK    3  A    between atoms: C5_9  and  N3_10 
REMARK    4  A    between atoms: N3_10  and  C6_12 
REMARK    5  A    between atoms: C8_17  and  N5_18 
REMARK       I    between atoms: N5_18  and  C9_20 
REMARK       I    between atoms: C9_20  and  N6_22 
REMARK    6  A    between atoms: N6_22  and  C10_24 
REMARK    7  A    between atoms: C14_28  and  C15_29 
ROOT
HETATM    1  C4  UNL     1      39.110  -2.398  30.067  1.00  0.00     0.034 A 
HETATM    2  N1  UNL     1      39.543  -3.577  29.525  1.00  0.00    -0.303 N 
ATOM      3  H1  UNL     1      38.852  -4.294  29.303  1.00  0.00     0.186 HD
HETATM    4  N2  UNL     1      40.803  -3.824  29.280  1.00  0.00    -0.283 N 
ATOM      5  H2  UNL     1      41.057  -4.724  28.875  1.00  0.00     0.188 HD
HETATM    6  C5  UNL     1      41.787  -2.924  29.545  1.00  0.00     0.149 A 
HETATM    7  C8  UNL     1      41.442  -1.723  30.088  1.00  0.00     0.090 A 
HETATM    8  C14 UNL     1      40.088  -1.472  30.345  1.00  0.00    -0.004 A 
ENDROOT
BRANCH   7   9
HETATM    9  N5  UNL     1      42.315  -0.835  30.362  1.00  0.00    -0.305 N 
HETATM   10  C9  UNL     1      43.211  -0.741  31.407  1.00  0.00     0.321 C 
HETATM   11  O1  UNL     1      44.361  -1.287  31.308  1.00  0.00    -0.247 OA
HETATM   12  N6  UNL     1      42.971  -0.064  32.639  1.00  0.00    -0.335 N 
ATOM     13  H6  UNL     1      42.062   0.383  32.761  1.00  0.00     0.165 HD
ATOM     14  H5  UNL     1      42.358  -0.062  29.697  1.00  0.00     0.171 HD
BRANCH  12  15
HETATM   15  C10 UNL     1      43.899   0.038  33.714  1.00  0.00     0.023 C 
HETATM   16  C11 UNL     1      44.032  -1.315  34.415  1.00  0.00     0.037 C 
HETATM   17  C12 UNL     1      45.288   0.461  33.329  1.00  0.00     0.037 C 
HETATM   18  C13 UNL     1      43.294   1.012  34.731  1.00  0.00     0.037 C 
ENDBRANCH  12  15
ENDBRANCH   7   9
BRANCH   6  19
HETATM   19  N3  UNL     1      43.024  -3.208  29.287  1.00  0.00    -0.330 N 
ATOM     20  H3  UNL     1      43.646  -3.429  30.064  1.00  0.00     0.168 HD
BRANCH  19  21
HETATM   21  C6  UNL     1      43.552  -3.224  27.974  1.00  0.00     0.072 C 
HETATM   22  C7  UNL     1      44.126  -2.001  27.331  1.00  0.00     0.088 C 
HETATM   23  N4  UNL     1      43.553  -4.309  27.281  1.00  0.00    -0.389 N 
ATOM     24  H42 UNL     1      43.161  -5.144  27.719  1.00  0.00     0.157 HD
ATOM     25  H41 UNL     1      43.933  -4.321  26.334  1.00  0.00     0.157 HD
ENDBRANCH  19  21
ENDBRANCH   6  19
BRANCH   8  26
HETATM   26  C15 UNL     1      39.726  -0.189  30.962  1.00  0.00     0.039 C 
HETATM   27  C16 UNL     1      39.536  -0.368  32.456  1.00  0.00     0.010 C 
ENDBRANCH   8  26
BRANCH   1  28
HETATM   28  C3  UNL     1      37.657  -2.188  30.283  1.00  0.00     0.059 C 
BRANCH  28  29
HETATM   29  C2  UNL     1      36.767  -2.786  29.255  1.00  0.00     0.002 C 
HETATM   30  C1  UNL     1      35.927  -1.719  28.541  1.00  0.00     0.005 C 
ENDBRANCH  28  29
ENDBRANCH   1  28
TORSDOF 7
ENDMDL
MODEL 3
REMARK VINA RESULT: -5.923472760      2.729      3.508
REMARK  7 active torsions:
REMARK  status: ('A' for Active; 'I' for Inactive)
REMARK    1  A    between atoms: C2_2  and  C3_3 
REMARK    2  A    between atoms: C3_3  and  C4_4 
REMARK    3  A    between atoms: C5_9  and  N3_10 
REMARK    4  A    between atoms: N3_10  and  C6_12 
REMARK    5  A    between atoms: C8_17  and  N5_18 
REMARK       I    between atoms: N5_18  and  C9_20 
REMARK       I    between atoms: C9_20  and  N6_22 
REMARK    6  A    between atoms: N6_22  and  C10_24 
REMARK    7  A    between atoms: C14_28  and  C15_29 
ROOT
HETATM    1  C4  UNL     1      42.076  -5.665  30.057  1.00  0.00     0.034 A 
HETATM    2  N1  UNL     1      42.570  -5.366  28.818  1.00  0.00    -0.303 N 
ATOM      3  H1  UNL     1      42.816  -6.134  28.192  1.00  0.00     0.186 HD
HETATM    4  N2  UNL     1      42.740  -4.139  28.399  1.00  0.00    -0.283 N 
ATOM      5  H2  UNL     1      43.113  -3.987  27.463  1.00  0.00     0.188 HD
HETATM    6  C5  UNL     1      42.438  -3.060  29.167  1.00  0.00     0.149 A 
HETATM    7  C8  UNL     1      41.942  -3.268  30.418  1.00  0.00     0.090 A 
HETATM    8  C14 UNL     1      41.765  -4.588  30.853  1.00  0.00    -0.004 A 
ENDROOT
BRANCH   7   9
HETATM    9  N5  UNL     1      41.639  -2.301  31.191  1.00  0.00    -0.305 N 
HETATM   10  C9  UNL     1      42.437  -1.401  31.868  1.00  0.00     0.321 C 
HETATM   11  O1  UNL     1      42.803  -0.321  31.295  1.00  0.00    -0.247 OA
HETATM   12  N6  UNL     1      42.912  -1.563  33.203  1.00  0.00    -0.335 N 
ATOM     13  H6  UNL     1      42.645  -2.416  33.696  1.00  0.00     0.165 HD
ATOM     14  H5  UNL     1      40.637  -2.169  31.334  1.00  0.00     0.171 HD
BRANCH  12  15
HETATM   15  C10 UNL     1      43.730  -0.631  33.902  1.00  0.00     0.023 C 
HETATM   16  C11 UNL     1      44.088  -1.188  35.281  1.00  0.00     0.037 C 
HETATM   17  C12 UNL     1      45.026  -0.280  33.230  1.00  0.00     0.037 C 
HETATM   18  C13 UNL     1      42.877   0.621  34.132  1.00  0.00     0.037 C 
ENDBRANCH  12  15
ENDBRANCH   7   9
BRANCH   6  19
HETATM   19  N3  UNL     1      42.621  -1.860  28.715  1.00  0.00    -0.330 N 
ATOM     20  H3  UNL     1      41.830  -1.216  28.706  1.00  0.00     0.168 HD
BRANCH  19  21
HETATM   21  C6  UNL     1      43.870  -1.402  28.233  1.00  0.00     0.072 C 
HETATM   22  C7  UNL     1      44.148  -1.234  26.773  1.00  0.00     0.088 C 
HETATM   23  N4  UNL     1      44.823  -1.112  29.051  1.00  0.00    -0.389 N 
ATOM     24  H42 UNL     1      44.633  -1.226  30.047  1.00  0.00     0.157 HD
ATOM     25  H41 UNL     1      45.723  -0.782  28.704  1.00  0.00     0.157 HD
ENDBRANCH  19  21
ENDBRANCH   6  19
BRANCH   8  26
HETATM   26  C15 UNL     1      41.261  -4.807  32.216  1.00  0.00     0.039 C 
HETATM   27  C16 UNL     1      42.421  -5.044  33.164  1.00  0.00     0.010 C 
ENDBRANCH   8  26
BRANCH   1  28
HETATM   28  C3  UNL     1      41.885  -7.087  30.440  1.00  0.00     0.059 C 
BRANCH  28  29
HETATM   29  C2  UNL     1      43.123  -7.818  30.811  1.00  0.00     0.002 C 
HETATM   30  C1  UNL     1      42.958  -8.580  32.133  1.00  0.00     0.005 C 
ENDBRANCH  28  29
ENDBRANCH   1  28
TORSDOF 7
ENDMDL
MODEL 4
REMARK VINA RESULT: -5.843668635      3.073      4.820
REMARK  7 active torsions:
REMARK  status: ('A' for Active; 'I' for Inactive)
REMARK    1  A    between atoms: C2_2  and  C3_3 
REMARK    2  A    between atoms: C3_3  and  C4_4 
REMARK    3  A    between atoms: C5_9  and  N3_10 
REMARK    4  A    between atoms: N3_10  and  C6_12 
REMARK    5  A    between atoms: C8_17  and  N5_18 
REMARK       I    between atoms: N5_18  and  C9_20 
REMARK       I    between atoms: C9_20  and  N6_22 
REMARK    6  A    between atoms: N6_22  and  C10_24 
REMARK    7  A    between atoms: C14_28  and  C15_29 
ROOT
HETATM    1  C4  UNL     1      40.593  -1.031  30.384  1.00  0.00     0.034 A 
HETATM    2  N1  UNL     1      41.783  -0.458  30.027  1.00  0.00    -0.303 N 
ATOM      3  H1  UNL     1      41.889   0.552  30.129  1.00  0.00     0.186 HD
HETATM    4  N2  UNL     1      42.790  -1.149  29.559  1.00  0.00    -0.283 N 
ATOM      5  H2  UNL     1      43.649  -0.658  29.312  1.00  0.00     0.188 HD
HETATM    6  C5  UNL     1      42.734  -2.496  29.391  1.00  0.00     0.149 A 
HETATM    7  C8  UNL     1      41.583  -3.146  29.721  1.00  0.00     0.090 A 
HETATM    8  C14 UNL     1      40.512  -2.394  30.221  1.00  0.00    -0.004 A 
ENDROOT
BRANCH   7   9
HETATM    9  N5  UNL     1      41.462  -4.408  29.587  1.00  0.00    -0.305 N 
HETATM   10  C9  UNL     1      41.704  -5.438  30.473  1.00  0.00     0.321 C 
HETATM   11  O1  UNL     1      40.781  -5.823  31.267  1.00  0.00    -0.247 OA
HETATM   12  N6  UNL     1      42.935  -6.148  30.594  1.00  0.00    -0.335 N 
ATOM     13  H6  UNL     1      43.700  -5.869  29.980  1.00  0.00     0.165 HD
ATOM     14  H5  UNL     1      41.130  -4.708  28.670  1.00  0.00     0.171 HD
BRANCH  12  15
HETATM   15  C10 UNL     1      43.182  -7.215  31.504  1.00  0.00     0.023 C 
HETATM   16  C11 UNL     1      42.854  -6.768  32.929  1.00  0.00     0.037 C 
HETATM   17  C12 UNL     1      42.394  -8.469  31.254  1.00  0.00     0.037 C 
HETATM   18  C13 UNL     1      44.688  -7.498  31.456  1.00  0.00     0.037 C 
ENDBRANCH  12  15
ENDBRANCH   7   9
BRANCH   6  19
HETATM   19  N3  UNL     1      43.754  -3.143  28.925  1.00  0.00    -0.330 N 
ATOM     20  H3  UNL     1      44.392  -3.587  29.585  1.00  0.00     0.168 HD
BRANCH  19  21
HETATM   21  C6  UNL     1      44.023  -3.263  27.541  1.00  0.00     0.072 C 
HETATM   22  C7  UNL     1      44.667  -2.163  26.757  1.00  0.00     0.088 C 
HETATM   23  N4  UNL     1      43.716  -4.339  26.903  1.00  0.00    -0.389 N 
ATOM     24  H42 UNL     1      43.277  -5.089  27.438  1.00  0.00     0.157 HD
ATOM     25  H41 UNL     1      43.909  -4.425  25.906  1.00  0.00     0.157 HD
ENDBRANCH  19  21
ENDBRANCH   6  19
BRANCH   8  26
HETATM   26  C15 UNL     1      39.262  -3.096  30.543  1.00  0.00     0.039 C 
HETATM   27  C16 UNL     1      38.356  -3.123  29.327  1.00  0.00     0.010 C 
ENDBRANCH   8  26
BRANCH   1  28
HETATM   28  C3  UNL     1      39.513  -0.176  30.935  1.00  0.00     0.059 C 
BRANCH  28  29
HETATM   29  C2  UNL     1      39.626   0.141  32.382  1.00  0.00     0.002 C 
HETATM   30  C1  UNL     1      38.448   0.993  32.872  1.00  0.00     0.005 C 
ENDBRANCH  28  29
ENDBRANCH   1  28
TORSDOF 7
ENDMDL
MODEL 5
REMARK VINA RESULT: -5.769792547      3.038      5.002
REMARK  7 active torsions:
REMARK  status: ('A' for Active; 'I' for Inactive)
REMARK    1  A    between atoms: C2_2  and  C3_3 
REMARK    2  A    between atoms: C3_3  and  C4_4 
REMARK    3  A    between atoms: C5_9  and  N3_10 
REMARK    4  A    between atoms: N3_10  and  C6_12 
REMARK    5  A    between atoms: C8_17  and  N5_18 
REMARK       I    between atoms: N5_18  and  C9_20 
REMARK       I    between atoms: C9_20  and  N6_22 
REMARK    6  A    between atoms: N6_22  and  C10_24 
REMARK    7  A    between atoms: C14_28  and  C15_29 
ROOT
HETATM    1  C4  UNL     1      41.518  -0.989  31.299  1.00  0.00     0.034 A 
HETATM    2  N1  UNL     1      41.970  -0.500  30.105  1.00  0.00    -0.303 N 
ATOM      3  H1  UNL     1      41.626   0.407  29.788  1.00  0.00     0.186 HD
HETATM    4  N2  UNL     1      42.823  -1.144  29.352  1.00  0.00    -0.283 N 
ATOM      5  H2  UNL     1      43.119  -0.721  28.472  1.00  0.00     0.188 HD
HETATM    6  C5  UNL     1      43.329  -2.356  29.698  1.00  0.00     0.149 A 
HETATM    7  C8  UNL     1      42.930  -2.918  30.873  1.00  0.00     0.090 A 
HETATM    8  C14 UNL     1      42.016  -2.216  31.670  1.00  0.00    -0.004 A 
ENDROOT
BRANCH   7   9
HETATM    9  N5  UNL     1      43.365  -4.053  31.258  1.00  0.00    -0.305 N 
HETATM   10  C9  UNL     1      42.891  -5.328  31.026  1.00  0.00     0.321 C 
HETATM   11  O1  UNL     1      43.270  -5.967  29.988  1.00  0.00    -0.247 OA
HETATM   12  N6  UNL     1      41.982  -6.035  31.868  1.00  0.00    -0.335 N 
ATOM     13  H6  UNL     1      41.651  -5.557  32.707  1.00  0.00     0.165 HD
ATOM     14  H5  UNL     1      44.205  -4.012  31.835  1.00  0.00     0.171 HD
BRANCH  12  15
HETATM   15  C10 UNL     1      41.499  -7.353  31.631  1.00  0.00     0.023 C 
HETATM   16  C11 UNL     1      40.456  -7.331  30.513  1.00  0.00     0.037 C 
HETATM   17  C12 UNL     1      42.540  -8.358  31.229  1.00  0.00     0.037 C 
HETATM   18  C13 UNL     1      40.778  -7.796  32.909  1.00  0.00     0.037 C 
ENDBRANCH  12  15
ENDBRANCH   7   9
BRANCH   6  19
HETATM   19  N3  UNL     1      44.173  -2.962  28.924  1.00  0.00    -0.330 N 
ATOM     20  H3  UNL     1      45.124  -3.110  29.261  1.00  0.00     0.168 HD
BRANCH  19  21
HETATM   21  C6  UNL     1      43.834  -3.427  27.631  1.00  0.00     0.072 C 
HETATM   22  C7  UNL     1      44.327  -2.756  26.389  1.00  0.00     0.088 C 
HETATM   23  N4  UNL     1      43.077  -4.458  27.483  1.00  0.00    -0.389 N 
ATOM     24  H42 UNL     1      42.741  -4.917  28.331  1.00  0.00     0.157 HD
ATOM     25  H41 UNL     1      42.833  -4.794  26.551  1.00  0.00     0.157 HD
ENDBRANCH  19  21
ENDBRANCH   6  19
BRANCH   8  26
HETATM   26  C15 UNL     1      41.562  -2.842  32.920  1.00  0.00     0.039 C 
HETATM   27  C16 UNL     1      42.502  -2.475  34.052  1.00  0.00     0.010 C 
ENDBRANCH   8  26
BRANCH   1  28
HETATM   28  C3  UNL     1      40.573  -0.177  32.106  1.00  0.00     0.059 C 
BRANCH  28  29
HETATM   29  C2  UNL     1      39.340   0.254  31.399  1.00  0.00     0.002 C 
HETATM   30  C1  UNL     1      38.379   0.999  32.336  1.00  0.00     0.005 C 
ENDBRANCH  28  29
ENDBRANCH   1  28
TORSDOF 7
ENDMDL
