MODEL 1
REMARK VINA RESULT: -6.592968681      0.000      0.000
REMARK  4 active torsions:
REMARK  status: ('A' for Active; 'I' for Inactive)
REMARK    1  A    between atoms: C2_2  and  C5_5 
REMARK    2  A    between atoms: C5_5  and  C6_6 
REMARK    3  A    between atoms: C6_6  and  N1_7 
REMARK       I    between atoms: N1_7  and  C7_9 
REMARK       I    between atoms: C7_9  and  N2_11 
REMARK       I    between atoms: C8_13  and  N4_15 
REMARK    4  A    between atoms: N4_15  and  C9_17 
ROOT
HETATM    1  N1  UNL     1      46.807  -0.322  35.026  1.00  0.00    -0.343 N 
ATOM      2  H1  UNL     1      47.360  -0.569  34.205  1.00  0.00     0.164 HD
HETATM    3  C7  UNL     1      45.406  -0.503  35.030  1.00  0.00     0.322 C 
HETATM    4  O1  UNL     1      44.765  -0.183  36.067  1.00  0.00    -0.247 OA
HETATM    5  N2  UNL     1      44.780  -1.033  33.878  1.00  0.00    -0.283 N 
ATOM      6  H2  UNL     1      44.796  -2.038  33.702  1.00  0.00     0.173 HD
HETATM    7  C8  UNL     1      44.194  -0.245  33.057  1.00  0.00     0.192 C 
HETATM    8  N3  UNL     1      44.194   1.144  33.334  1.00  0.00    -0.063 NA
HETATM    9  N4  UNL     1      43.553  -0.740  31.886  1.00  0.00    -0.359 N 
ATOM     10  H4  UNL     1      44.067  -0.808  31.008  1.00  0.00     0.162 HD
ENDROOT
BRANCH   9  11
HETATM   11  C9  UNL     1      42.145  -1.150  31.951  1.00  0.00     0.088 C 
HETATM   12  C10 UNL     1      42.114  -2.566  32.421  1.00  0.00     0.030 C 
HETATM   13  C11 UNL     1      40.755  -3.195  32.351  1.00  0.00    -0.012 C 
HETATM   14  C12 UNL     1      39.634  -2.241  32.577  1.00  0.00     0.009 C 
HETATM   15  C16 UNL     1      40.654  -3.979  31.076  1.00  0.00     0.009 C 
HETATM   16  C13 UNL     1      39.138  -1.544  31.362  1.00  0.00    -0.013 C 
HETATM   17  C14 UNL     1      39.019  -2.435  30.150  1.00  0.00     0.009 C 
HETATM   18  C19 UNL     1      40.056  -0.392  30.962  1.00  0.00     0.011 C 
HETATM   19  C15 UNL     1      40.376  -3.057  29.918  1.00  0.00    -0.013 C 
HETATM   20  C17 UNL     1      41.460  -2.057  29.717  1.00  0.00     0.011 C 
HETATM   21  C18 UNL     1      41.439  -0.904  30.660  1.00  0.00     0.009 C 
ENDBRANCH   9  11
BRANCH   1  22
HETATM   22  C6  UNL     1      47.443   0.220  36.208  1.00  0.00     0.125 C 
BRANCH  22  23
HETATM   23  C5  UNL     1      48.917  -0.091  36.129  1.00  0.00     0.028 C 
BRANCH  23  24
HETATM   24  C2  UNL     1      49.387  -0.883  37.332  1.00  0.00    -0.050 C 
HETATM   25  C1  UNL     1      50.839  -1.260  37.090  1.00  0.00     0.014 C 
HETATM   26  C3  UNL     1      48.617  -2.156  37.512  1.00  0.00     0.014 C 
HETATM   27  C4  UNL     1      49.220  -0.047  38.567  1.00  0.00     0.014 C 
ENDBRANCH  23  24
ENDBRANCH  22  23
ENDBRANCH   1  22
TORSDOF 4
ENDMDL
MODEL 2
REMARK VINA RESULT: -6.507837579      0.644      1.102
REMARK  4 active torsions:
REMARK  status: ('A' for Active; 'I' for Inactive)
REMARK    1  A    between atoms: C2_2  and  C5_5 
REMARK    2  A    between atoms: C5_5  and  C6_6 
REMARK    3  A    between atoms: C6_6  and  N1_7 
REMARK       I    between atoms: N1_7  and  C7_9 
REMARK       I    between atoms: C7_9  and  N2_11 
REMARK       I    between atoms: C8_13  and  N4_15 
REMARK    4  A    between atoms: N4_15  and  C9_17 
ROOT
HETATM    1  N1  UNL     1      46.576  -0.637  34.908  1.00  0.00    -0.343 N 
ATOM      2  H1  UNL     1      47.036  -0.976  34.063  1.00  0.00     0.164 HD
HETATM    3  C7  UNL     1      45.167  -0.596  34.992  1.00  0.00     0.322 C 
HETATM    4  O1  UNL     1      44.643  -0.170  36.057  1.00  0.00    -0.247 OA
HETATM    5  N2  UNL     1      44.400  -1.033  33.886  1.00  0.00    -0.283 N 
ATOM      6  H2  UNL     1      44.249  -2.029  33.728  1.00  0.00     0.173 HD
HETATM    7  C8  UNL     1      43.898  -0.171  33.084  1.00  0.00     0.192 C 
HETATM    8  N3  UNL     1      44.131   1.204  33.336  1.00  0.00    -0.063 NA
HETATM    9  N4  UNL     1      43.122  -0.570  31.960  1.00  0.00    -0.359 N 
ATOM     10  H4  UNL     1      43.568  -0.726  31.057  1.00  0.00     0.162 HD
ENDROOT
BRANCH   9  11
HETATM   11  C9  UNL     1      41.674  -0.754  32.110  1.00  0.00     0.088 C 
HETATM   12  C10 UNL     1      41.457  -2.077  32.766  1.00  0.00     0.030 C 
HETATM   13  C11 UNL     1      40.019  -2.500  32.811  1.00  0.00    -0.012 C 
HETATM   14  C12 UNL     1      39.059  -1.368  32.930  1.00  0.00     0.009 C 
HETATM   15  C16 UNL     1      39.754  -3.419  31.654  1.00  0.00     0.009 C 
HETATM   16  C13 UNL     1      38.619  -0.768  31.645  1.00  0.00    -0.013 C 
HETATM   17  C14 UNL     1      38.322  -1.781  30.566  1.00  0.00     0.009 C 
HETATM   18  C19 UNL     1      39.677   0.173  31.074  1.00  0.00     0.011 C 
HETATM   19  C15 UNL     1      39.565  -2.623  30.390  1.00  0.00    -0.013 C 
HETATM   20  C17 UNL     1      40.773  -1.830  30.033  1.00  0.00     0.011 C 
HETATM   21  C18 UNL     1      40.958  -0.574  30.814  1.00  0.00     0.009 C 
ENDBRANCH   9  11
BRANCH   1  22
HETATM   22  C6  UNL     1      47.355  -0.191  36.043  1.00  0.00     0.125 C 
BRANCH  22  23
HETATM   23  C5  UNL     1      48.728  -0.804  35.937  1.00  0.00     0.028 C 
BRANCH  23  24
HETATM   24  C2  UNL     1      49.309  -1.114  37.301  1.00  0.00    -0.050 C 
HETATM   25  C1  UNL     1      49.049   0.089  38.192  1.00  0.00     0.014 C 
HETATM   26  C3  UNL     1      50.792  -1.325  37.255  1.00  0.00     0.014 C 
HETATM   27  C4  UNL     1      48.668  -2.362  37.837  1.00  0.00     0.014 C 
ENDBRANCH  23  24
ENDBRANCH  22  23
ENDBRANCH   1  22
TORSDOF 4
ENDMDL
MODEL 3
REMARK VINA RESULT: -6.493815983      0.890      1.345
REMARK  4 active torsions:
REMARK  status: ('A' for Active; 'I' for Inactive)
REMARK    1  A    between atoms: C2_2  and  C5_5 
REMARK    2  A    between atoms: C5_5  and  C6_6 
REMARK    3  A    between atoms: C6_6  and  N1_7 
REMARK       I    between atoms: N1_7  and  C7_9 
REMARK       I    between atoms: C7_9  and  N2_11 
REMARK       I    between atoms: C8_13  and  N4_15 
REMARK    4  A    between atoms: N4_15  and  C9_17 
ROOT
HETATM    1  N1  UNL     1      47.036  -0.021  35.358  1.00  0.00    -0.343 N 
ATOM      2  H1  UNL     1      47.691  -0.132  34.585  1.00  0.00     0.164 HD
HETATM    3  C7  UNL     1      45.687  -0.417  35.221  1.00  0.00     0.322 C 
HETATM    4  O1  UNL     1      44.914  -0.259  36.204  1.00  0.00    -0.247 OA
HETATM    5  N2  UNL     1      45.257  -0.972  33.993  1.00  0.00    -0.283 N 
ATOM      6  H2  UNL     1      45.449  -1.951  33.778  1.00  0.00     0.173 HD
HETATM    7  C8  UNL     1      44.627  -0.240  33.153  1.00  0.00     0.192 C 
HETATM    8  N3  UNL     1      44.381   1.115  33.487  1.00  0.00    -0.063 NA
HETATM    9  N4  UNL     1      44.179  -0.761  31.907  1.00  0.00    -0.359 N 
ATOM     10  H4  UNL     1      44.773  -0.699  31.080  1.00  0.00     0.162 HD
ENDROOT
BRANCH   9  11
HETATM   11  C9  UNL     1      42.855  -1.389  31.820  1.00  0.00     0.088 C 
HETATM   12  C10 UNL     1      43.032  -2.846  32.088  1.00  0.00     0.030 C 
HETATM   13  C11 UNL     1      41.797  -3.660  31.841  1.00  0.00    -0.012 C 
HETATM   14  C12 UNL     1      40.528  -2.932  32.119  1.00  0.00     0.009 C 
HETATM   15  C16 UNL     1      41.883  -4.255  30.466  1.00  0.00     0.009 C 
HETATM   16  C13 UNL     1      39.980  -2.150  30.981  1.00  0.00    -0.013 C 
HETATM   17  C14 UNL     1      40.062  -2.862  29.653  1.00  0.00     0.009 C 
HETATM   18  C19 UNL     1      40.717  -0.824  30.805  1.00  0.00     0.011 C 
HETATM   19  C15 UNL     1      41.511  -3.227  29.430  1.00  0.00    -0.013 C 
HETATM   20  C17 UNL     1      42.427  -2.054  29.441  1.00  0.00     0.011 C 
HETATM   21  C18 UNL     1      42.177  -1.068  30.530  1.00  0.00     0.009 C 
ENDBRANCH   9  11
BRANCH   1  22
HETATM   22  C6  UNL     1      47.470   0.546  36.617  1.00  0.00     0.125 C 
BRANCH  22  23
HETATM   23  C5  UNL     1      48.844   0.003  36.924  1.00  0.00     0.028 C 
BRANCH  23  24
HETATM   24  C2  UNL     1      48.855  -0.794  38.212  1.00  0.00    -0.050 C 
HETATM   25  C1  UNL     1      47.753  -0.242  39.100  1.00  0.00     0.014 C 
HETATM   26  C3  UNL     1      50.146  -0.651  38.960  1.00  0.00     0.014 C 
HETATM   27  C4  UNL     1      48.648  -2.246  37.893  1.00  0.00     0.014 C 
ENDBRANCH  23  24
ENDBRANCH  22  23
ENDBRANCH   1  22
TORSDOF 4
ENDMDL
MODEL 4
REMARK VINA RESULT: -6.489931116      2.599      3.772
REMARK  4 active torsions:
REMARK  status: ('A' for Active; 'I' for Inactive)
REMARK    1  A    between atoms: C2_2  and  C5_5 
REMARK    2  A    between atoms: C5_5  and  C6_6 
REMARK    3  A    between atoms: C6_6  and  N1_7 
REMARK       I    between atoms: N1_7  and  C7_9 
REMARK       I    between atoms: C7_9  and  N2_11 
REMARK       I    between atoms: C8_13  and  N4_15 
REMARK    4  A    between atoms: N4_15  and  C9_17 
ROOT
HETATM    1  N1  UNL     1      45.748   1.137  35.545  1.00  0.00    -0.343 N 
ATOM      2  H1  UNL     1      46.429   1.423  34.841  1.00  0.00     0.164 HD
HETATM    3  C7  UNL     1      44.851   0.077  35.289  1.00  0.00     0.322 C 
HETATM    4  O1  UNL     1      44.027  -0.241  36.189  1.00  0.00    -0.247 OA
HETATM    5  N2  UNL     1      44.910  -0.585  34.040  1.00  0.00    -0.283 N 
ATOM      6  H2  UNL     1      45.622  -1.296  33.870  1.00  0.00     0.173 HD
HETATM    7  C8  UNL     1      44.066  -0.287  33.125  1.00  0.00     0.192 C 
HETATM    8  N3  UNL     1      43.094   0.706  33.398  1.00  0.00    -0.063 NA
HETATM    9  N4  UNL     1      44.094  -0.931  31.856  1.00  0.00    -0.359 N 
ATOM     10  H4  UNL     1      44.634  -0.531  31.089  1.00  0.00     0.162 HD
ENDROOT
BRANCH   9  11
HETATM   11  C9  UNL     1      43.338  -2.173  31.659  1.00  0.00     0.088 C 
HETATM   12  C10 UNL     1      43.769  -2.756  30.355  1.00  0.00     0.030 C 
HETATM   13  C11 UNL     1      42.944  -3.929  29.915  1.00  0.00    -0.012 C 
HETATM   14  C12 UNL     1      42.418  -4.753  31.038  1.00  0.00     0.009 C 
HETATM   15  C16 UNL     1      41.895  -3.444  28.958  1.00  0.00     0.009 C 
HETATM   16  C13 UNL     1      41.111  -4.315  31.593  1.00  0.00    -0.013 C 
HETATM   17  C14 UNL     1      40.108  -3.904  30.543  1.00  0.00     0.009 C 
HETATM   18  C19 UNL     1      41.272  -3.119  32.528  1.00  0.00     0.011 C 
HETATM   19  C15 UNL     1      40.751  -2.818  29.711  1.00  0.00    -0.013 C 
HETATM   20  C17 UNL     1      41.177  -1.635  30.507  1.00  0.00     0.011 C 
HETATM   21  C18 UNL     1      41.868  -1.951  31.789  1.00  0.00     0.009 C 
ENDBRANCH   9  11
BRANCH   1  22
HETATM   22  C6  UNL     1      45.684   1.810  36.825  1.00  0.00     0.125 C 
BRANCH  22  23
HETATM   23  C5  UNL     1      44.924   3.099  36.637  1.00  0.00     0.028 C 
BRANCH  23  24
HETATM   24  C2  UNL     1      44.166   3.489  37.889  1.00  0.00    -0.050 C 
HETATM   25  C1  UNL     1      42.888   2.668  37.924  1.00  0.00     0.014 C 
HETATM   26  C3  UNL     1      43.770   4.935  37.888  1.00  0.00     0.014 C 
HETATM   27  C4  UNL     1      45.033   3.235  39.088  1.00  0.00     0.014 C 
ENDBRANCH  23  24
ENDBRANCH  22  23
ENDBRANCH   1  22
TORSDOF 4
ENDMDL
MODEL 5
REMARK VINA RESULT: -6.349119296      3.033      8.299
REMARK  4 active torsions:
REMARK  status: ('A' for Active; 'I' for Inactive)
REMARK    1  A    between atoms: C2_2  and  C5_5 
REMARK    2  A    between atoms: C5_5  and  C6_6 
REMARK    3  A    between atoms: C6_6  and  N1_7 
REMARK       I    between atoms: N1_7  and  C7_9 
REMARK       I    between atoms: C7_9  and  N2_11 
REMARK       I    between atoms: C8_13  and  N4_15 
REMARK    4  A    between atoms: N4_15  and  C9_17 
ROOT
HETATM    1  N1  UNL     1      42.299  -0.517  30.908  1.00  0.00    -0.343 N 
ATOM      2  H1  UNL     1      42.239   0.460  30.624  1.00  0.00     0.164 HD
HETATM    3  C7  UNL     1      42.640  -0.861  32.235  1.00  0.00     0.322 C 
HETATM    4  O1  UNL     1      42.703  -2.083  32.539  1.00  0.00    -0.247 OA
HETATM    5  N2  UNL     1      42.895   0.172  33.167  1.00  0.00    -0.283 N 
ATOM      6  H2  UNL     1      42.120   0.664  33.612  1.00  0.00     0.173 HD
HETATM    7  C8  UNL     1      44.104   0.487  33.447  1.00  0.00     0.192 C 
HETATM    8  N3  UNL     1      45.153  -0.218  32.807  1.00  0.00    -0.063 NA
HETATM    9  N4  UNL     1      44.402   1.520  34.379  1.00  0.00    -0.359 N 
ATOM     10  H4  UNL     1      44.528   2.480  34.059  1.00  0.00     0.162 HD
ENDROOT
BRANCH   9  11
HETATM   11  C9  UNL     1      44.526   1.195  35.805  1.00  0.00     0.088 C 
HETATM   12  C10 UNL     1      43.152   1.204  36.387  1.00  0.00     0.030 C 
HETATM   13  C11 UNL     1      43.129   1.083  37.881  1.00  0.00    -0.012 C 
HETATM   14  C12 UNL     1      44.241   0.265  38.439  1.00  0.00     0.009 C 
HETATM   15  C16 UNL     1      43.014   2.457  38.471  1.00  0.00     0.009 C 
HETATM   16  C13 UNL     1      45.493   1.009  38.733  1.00  0.00    -0.013 C 
HETATM   17  C14 UNL     1      45.268   2.354  39.379  1.00  0.00     0.009 C 
HETATM   18  C19 UNL     1      46.303   1.269  37.465  1.00  0.00     0.011 C 
HETATM   19  C15 UNL     1      44.356   3.141  38.466  1.00  0.00    -0.013 C 
HETATM   20  C17 UNL     1      44.899   3.314  37.091  1.00  0.00     0.011 C 
HETATM   21  C18 UNL     1      45.502   2.091  36.491  1.00  0.00     0.009 C 
ENDBRANCH   9  11
BRANCH   1  22
HETATM   22  C6  UNL     1      42.038  -1.578  29.959  1.00  0.00     0.125 C 
BRANCH  22  23
HETATM   23  C5  UNL     1      43.352  -1.987  29.341  1.00  0.00     0.028 C 
BRANCH  23  24
HETATM   24  C2  UNL     1      43.326  -3.427  28.872  1.00  0.00    -0.050 C 
HETATM   25  C1  UNL     1      41.886  -3.907  28.951  1.00  0.00     0.014 C 
HETATM   26  C3  UNL     1      44.147  -4.326  29.746  1.00  0.00     0.014 C 
HETATM   27  C4  UNL     1      43.868  -3.498  27.474  1.00  0.00     0.014 C 
ENDBRANCH  23  24
ENDBRANCH  22  23
ENDBRANCH   1  22
TORSDOF 4
ENDMDL
