MODEL 1
REMARK VINA RESULT: -7.748824263      0.000      0.000
REMARK  4 active torsions:
REMARK  status: ('A' for Active; 'I' for Inactive)
REMARK    1  A    between atoms: C3_3  and  N1_4 
REMARK       I    between atoms: N1_4  and  C4_6 
REMARK    2  A    between atoms: C4_6  and  C5_8 
REMARK    3  A    between atoms: C14_17  and  C15_18 
REMARK    4  A    between atoms: C17_22  and  N3_23 
ROOT
HETATM    1  C1  UNL     1      46.607  -0.200  35.107  1.00  0.00     0.014 C 
HETATM    2  C2  UNL     1      45.737   0.185  34.360  1.00  0.00    -0.098 C 
HETATM    3  C3  UNL     1      44.682   0.614  33.409  1.00  0.00     0.216 C 
ENDROOT
BRANCH   3   4
HETATM    4  N1  UNL     1      44.167  -0.505  32.675  1.00  0.00    -0.350 N 
HETATM    5  C4  UNL     1      42.825  -0.682  32.283  1.00  0.00     0.227 C 
HETATM    6  O1  UNL     1      41.974   0.175  32.588  1.00  0.00    -0.273 OA
ATOM      7  H1  UNL     1      44.829  -1.234  32.414  1.00  0.00     0.163 HD
BRANCH   5   8
HETATM    8  C5  UNL     1      42.579  -1.926  31.517  1.00  0.00     0.043 C 
HETATM    9  C6  UNL     1      41.131  -2.262  31.711  1.00  0.00     0.024 C 
HETATM   10  C7  UNL     1      40.608  -3.355  30.793  1.00  0.00    -0.012 C 
HETATM   11  C8  UNL     1      40.579  -4.666  31.436  1.00  0.00     0.009 C 
HETATM   12  C18 UNL     1      41.273  -3.244  29.467  1.00  0.00     0.021 C 
HETATM   13  C9  UNL     1      41.560  -5.699  31.023  1.00  0.00    -0.018 C 
HETATM   14  C10 UNL     1      40.895  -6.481  29.873  1.00  0.00     0.010 C 
HETATM   15  C11 UNL     1      42.931  -5.318  30.725  1.00  0.00     0.010 C 
HETATM   16  C12 UNL     1      43.386  -3.930  30.627  1.00  0.00     0.002 C 
HETATM   17  C13 UNL     1      43.427  -3.098  31.885  1.00  0.00     0.025 C 
HETATM   18  C14 UNL     1      42.777  -3.108  29.546  1.00  0.00     0.009 C 
HETATM   19  C19 UNL     1      42.991  -1.694  30.094  1.00  0.00     0.035 C 
BRANCH  18  20
HETATM   20  C15 UNL     1      43.404  -3.225  28.216  1.00  0.00     0.051 A 
HETATM   21  C16 UNL     1      44.176  -2.242  27.606  1.00  0.00     0.132 A 
HETATM   22  N2  UNL     1      44.564  -2.726  26.422  1.00  0.00    -0.200 N 
HETATM   23  C17 UNL     1      44.053  -3.950  26.312  1.00  0.00     0.675 A 
ATOM     24  H2  UNL     1      45.144  -2.247  25.733  1.00  0.00     0.183 HD
HETATM   25  N4  UNL     1      43.337  -4.267  27.409  1.00  0.00    -0.194 N 
ATOM     26  H4  UNL     1      42.840  -5.141  27.582  1.00  0.00     0.184 HD
BRANCH  23  27
HETATM   27  N3  UNL     1      44.177  -4.789  25.319  1.00  0.00    -0.234 N 
ATOM     28  H32 UNL     1      44.057  -4.485  24.353  1.00  0.00     0.174 HD
ATOM     29  H31 UNL     1      44.393  -5.786  25.359  1.00  0.00     0.174 HD
ENDBRANCH  23  27
ENDBRANCH  18  20
ENDBRANCH   5   8
ENDBRANCH   3   4
TORSDOF 4
ENDMDL
MODEL 2
REMARK VINA RESULT: -7.729361221      2.799      4.892
REMARK  4 active torsions:
REMARK  status: ('A' for Active; 'I' for Inactive)
REMARK    1  A    between atoms: C3_3  and  N1_4 
REMARK       I    between atoms: N1_4  and  C4_6 
REMARK    2  A    between atoms: C4_6  and  C5_8 
REMARK    3  A    between atoms: C14_17  and  C15_18 
REMARK    4  A    between atoms: C17_22  and  N3_23 
ROOT
HETATM    1  C1  UNL     1      46.528  -9.310  31.151  1.00  0.00     0.014 C 
HETATM    2  C2  UNL     1      45.322  -9.247  31.093  1.00  0.00    -0.098 C 
HETATM    3  C3  UNL     1      43.845  -9.115  31.039  1.00  0.00     0.216 C 
ENDROOT
BRANCH   3   4
HETATM    4  N1  UNL     1      43.460  -7.760  30.773  1.00  0.00    -0.350 N 
HETATM    5  C4  UNL     1      43.345  -6.736  31.734  1.00  0.00     0.227 C 
HETATM    6  O1  UNL     1      43.576  -6.984  32.932  1.00  0.00    -0.273 OA
ATOM      7  H1  UNL     1      43.253  -7.516  29.805  1.00  0.00     0.163 HD
BRANCH   5   8
HETATM    8  C5  UNL     1      42.946  -5.423  31.173  1.00  0.00     0.043 C 
HETATM    9  C6  UNL     1      43.039  -4.438  32.298  1.00  0.00     0.024 C 
HETATM   10  C7  UNL     1      42.929  -2.983  31.873  1.00  0.00    -0.012 C 
HETATM   11  C8  UNL     1      41.584  -2.443  32.050  1.00  0.00     0.009 C 
HETATM   12  C18 UNL     1      43.582  -2.807  30.548  1.00  0.00     0.021 C 
HETATM   13  C9  UNL     1      40.748  -2.171  30.856  1.00  0.00    -0.018 C 
HETATM   14  C10 UNL     1      41.051  -0.716  30.447  1.00  0.00     0.010 C 
HETATM   15  C11 UNL     1      40.775  -3.089  29.729  1.00  0.00     0.010 C 
HETATM   16  C12 UNL     1      41.722  -4.197  29.605  1.00  0.00     0.002 C 
HETATM   17  C13 UNL     1      41.590  -5.363  30.554  1.00  0.00     0.025 C 
HETATM   18  C14 UNL     1      43.163  -3.831  29.518  1.00  0.00     0.009 C 
HETATM   19  C19 UNL     1      43.826  -5.126  29.995  1.00  0.00     0.035 C 
BRANCH  18  20
HETATM   20  C15 UNL     1      43.659  -3.485  28.173  1.00  0.00     0.051 A 
HETATM   21  C16 UNL     1      44.209  -2.259  27.815  1.00  0.00     0.132 A 
HETATM   22  N2  UNL     1      44.540  -2.339  26.523  1.00  0.00    -0.200 N 
HETATM   23  C17 UNL     1      44.209  -3.560  26.109  1.00  0.00     0.675 A 
ATOM     24  H2  UNL     1      44.968  -1.604  25.960  1.00  0.00     0.183 HD
HETATM   25  N4  UNL     1      43.665  -4.273  27.115  1.00  0.00    -0.194 N 
ATOM     26  H4  UNL     1      43.325  -5.233  27.069  1.00  0.00     0.184 HD
BRANCH  23  27
HETATM   27  N3  UNL     1      44.353  -4.074  24.916  1.00  0.00    -0.234 N 
ATOM     28  H32 UNL     1      45.066  -3.728  24.275  1.00  0.00     0.174 HD
ATOM     29  H31 UNL     1      43.821  -4.832  24.488  1.00  0.00     0.174 HD
ENDBRANCH  23  27
ENDBRANCH  18  20
ENDBRANCH   5   8
ENDBRANCH   3   4
TORSDOF 4
ENDMDL
MODEL 3
REMARK VINA RESULT: -7.631200318      2.041      3.177
REMARK  4 active torsions:
REMARK  status: ('A' for Active; 'I' for Inactive)
REMARK    1  A    between atoms: C3_3  and  N1_4 
REMARK       I    between atoms: N1_4  and  C4_6 
REMARK    2  A    between atoms: C4_6  and  C5_8 
REMARK    3  A    between atoms: C14_17  and  C15_18 
REMARK    4  A    between atoms: C17_22  and  N3_23 
ROOT
HETATM    1  C1  UNL     1      36.582   0.099  32.269  1.00  0.00     0.014 C 
HETATM    2  C2  UNL     1      37.771   0.321  32.258  1.00  0.00    -0.098 C 
HETATM    3  C3  UNL     1      39.239   0.537  32.253  1.00  0.00     0.216 C 
ENDROOT
BRANCH   3   4
HETATM    4  N1  UNL     1      39.927  -0.626  31.774  1.00  0.00    -0.350 N 
HETATM    5  C4  UNL     1      41.326  -0.780  31.700  1.00  0.00     0.227 C 
HETATM    6  O1  UNL     1      42.070   0.152  32.060  1.00  0.00    -0.273 OA
ATOM      7  H1  UNL     1      39.354  -1.410  31.461  1.00  0.00     0.163 HD
BRANCH   5   8
HETATM    8  C5  UNL     1      41.762  -2.098  31.181  1.00  0.00     0.043 C 
HETATM    9  C6  UNL     1      40.652  -3.059  31.484  1.00  0.00     0.024 C 
HETATM   10  C7  UNL     1      40.782  -4.409  30.798  1.00  0.00    -0.012 C 
HETATM   11  C8  UNL     1      41.358  -5.431  31.668  1.00  0.00     0.009 C 
HETATM   12  C18 UNL     1      41.384  -4.221  29.451  1.00  0.00     0.021 C 
HETATM   13  C9  UNL     1      42.740  -5.907  31.414  1.00  0.00    -0.018 C 
HETATM   14  C10 UNL     1      42.607  -7.101  30.449  1.00  0.00     0.010 C 
HETATM   15  C11 UNL     1      43.765  -4.962  31.003  1.00  0.00     0.010 C 
HETATM   16  C12 UNL     1      43.493  -3.571  30.639  1.00  0.00     0.002 C 
HETATM   17  C13 UNL     1      43.050  -2.620  31.724  1.00  0.00     0.025 C 
HETATM   18  C14 UNL     1      42.624  -3.356  29.450  1.00  0.00     0.009 C 
HETATM   19  C19 UNL     1      42.090  -1.947  29.725  1.00  0.00     0.035 C 
BRANCH  18  20
HETATM   20  C15 UNL     1      43.304  -3.382  28.142  1.00  0.00     0.051 A 
HETATM   21  C16 UNL     1      44.003  -2.318  27.582  1.00  0.00     0.132 A 
HETATM   22  N2  UNL     1      44.474  -2.734  26.403  1.00  0.00    -0.200 N 
HETATM   23  C17 UNL     1      44.082  -3.997  26.248  1.00  0.00     0.675 A 
ATOM     24  H2  UNL     1      45.030  -2.187  25.745  1.00  0.00     0.183 HD
HETATM   25  N4  UNL     1      43.360  -4.406  27.311  1.00  0.00    -0.194 N 
ATOM     26  H4  UNL     1      42.941  -5.325  27.446  1.00  0.00     0.184 HD
BRANCH  23  27
HETATM   27  N3  UNL     1      44.316  -4.796  25.241  1.00  0.00    -0.234 N 
ATOM     28  H32 UNL     1      45.204  -4.769  24.741  1.00  0.00     0.174 HD
ATOM     29  H31 UNL     1      43.700  -5.505  24.842  1.00  0.00     0.174 HD
ENDBRANCH  23  27
ENDBRANCH  18  20
ENDBRANCH   5   8
ENDBRANCH   3   4
TORSDOF 4
ENDMDL
MODEL 4
REMARK VINA RESULT: -7.571627992      2.852      5.177
REMARK  4 active torsions:
REMARK  status: ('A' for Active; 'I' for Inactive)
REMARK    1  A    between atoms: C3_3  and  N1_4 
REMARK       I    between atoms: N1_4  and  C4_6 
REMARK    2  A    between atoms: C4_6  and  C5_8 
REMARK    3  A    between atoms: C14_17  and  C15_18 
REMARK    4  A    between atoms: C17_22  and  N3_23 
ROOT
HETATM    1  C1  UNL     1      41.176 -10.408  31.164  1.00  0.00     0.014 C 
HETATM    2  C2  UNL     1      42.193  -9.753  31.187  1.00  0.00    -0.098 C 
HETATM    3  C3  UNL     1      43.418  -8.916  31.177  1.00  0.00     0.216 C 
ENDROOT
BRANCH   3   4
HETATM    4  N1  UNL     1      43.104  -7.552  30.866  1.00  0.00    -0.350 N 
HETATM    5  C4  UNL     1      43.864  -6.427  31.245  1.00  0.00     0.227 C 
HETATM    6  O1  UNL     1      44.900  -6.580  31.919  1.00  0.00    -0.273 OA
ATOM      7  H1  UNL     1      42.258  -7.382  30.323  1.00  0.00     0.163 HD
BRANCH   5   8
HETATM    8  C5  UNL     1      43.311  -5.137  30.770  1.00  0.00     0.043 C 
HETATM    9  C6  UNL     1      43.325  -4.212  31.948  1.00  0.00     0.024 C 
HETATM   10  C7  UNL     1      43.048  -2.756  31.611  1.00  0.00    -0.012 C 
HETATM   11  C8  UNL     1      41.657  -2.377  31.845  1.00  0.00     0.009 C 
HETATM   12  C18 UNL     1      43.645  -2.435  30.286  1.00  0.00     0.021 C 
HETATM   13  C9  UNL     1      40.767  -2.132  30.685  1.00  0.00    -0.018 C 
HETATM   14  C10 UNL     1      40.901  -0.632  30.356  1.00  0.00     0.010 C 
HETATM   15  C11 UNL     1      40.864  -2.977  29.506  1.00  0.00     0.010 C 
HETATM   16  C12 UNL     1      41.923  -3.966  29.299  1.00  0.00     0.002 C 
HETATM   17  C13 UNL     1      41.941  -5.191  30.181  1.00  0.00     0.025 C 
HETATM   18  C14 UNL     1      43.313  -3.440  29.207  1.00  0.00     0.009 C 
HETATM   19  C19 UNL     1      44.124  -4.680  29.594  1.00  0.00     0.035 C 
BRANCH  18  20
HETATM   20  C15 UNL     1      43.735  -2.967  27.875  1.00  0.00     0.051 A 
HETATM   21  C16 UNL     1      43.953  -1.637  27.531  1.00  0.00     0.132 A 
HETATM   22  N2  UNL     1      44.326  -1.620  26.248  1.00  0.00    -0.200 N 
HETATM   23  C17 UNL     1      44.336  -2.882  25.825  1.00  0.00     0.675 A 
ATOM     24  H2  UNL     1      44.560  -0.794  25.696  1.00  0.00     0.183 HD
HETATM   25  N4  UNL     1      43.973  -3.719  26.818  1.00  0.00    -0.194 N 
ATOM     26  H4  UNL     1      43.897  -4.735  26.762  1.00  0.00     0.184 HD
BRANCH  23  27
HETATM   27  N3  UNL     1      44.640  -3.332  24.637  1.00  0.00    -0.234 N 
ATOM     28  H32 UNL     1      44.325  -4.250  24.324  1.00  0.00     0.174 HD
ATOM     29  H31 UNL     1      45.188  -2.872  23.910  1.00  0.00     0.174 HD
ENDBRANCH  23  27
ENDBRANCH  18  20
ENDBRANCH   5   8
ENDBRANCH   3   4
TORSDOF 4
ENDMDL
MODEL 5
REMARK VINA RESULT: -7.373244914      2.974      4.749
REMARK  4 active torsions:
REMARK  status: ('A' for Active; 'I' for Inactive)
REMARK    1  A    between atoms: C3_3  and  N1_4 
REMARK       I    between atoms: N1_4  and  C4_6 
REMARK    2  A    between atoms: C4_6  and  C5_8 
REMARK    3  A    between atoms: C14_17  and  C15_18 
REMARK    4  A    between atoms: C17_22  and  N3_23 
ROOT
HETATM    1  C1  UNL     1      44.432  -8.949  34.198  1.00  0.00     0.014 C 
HETATM    2  C2  UNL     1      44.737  -8.698  33.055  1.00  0.00    -0.098 C 
HETATM    3  C3  UNL     1      45.063  -8.360  31.647  1.00  0.00     0.216 C 
ENDROOT
BRANCH   3   4
HETATM    4  N1  UNL     1      44.503  -7.092  31.282  1.00  0.00    -0.350 N 
HETATM    5  C4  UNL     1      43.174  -6.870  30.868  1.00  0.00     0.227 C 
HETATM    6  O1  UNL     1      42.384  -7.829  30.787  1.00  0.00    -0.273 OA
ATOM      7  H1  UNL     1      45.119  -6.281  31.326  1.00  0.00     0.163 HD
BRANCH   5   8
HETATM    8  C5  UNL     1      42.864  -5.452  30.569  1.00  0.00     0.043 C 
HETATM    9  C6  UNL     1      43.064  -4.697  31.848  1.00  0.00     0.024 C 
HETATM   10  C7  UNL     1      43.057  -3.185  31.696  1.00  0.00    -0.012 C 
HETATM   11  C8  UNL     1      41.764  -2.590  32.022  1.00  0.00     0.009 C 
HETATM   12  C18 UNL     1      43.685  -2.818  30.398  1.00  0.00     0.021 C 
HETATM   13  C9  UNL     1      40.919  -2.046  30.931  1.00  0.00    -0.018 C 
HETATM   14  C10 UNL     1      41.324  -0.567  30.777  1.00  0.00     0.010 C 
HETATM   15  C11 UNL     1      40.843  -2.743  29.658  1.00  0.00     0.010 C 
HETATM   16  C12 UNL     1      41.697  -3.876  29.298  1.00  0.00     0.002 C 
HETATM   17  C13 UNL     1      41.500  -5.182  30.027  1.00  0.00     0.025 C 
HETATM   18  C14 UNL     1      43.159  -3.605  29.219  1.00  0.00     0.009 C 
HETATM   19  C19 UNL     1      43.732  -5.009  29.428  1.00  0.00     0.035 C 
BRANCH  18  20
HETATM   20  C15 UNL     1      43.644  -3.056  27.939  1.00  0.00     0.051 A 
HETATM   21  C16 UNL     1      43.925  -1.715  27.698  1.00  0.00     0.132 A 
HETATM   22  N2  UNL     1      44.342  -1.622  26.432  1.00  0.00    -0.200 N 
HETATM   23  C17 UNL     1      44.318  -2.851  25.920  1.00  0.00     0.675 A 
ATOM     24  H2  UNL     1      44.626  -0.770  25.949  1.00  0.00     0.183 HD
HETATM   25  N4  UNL     1      43.889  -3.741  26.838  1.00  0.00    -0.194 N 
ATOM     26  H4  UNL     1      43.776  -4.745  26.707  1.00  0.00     0.184 HD
BRANCH  23  27
HETATM   27  N3  UNL     1      44.644  -3.228  24.713  1.00  0.00    -0.234 N 
ATOM     28  H32 UNL     1      45.020  -2.564  24.036  1.00  0.00     0.174 HD
ATOM     29  H31 UNL     1      44.577  -4.160  24.304  1.00  0.00     0.174 HD
ENDBRANCH  23  27
ENDBRANCH  18  20
ENDBRANCH   5   8
ENDBRANCH   3   4
TORSDOF 4
ENDMDL
