MODEL 1
REMARK VINA RESULT: -7.372383161      0.000      0.000
REMARK  4 active torsions:
REMARK  status: ('A' for Active; 'I' for Inactive)
REMARK    1  A    between atoms: N1_2  and  C2_4 
REMARK    2  A    between atoms: C4_8  and  C5_9 
REMARK    3  A    between atoms: C13_17  and  N3_18 
REMARK       I    between atoms: N3_18  and  C14_20 
REMARK       I    between atoms: C14_20  and  N4_22 
REMARK    4  A    between atoms: N4_22  and  C15_24 
ROOT
HETATM    1  C5  UNL     1      42.723  -2.448  29.672  1.00  0.00     0.007 C 
HETATM    2  C6  UNL     1      41.815  -3.595  29.610  1.00  0.00     0.020 C 
HETATM    3  C7  UNL     1      41.374  -4.250  30.865  1.00  0.00    -0.013 C 
HETATM    4  C8  UNL     1      42.278  -4.778  31.885  1.00  0.00     0.005 C 
HETATM    5  C9  UNL     1      42.687  -3.616  32.845  1.00  0.00     0.012 C 
HETATM    6  C10 UNL     1      42.451  -2.568  31.914  1.00  0.00    -0.018 C 
HETATM    7  C11 UNL     1      41.012  -2.953  31.595  1.00  0.00     0.016 C 
HETATM    8  C12 UNL     1      43.533  -2.868  30.888  1.00  0.00     0.027 C 
HETATM    9  C13 UNL     1      42.409  -1.181  31.758  1.00  0.00     0.095 C 
HETATM   10  C18 UNL     1      42.369  -1.123  30.227  1.00  0.00     0.042 C 
ENDROOT
BRANCH   1  11
HETATM   11  C4  UNL     1      43.501  -2.366  28.425  1.00  0.00     0.051 A 
HETATM   12  C3  UNL     1      44.411  -1.324  28.194  1.00  0.00     0.132 A 
HETATM   13  N2  UNL     1      44.997  -1.458  26.998  1.00  0.00    -0.200 N 
HETATM   14  C2  UNL     1      44.474  -2.574  26.461  1.00  0.00     0.677 A 
ATOM     15  H2  UNL     1      45.696  -0.842  26.581  1.00  0.00     0.183 HD
HETATM   16  N5  UNL     1      43.576  -3.106  27.333  1.00  0.00    -0.194 N 
ATOM     17  H5  UNL     1      43.037  -3.957  27.168  1.00  0.00     0.184 HD
BRANCH  14  18
HETATM   18  N1  UNL     1      44.774  -3.075  25.302  1.00  0.00    -0.230 N 
HETATM   19  C1  UNL     1      43.897  -3.928  24.574  1.00  0.00     0.165 C 
ATOM     20  H1  UNL     1      45.680  -2.846  24.893  1.00  0.00     0.177 HD
ENDBRANCH  14  18
ENDBRANCH   1  11
BRANCH   9  21
HETATM   21  N3  UNL     1      43.387  -0.360  32.387  1.00  0.00    -0.338 N 
HETATM   22  C14 UNL     1      43.061   0.339  33.601  1.00  0.00     0.316 C 
HETATM   23  O1  UNL     1      41.859   0.201  34.027  1.00  0.00    -0.247 OA
HETATM   24  N4  UNL     1      43.986   1.141  34.318  1.00  0.00    -0.339 N 
ATOM     25  H4  UNL     1      44.946   1.247  33.989  1.00  0.00     0.164 HD
ATOM     26  H3  UNL     1      44.316  -0.268  31.977  1.00  0.00     0.164 HD
BRANCH  24  27
HETATM   27  C15 UNL     1      43.547   1.800  35.514  1.00  0.00     0.086 A 
HETATM   28  C16 UNL     1      44.684   2.659  36.165  1.00  0.00     0.027 A 
HETATM   29  C17 UNL     1      43.393   3.239  35.687  1.00  0.00     0.027 A 
ENDBRANCH  24  27
ENDBRANCH   9  21
TORSDOF 4
ENDMDL
MODEL 2
REMARK VINA RESULT: -6.888779192      1.100      1.371
REMARK  4 active torsions:
REMARK  status: ('A' for Active; 'I' for Inactive)
REMARK    1  A    between atoms: N1_2  and  C2_4 
REMARK    2  A    between atoms: C4_8  and  C5_9 
REMARK    3  A    between atoms: C13_17  and  N3_18 
REMARK       I    between atoms: N3_18  and  C14_20 
REMARK       I    between atoms: C14_20  and  N4_22 
REMARK    4  A    between atoms: N4_22  and  C15_24 
ROOT
HETATM    1  C5  UNL     1      41.973  -2.525  29.841  1.00  0.00     0.007 C 
HETATM    2  C6  UNL     1      40.697  -3.245  29.833  1.00  0.00     0.020 C 
HETATM    3  C7  UNL     1      39.976  -3.472  31.109  1.00  0.00    -0.013 C 
HETATM    4  C8  UNL     1      40.554  -4.122  32.282  1.00  0.00     0.005 C 
HETATM    5  C9  UNL     1      41.330  -3.056  33.118  1.00  0.00     0.012 C 
HETATM    6  C10 UNL     1      41.563  -2.164  32.036  1.00  0.00    -0.018 C 
HETATM    7  C11 UNL     1      40.104  -2.032  31.615  1.00  0.00     0.016 C 
HETATM    8  C12 UNL     1      42.496  -3.010  31.183  1.00  0.00     0.027 C 
HETATM    9  C13 UNL     1      42.066  -0.907  31.692  1.00  0.00     0.095 C 
HETATM   10  C18 UNL     1      42.129  -1.092  30.172  1.00  0.00     0.042 C 
ENDROOT
BRANCH   1  11
HETATM   11  C4  UNL     1      42.784  -2.946  28.686  1.00  0.00     0.051 A 
HETATM   12  C3  UNL     1      43.018  -4.300  28.407  1.00  0.00     0.132 A 
HETATM   13  N2  UNL     1      43.779  -4.437  27.314  1.00  0.00    -0.200 N 
HETATM   14  C2  UNL     1      44.033  -3.187  26.890  1.00  0.00     0.677 A 
ATOM     15  H2  UNL     1      44.099  -5.309  26.890  1.00  0.00     0.183 HD
HETATM   16  N5  UNL     1      43.427  -2.303  27.727  1.00  0.00    -0.194 N 
ATOM     17  H5  UNL     1      43.464  -1.288  27.629  1.00  0.00     0.184 HD
BRANCH  14  18
HETATM   18  N1  UNL     1      44.737  -2.865  25.848  1.00  0.00    -0.230 N 
HETATM   19  C1  UNL     1      44.314  -3.124  24.514  1.00  0.00     0.165 C 
ATOM     20  H1  UNL     1      45.635  -2.403  25.992  1.00  0.00     0.177 HD
ENDBRANCH  14  18
ENDBRANCH   1  11
BRANCH   9  21
HETATM   21  N3  UNL     1      43.252  -0.418  32.309  1.00  0.00    -0.338 N 
HETATM   22  C14 UNL     1      43.179   0.216  33.598  1.00  0.00     0.316 C 
HETATM   23  O1  UNL     1      42.005   0.336  34.102  1.00  0.00    -0.247 OA
HETATM   24  N4  UNL     1      44.313   0.692  34.305  1.00  0.00    -0.339 N 
ATOM     25  H4  UNL     1      45.249   0.590  33.913  1.00  0.00     0.164 HD
ATOM     26  H3  UNL     1      44.151  -0.518  31.838  1.00  0.00     0.164 HD
BRANCH  24  27
HETATM   27  C15 UNL     1      44.119   1.317  35.581  1.00  0.00     0.086 A 
HETATM   28  C16 UNL     1      45.435   1.342  36.431  1.00  0.00     0.027 A 
HETATM   29  C17 UNL     1      44.710   2.578  36.010  1.00  0.00     0.027 A 
ENDBRANCH  24  27
ENDBRANCH   9  21
TORSDOF 4
ENDMDL
MODEL 3
REMARK VINA RESULT: -6.859395113      3.559      5.862
REMARK  4 active torsions:
REMARK  status: ('A' for Active; 'I' for Inactive)
REMARK    1  A    between atoms: N1_2  and  C2_4 
REMARK    2  A    between atoms: C4_8  and  C5_9 
REMARK    3  A    between atoms: C13_17  and  N3_18 
REMARK       I    between atoms: N3_18  and  C14_20 
REMARK       I    between atoms: C14_20  and  N4_22 
REMARK    4  A    between atoms: N4_22  and  C15_24 
ROOT
HETATM    1  C5  UNL     1      42.833  -2.622  29.679  1.00  0.00     0.007 C 
HETATM    2  C6  UNL     1      42.276  -1.357  30.164  1.00  0.00     0.020 C 
HETATM    3  C7  UNL     1      41.023  -1.363  30.956  1.00  0.00    -0.013 C 
HETATM    4  C8  UNL     1      39.767  -1.966  30.513  1.00  0.00     0.005 C 
HETATM    5  C9  UNL     1      39.787  -3.486  30.865  1.00  0.00     0.012 C 
HETATM    6  C10 UNL     1      41.203  -3.611  30.896  1.00  0.00    -0.018 C 
HETATM    7  C11 UNL     1      41.445  -2.492  31.901  1.00  0.00     0.016 C 
HETATM    8  C12 UNL     1      41.528  -3.360  29.431  1.00  0.00     0.027 C 
HETATM    9  C13 UNL     1      42.257  -4.479  31.187  1.00  0.00     0.095 C 
HETATM   10  C18 UNL     1      43.397  -3.680  30.545  1.00  0.00     0.042 C 
ENDROOT
BRANCH   1  11
HETATM   11  C4  UNL     1      43.631  -2.377  28.467  1.00  0.00     0.051 A 
HETATM   12  C3  UNL     1      44.588  -1.353  28.411  1.00  0.00     0.132 A 
HETATM   13  N2  UNL     1      45.185  -1.322  27.213  1.00  0.00    -0.200 N 
HETATM   14  C2  UNL     1      44.623  -2.315  26.502  1.00  0.00     0.677 A 
ATOM     15  H2  UNL     1      45.915  -0.679  26.905  1.00  0.00     0.183 HD
HETATM   16  N5  UNL     1      43.691  -2.939  27.272  1.00  0.00    -0.194 N 
ATOM     17  H5  UNL     1      43.119  -3.727  26.970  1.00  0.00     0.184 HD
BRANCH  14  18
HETATM   18  N1  UNL     1      44.918  -2.638  25.281  1.00  0.00    -0.230 N 
HETATM   19  C1  UNL     1      44.086  -3.465  24.473  1.00  0.00     0.165 C 
ATOM     20  H1  UNL     1      45.787  -2.284  24.880  1.00  0.00     0.177 HD
ENDBRANCH  14  18
ENDBRANCH   1  11
BRANCH   9  21
HETATM   21  N3  UNL     1      42.175  -5.852  30.821  1.00  0.00    -0.338 N 
HETATM   22  C14 UNL     1      43.123  -6.793  31.355  1.00  0.00     0.316 C 
HETATM   23  O1  UNL     1      44.030  -6.307  32.121  1.00  0.00    -0.247 OA
HETATM   24  N4  UNL     1      43.088  -8.184  31.080  1.00  0.00    -0.339 N 
ATOM     25  H4  UNL     1      42.364  -8.577  30.479  1.00  0.00     0.164 HD
ATOM     26  H3  UNL     1      41.447  -6.167  30.180  1.00  0.00     0.164 HD
BRANCH  24  27
HETATM   27  C15 UNL     1      44.092  -9.028  31.662  1.00  0.00     0.086 A 
HETATM   28  C16 UNL     1      44.321 -10.333  30.827  1.00  0.00     0.027 A 
HETATM   29  C17 UNL     1      45.395  -9.326  31.082  1.00  0.00     0.027 A 
ENDBRANCH  24  27
ENDBRANCH   9  21
TORSDOF 4
ENDMDL
MODEL 4
REMARK VINA RESULT: -6.857205670      2.043      2.635
REMARK  4 active torsions:
REMARK  status: ('A' for Active; 'I' for Inactive)
REMARK    1  A    between atoms: N1_2  and  C2_4 
REMARK    2  A    between atoms: C4_8  and  C5_9 
REMARK    3  A    between atoms: C13_17  and  N3_18 
REMARK       I    between atoms: N3_18  and  C14_20 
REMARK       I    between atoms: C14_20  and  N4_22 
REMARK    4  A    between atoms: N4_22  and  C15_24 
ROOT
HETATM    1  C5  UNL     1      42.043  -2.100  30.143  1.00  0.00     0.007 C 
HETATM    2  C6  UNL     1      40.666  -1.754  29.783  1.00  0.00     0.020 C 
HETATM    3  C7  UNL     1      39.681  -1.460  30.851  1.00  0.00    -0.013 C 
HETATM    4  C8  UNL     1      39.368  -2.361  31.958  1.00  0.00     0.005 C 
HETATM    5  C9  UNL     1      40.407  -2.135  33.101  1.00  0.00     0.012 C 
HETATM    6  C10 UNL     1      41.432  -1.614  32.265  1.00  0.00    -0.018 C 
HETATM    7  C11 UNL     1      40.589  -0.510  31.639  1.00  0.00     0.016 C 
HETATM    8  C12 UNL     1      41.757  -2.847  31.435  1.00  0.00     0.027 C 
HETATM    9  C13 UNL     1      42.701  -1.031  32.259  1.00  0.00     0.095 C 
HETATM   10  C18 UNL     1      43.010  -1.169  30.764  1.00  0.00     0.042 C 
ENDROOT
BRANCH   1  11
HETATM   11  C4  UNL     1      42.637  -2.930  29.082  1.00  0.00     0.051 A 
HETATM   12  C3  UNL     1      42.309  -4.286  28.940  1.00  0.00     0.132 A 
HETATM   13  N2  UNL     1      42.970  -4.832  27.911  1.00  0.00    -0.200 N 
HETATM   14  C2  UNL     1      43.716  -3.841  27.393  1.00  0.00     0.677 A 
ATOM     15  H2  UNL     1      42.918  -5.799  27.588  1.00  0.00     0.183 HD
HETATM   16  N5  UNL     1      43.504  -2.705  28.110  1.00  0.00    -0.194 N 
ATOM     17  H5  UNL     1      43.949  -1.806  27.923  1.00  0.00     0.184 HD
BRANCH  14  18
HETATM   18  N1  UNL     1      44.510  -3.940  26.371  1.00  0.00    -0.230 N 
HETATM   19  C1  UNL     1      44.155  -3.498  25.066  1.00  0.00     0.165 C 
ATOM     20  H1  UNL     1      45.432  -4.355  26.510  1.00  0.00     0.177 HD
ENDBRANCH  14  18
ENDBRANCH   1  11
BRANCH   9  21
HETATM   21  N3  UNL     1      43.708  -1.500  33.149  1.00  0.00    -0.338 N 
HETATM   22  C14 UNL     1      44.707  -0.591  33.643  1.00  0.00     0.316 C 
HETATM   23  O1  UNL     1      44.642   0.612  33.201  1.00  0.00    -0.247 OA
HETATM   24  N4  UNL     1      45.719  -0.961  34.566  1.00  0.00    -0.339 N 
ATOM     25  H4  UNL     1      45.769  -1.914  34.926  1.00  0.00     0.164 HD
ATOM     26  H3  UNL     1      43.721  -2.479  33.435  1.00  0.00     0.164 HD
BRANCH  24  27
HETATM   27  C15 UNL     1      46.669   0.029  34.982  1.00  0.00     0.086 A 
HETATM   28  C16 UNL     1      46.754   0.145  36.542  1.00  0.00     0.027 A 
HETATM   29  C17 UNL     1      47.919  -0.232  35.685  1.00  0.00     0.027 A 
ENDBRANCH  24  27
ENDBRANCH   9  21
TORSDOF 4
ENDMDL
MODEL 5
REMARK VINA RESULT: -6.848123258      3.792      6.211
REMARK  4 active torsions:
REMARK  status: ('A' for Active; 'I' for Inactive)
REMARK    1  A    between atoms: N1_2  and  C2_4 
REMARK    2  A    between atoms: C4_8  and  C5_9 
REMARK    3  A    between atoms: C13_17  and  N3_18 
REMARK       I    between atoms: N3_18  and  C14_20 
REMARK       I    between atoms: C14_20  and  N4_22 
REMARK    4  A    between atoms: N4_22  and  C15_24 
ROOT
HETATM    1  C5  UNL     1      43.445  -3.103  28.785  1.00  0.00     0.007 C 
HETATM    2  C6  UNL     1      43.250  -1.731  29.257  1.00  0.00     0.020 C 
HETATM    3  C7  UNL     1      42.370  -1.473  30.422  1.00  0.00    -0.013 C 
HETATM    4  C8  UNL     1      40.977  -1.907  30.519  1.00  0.00     0.005 C 
HETATM    5  C9  UNL     1      40.943  -3.377  31.044  1.00  0.00     0.012 C 
HETATM    6  C10 UNL     1      42.252  -3.719  30.605  1.00  0.00    -0.018 C 
HETATM    7  C11 UNL     1      42.966  -2.571  31.308  1.00  0.00     0.016 C 
HETATM    8  C12 UNL     1      42.060  -3.646  29.098  1.00  0.00     0.027 C 
HETATM    9  C13 UNL     1      43.231  -4.714  30.633  1.00  0.00     0.095 C 
HETATM   10  C18 UNL     1      44.152  -4.160  29.540  1.00  0.00     0.042 C 
ENDROOT
BRANCH   1  11
HETATM   11  C4  UNL     1      43.781  -3.090  27.352  1.00  0.00     0.051 A 
HETATM   12  C3  UNL     1      44.218  -4.246  26.689  1.00  0.00     0.132 A 
HETATM   13  N2  UNL     1      44.463  -3.992  25.397  1.00  0.00    -0.200 N 
HETATM   14  C2  UNL     1      44.186  -2.688  25.226  1.00  0.00     0.677 A 
ATOM     15  H2  UNL     1      44.791  -4.651  24.691  1.00  0.00     0.183 HD
HETATM   16  N5  UNL     1      43.778  -2.161  26.411  1.00  0.00    -0.194 N 
ATOM     17  H5  UNL     1      43.507  -1.188  26.555  1.00  0.00     0.184 HD
BRANCH  14  18
HETATM   18  N1  UNL     1      44.284  -2.029  24.112  1.00  0.00    -0.230 N 
HETATM   19  C1  UNL     1      44.009  -0.636  24.007  1.00  0.00     0.165 C 
ATOM     20  H1  UNL     1      44.573  -2.532  23.273  1.00  0.00     0.177 HD
ENDBRANCH  14  18
ENDBRANCH   1  11
BRANCH   9  21
HETATM   21  N3  UNL     1      42.864  -6.083  30.504  1.00  0.00    -0.338 N 
HETATM   22  C14 UNL     1      43.661  -7.100  31.135  1.00  0.00     0.316 C 
HETATM   23  O1  UNL     1      44.705  -6.692  31.760  1.00  0.00    -0.247 OA
HETATM   24  N4  UNL     1      43.344  -8.483  31.096  1.00  0.00    -0.339 N 
ATOM     25  H4  UNL     1      42.511  -8.811  30.608  1.00  0.00     0.164 HD
ATOM     26  H3  UNL     1      42.038  -6.341  29.965  1.00  0.00     0.164 HD
BRANCH  24  27
HETATM   27  C15 UNL     1      44.218  -9.410  31.755  1.00  0.00     0.086 A 
HETATM   28  C16 UNL     1      44.125 -10.847  31.140  1.00  0.00     0.027 A 
HETATM   29  C17 UNL     1      45.387 -10.047  31.163  1.00  0.00     0.027 A 
ENDBRANCH  24  27
ENDBRANCH   9  21
TORSDOF 4
ENDMDL
