MODEL 1
REMARK VINA RESULT: -6.751582538      0.000      0.000
REMARK  2 active torsions:
REMARK  status: ('A' for Active; 'I' for Inactive)
REMARK    1  A    between atoms: C2_2  and  N1_4 
REMARK       I    between atoms: C4_6  and  N3_8 
REMARK       I    between atoms: N3_8  and  C5_10 
REMARK       I    between atoms: C5_10  and  N4_12 
REMARK       I    between atoms: C6_14  and  N6_16 
REMARK    2  A    between atoms: N6_16  and  C7_18 
ROOT
HETATM    1  N1  UNL     1      43.353  -2.473  27.643  1.00  0.00    -0.360 N 
ATOM      2  H1  UNL     1      42.499  -2.991  27.440  1.00  0.00     0.162 HD
HETATM    3  C4  UNL     1      43.388  -1.841  28.736  1.00  0.00     0.192 C 
HETATM    4  N2  UNL     1      44.534  -1.097  29.096  1.00  0.00    -0.063 NA
HETATM    5  N3  UNL     1      42.276  -1.875  29.609  1.00  0.00    -0.283 N 
ATOM      6  H3  UNL     1      41.459  -2.418  29.331  1.00  0.00     0.173 HD
HETATM    7  C5  UNL     1      42.241  -1.191  30.853  1.00  0.00     0.329 C 
HETATM    8  O1  UNL     1      43.289  -0.524  31.160  1.00  0.00    -0.247 OA
HETATM    9  N4  UNL     1      41.116  -1.250  31.692  1.00  0.00    -0.283 N 
ATOM     10  H4  UNL     1      41.121  -1.948  32.437  1.00  0.00     0.173 HD
HETATM   11  C6  UNL     1      40.087  -0.500  31.596  1.00  0.00     0.192 C 
HETATM   12  N5  UNL     1      39.924   0.512  30.621  1.00  0.00    -0.063 NA
HETATM   13  N6  UNL     1      39.027  -0.692  32.531  1.00  0.00    -0.355 N 
ATOM     14  H6  UNL     1      38.265  -1.328  32.294  1.00  0.00     0.163 HD
ENDROOT
BRANCH  13  15
HETATM   15  C7  UNL     1      39.001  -0.020  33.793  1.00  0.00     0.035 C 
HETATM   16  C8  UNL     1      38.502  -0.990  34.843  1.00  0.00     0.035 C 
HETATM   17  C9  UNL     1      38.417  -0.302  36.179  1.00  0.00    -0.010 C 
HETATM   18  C10 UNL     1      39.772   0.259  36.544  1.00  0.00     0.009 C 
HETATM   19  C14 UNL     1      37.393   0.783  36.096  1.00  0.00     0.030 C 
HETATM   20  C11 UNL     1      40.188   1.253  35.501  1.00  0.00    -0.010 C 
HETATM   21  C12 UNL     1      39.182   2.368  35.457  1.00  0.00     0.030 C 
HETATM   22  C16 UNL     1      40.344   0.568  34.172  1.00  0.00     0.035 C 
HETATM   23  C13 UNL     1      37.836   1.784  35.060  1.00  0.00     0.040 C 
HETATM   24 CL1  UNL     1      36.633   3.075  34.876  1.00  0.00    -0.119 Cl
HETATM   25  C15 UNL     1      38.005   1.115  33.723  1.00  0.00     0.056 C 
ENDBRANCH  13  15
BRANCH   1  26
HETATM   26  C2  UNL     1      44.394  -2.534  26.658  1.00  0.00     0.076 C 
HETATM   27  C1  UNL     1      44.461  -1.292  25.795  1.00  0.00     0.032 C 
HETATM   28  C3  UNL     1      44.314  -3.788  25.815  1.00  0.00     0.032 C 
ENDBRANCH   1  26
TORSDOF 2
ENDMDL
MODEL 2
REMARK VINA RESULT: -6.682672426      1.153      1.934
REMARK  2 active torsions:
REMARK  status: ('A' for Active; 'I' for Inactive)
REMARK    1  A    between atoms: C2_2  and  N1_4 
REMARK       I    between atoms: C4_6  and  N3_8 
REMARK       I    between atoms: N3_8  and  C5_10 
REMARK       I    between atoms: C5_10  and  N4_12 
REMARK       I    between atoms: C6_14  and  N6_16 
REMARK    2  A    between atoms: N6_16  and  C7_18 
ROOT
HETATM    1  N1  UNL     1      43.353  -2.382  27.701  1.00  0.00    -0.360 N 
ATOM      2  H1  UNL     1      42.502  -2.893  27.467  1.00  0.00     0.162 HD
HETATM    3  C4  UNL     1      43.363  -1.770  28.805  1.00  0.00     0.192 C 
HETATM    4  N2  UNL     1      44.502  -1.037  29.208  1.00  0.00    -0.063 NA
HETATM    5  N3  UNL     1      42.229  -1.815  29.649  1.00  0.00    -0.283 N 
ATOM      6  H3  UNL     1      41.417  -2.350  29.341  1.00  0.00     0.173 HD
HETATM    7  C5  UNL     1      42.165  -1.154  30.905  1.00  0.00     0.329 C 
HETATM    8  O1  UNL     1      43.207  -0.497  31.250  1.00  0.00    -0.247 OA
HETATM    9  N4  UNL     1      41.018  -1.224  31.714  1.00  0.00    -0.283 N 
ATOM     10  H4  UNL     1      41.002  -1.935  32.445  1.00  0.00     0.173 HD
HETATM   11  C6  UNL     1      39.995  -0.468  31.605  1.00  0.00     0.192 C 
HETATM   12  N5  UNL     1      39.860   0.562  30.645  1.00  0.00    -0.063 NA
HETATM   13  N6  UNL     1      38.911  -0.673  32.510  1.00  0.00    -0.355 N 
ATOM     14  H6  UNL     1      38.153  -1.301  32.241  1.00  0.00     0.163 HD
ENDROOT
BRANCH  13  15
HETATM   15  C7  UNL     1      38.855  -0.023  33.782  1.00  0.00     0.035 C 
HETATM   16  C8  UNL     1      38.061   1.259  33.631  1.00  0.00     0.035 C 
HETATM   17  C9  UNL     1      38.021   1.994  34.943  1.00  0.00    -0.010 C 
HETATM   18  C10 UNL     1      37.429   1.098  36.006  1.00  0.00     0.009 C 
HETATM   19  C14 UNL     1      39.411   2.408  35.305  1.00  0.00     0.030 C 
HETATM   20  C11 UNL     1      38.286  -0.124  36.151  1.00  0.00    -0.010 C 
HETATM   21  C12 UNL     1      39.669   0.294  36.565  1.00  0.00     0.030 C 
HETATM   22  C16 UNL     1      38.283  -0.908  34.868  1.00  0.00     0.035 C 
HETATM   23  C13 UNL     1      40.253   1.169  35.468  1.00  0.00     0.040 C 
HETATM   24 CL1  UNL     1      41.933   1.596  35.848  1.00  0.00    -0.119 Cl
HETATM   25  C15 UNL     1      40.256   0.366  34.195  1.00  0.00     0.056 C 
ENDBRANCH  13  15
BRANCH   1  26
HETATM   26  C2  UNL     1      44.419  -2.430  26.742  1.00  0.00     0.076 C 
HETATM   27  C1  UNL     1      44.475  -1.197  25.864  1.00  0.00     0.032 C 
HETATM   28  C3  UNL     1      44.389  -3.696  25.914  1.00  0.00     0.032 C 
ENDBRANCH   1  26
TORSDOF 2
ENDMDL
MODEL 3
REMARK VINA RESULT: -6.675825491      4.625      5.705
REMARK  2 active torsions:
REMARK  status: ('A' for Active; 'I' for Inactive)
REMARK    1  A    between atoms: C2_2  and  N1_4 
REMARK       I    between atoms: C4_6  and  N3_8 
REMARK       I    between atoms: N3_8  and  C5_10 
REMARK       I    between atoms: C5_10  and  N4_12 
REMARK       I    between atoms: C6_14  and  N6_16 
REMARK    2  A    between atoms: N6_16  and  C7_18 
ROOT
HETATM    1  N1  UNL     1      43.771  -1.809  29.294  1.00  0.00    -0.360 N 
ATOM      2  H1  UNL     1      43.962  -0.881  28.917  1.00  0.00     0.162 HD
HETATM    3  C4  UNL     1      43.619  -1.894  30.545  1.00  0.00     0.192 C 
HETATM    4  N2  UNL     1      43.349  -3.142  31.150  1.00  0.00    -0.063 NA
HETATM    5  N3  UNL     1      43.718  -0.736  31.350  1.00  0.00    -0.283 N 
ATOM      6  H3  UNL     1      43.912   0.156  30.894  1.00  0.00     0.173 HD
HETATM    7  C5  UNL     1      43.559  -0.752  32.762  1.00  0.00     0.329 C 
HETATM    8  O1  UNL     1      43.316  -1.891  33.288  1.00  0.00    -0.247 OA
HETATM    9  N4  UNL     1      43.666   0.423  33.526  1.00  0.00    -0.283 N 
ATOM     10  H4  UNL     1      42.801   0.915  33.753  1.00  0.00     0.173 HD
HETATM   11  C6  UNL     1      44.758   0.922  33.958  1.00  0.00     0.192 C 
HETATM   12  N5  UNL     1      46.038   0.363  33.731  1.00  0.00    -0.063 NA
HETATM   13  N6  UNL     1      44.690   2.125  34.722  1.00  0.00    -0.355 N 
ATOM     14  H6  UNL     1      44.772   3.022  34.243  1.00  0.00     0.163 HD
ENDROOT
BRANCH  13  15
HETATM   15  C7  UNL     1      44.510   2.110  36.141  1.00  0.00     0.035 C 
HETATM   16  C8  UNL     1      44.474   3.542  36.634  1.00  0.00     0.035 C 
HETATM   17  C9  UNL     1      44.332   3.565  38.132  1.00  0.00    -0.010 C 
HETATM   18  C10 UNL     1      43.086   2.811  38.532  1.00  0.00     0.009 C 
HETATM   19  C14 UNL     1      45.550   2.947  38.739  1.00  0.00     0.030 C 
HETATM   20  C11 UNL     1      43.203   1.389  38.068  1.00  0.00    -0.010 C 
HETATM   21  C12 UNL     1      44.400   0.758  38.722  1.00  0.00     0.030 C 
HETATM   22  C16 UNL     1      43.277   1.343  36.567  1.00  0.00     0.035 C 
HETATM   23  C13 UNL     1      45.642   1.515  38.281  1.00  0.00     0.040 C 
HETATM   24 CL1  UNL     1      47.100   0.738  38.929  1.00  0.00    -0.119 Cl
HETATM   25  C15 UNL     1      45.709   1.448  36.780  1.00  0.00     0.056 C 
ENDBRANCH  13  15
BRANCH   1  26
HETATM   26  C2  UNL     1      43.701  -2.887  28.350  1.00  0.00     0.076 C 
HETATM   27  C1  UNL     1      44.359  -2.552  27.027  1.00  0.00     0.032 C 
HETATM   28  C3  UNL     1      42.286  -3.386  28.153  1.00  0.00     0.032 C 
ENDBRANCH   1  26
TORSDOF 2
ENDMDL
MODEL 4
REMARK VINA RESULT: -6.669037441      4.366      8.416
REMARK  2 active torsions:
REMARK  status: ('A' for Active; 'I' for Inactive)
REMARK    1  A    between atoms: C2_2  and  N1_4 
REMARK       I    between atoms: C4_6  and  N3_8 
REMARK       I    between atoms: N3_8  and  C5_10 
REMARK       I    between atoms: C5_10  and  N4_12 
REMARK       I    between atoms: C6_14  and  N6_16 
REMARK    2  A    between atoms: N6_16  and  C7_18 
ROOT
HETATM    1  N1  UNL     1      43.855   2.645  36.543  1.00  0.00    -0.360 N 
ATOM      2  H1  UNL     1      43.832   3.361  35.816  1.00  0.00     0.162 HD
HETATM    3  C4  UNL     1      43.844   1.443  36.156  1.00  0.00     0.192 C 
HETATM    4  N2  UNL     1      43.875   0.389  37.097  1.00  0.00    -0.063 NA
HETATM    5  N3  UNL     1      43.803   1.145  34.775  1.00  0.00    -0.283 N 
ATOM      6  H3  UNL     1      43.782   1.919  34.112  1.00  0.00     0.173 HD
HETATM    7  C5  UNL     1      43.789  -0.181  34.264  1.00  0.00     0.329 C 
HETATM    8  O1  UNL     1      43.817  -1.120  35.132  1.00  0.00    -0.247 OA
HETATM    9  N4  UNL     1      43.746  -0.435  32.882  1.00  0.00    -0.283 N 
ATOM     10  H4  UNL     1      44.634  -0.601  32.408  1.00  0.00     0.173 HD
HETATM   11  C6  UNL     1      42.684  -0.475  32.175  1.00  0.00     0.192 C 
HETATM   12  N5  UNL     1      41.379  -0.267  32.679  1.00  0.00    -0.063 NA
HETATM   13  N6  UNL     1      42.818  -0.747  30.781  1.00  0.00    -0.355 N 
ATOM     14  H6  UNL     1      42.911   0.034  30.130  1.00  0.00     0.163 HD
ENDROOT
BRANCH  13  15
HETATM   15  C7  UNL     1      42.824  -2.082  30.268  1.00  0.00     0.035 C 
HETATM   16  C8  UNL     1      41.477  -2.356  29.630  1.00  0.00     0.035 C 
HETATM   17  C9  UNL     1      41.431  -3.770  29.119  1.00  0.00    -0.010 C 
HETATM   18  C10 UNL     1      42.561  -3.991  28.141  1.00  0.00     0.009 C 
HETATM   19  C14 UNL     1      41.538  -4.705  30.281  1.00  0.00     0.030 C 
HETATM   20  C11 UNL     1      43.868  -3.761  28.842  1.00  0.00    -0.010 C 
HETATM   21  C12 UNL     1      43.993  -4.737  29.977  1.00  0.00     0.030 C 
HETATM   22  C16 UNL     1      43.960  -2.332  29.300  1.00  0.00     0.035 C 
HETATM   23  C13 UNL     1      42.863  -4.477  30.960  1.00  0.00     0.040 C 
HETATM   24 CL1  UNL     1      43.030  -5.523  32.383  1.00  0.00    -0.119 Cl
HETATM   25  C15 UNL     1      42.978  -3.048  31.419  1.00  0.00     0.056 C 
ENDBRANCH  13  15
BRANCH   1  26
HETATM   26  C2  UNL     1      43.895   3.106  37.901  1.00  0.00     0.076 C 
HETATM   27  C1  UNL     1      43.274   4.476  38.075  1.00  0.00     0.032 C 
HETATM   28  C3  UNL     1      45.291   3.054  38.483  1.00  0.00     0.032 C 
ENDBRANCH   1  26
TORSDOF 2
ENDMDL
MODEL 5
REMARK VINA RESULT: -6.637533508      4.247      5.147
REMARK  2 active torsions:
REMARK  status: ('A' for Active; 'I' for Inactive)
REMARK    1  A    between atoms: C2_2  and  N1_4 
REMARK       I    between atoms: C4_6  and  N3_8 
REMARK       I    between atoms: N3_8  and  C5_10 
REMARK       I    between atoms: C5_10  and  N4_12 
REMARK       I    between atoms: C6_14  and  N6_16 
REMARK    2  A    between atoms: N6_16  and  C7_18 
ROOT
HETATM    1  N1  UNL     1      43.728  -1.855  29.192  1.00  0.00    -0.360 N 
ATOM      2  H1  UNL     1      43.916  -0.932  28.803  1.00  0.00     0.162 HD
HETATM    3  C4  UNL     1      43.600  -1.927  30.447  1.00  0.00     0.192 C 
HETATM    4  N2  UNL     1      43.336  -3.168  31.070  1.00  0.00    -0.063 NA
HETATM    5  N3  UNL     1      43.720  -0.761  31.238  1.00  0.00    -0.283 N 
ATOM      6  H3  UNL     1      43.910   0.125  30.769  1.00  0.00     0.173 HD
HETATM    7  C5  UNL     1      43.589  -0.762  32.653  1.00  0.00     0.329 C 
HETATM    8  O1  UNL     1      43.350  -1.895  33.196  1.00  0.00    -0.247 OA
HETATM    9  N4  UNL     1      43.715   0.420  33.403  1.00  0.00    -0.283 N 
ATOM     10  H4  UNL     1      42.858   0.918  33.641  1.00  0.00     0.173 HD
HETATM   11  C6  UNL     1      44.819   0.917  33.808  1.00  0.00     0.192 C 
HETATM   12  N5  UNL     1      46.091   0.350  33.563  1.00  0.00    -0.063 NA
HETATM   13  N6  UNL     1      44.771   2.128  34.562  1.00  0.00    -0.355 N 
ATOM     14  H6  UNL     1      44.848   3.020  34.072  1.00  0.00     0.163 HD
ENDROOT
BRANCH  13  15
HETATM   15  C7  UNL     1      44.618   2.129  35.984  1.00  0.00     0.035 C 
HETATM   16  C8  UNL     1      43.448   1.235  36.340  1.00  0.00     0.035 C 
HETATM   17  C9  UNL     1      43.228   1.248  37.829  1.00  0.00    -0.010 C 
HETATM   18  C10 UNL     1      44.492   0.808  38.529  1.00  0.00     0.009 C 
HETATM   19  C14 UNL     1      42.838   2.629  38.245  1.00  0.00     0.030 C 
HETATM   20  C11 UNL     1      45.600   1.760  38.185  1.00  0.00    -0.010 C 
HETATM   21  C12 UNL     1      45.224   3.138  38.652  1.00  0.00     0.030 C 
HETATM   22  C16 UNL     1      45.879   1.710  36.708  1.00  0.00     0.035 C 
HETATM   23  C13 UNL     1      43.968   3.568  37.913  1.00  0.00     0.040 C 
HETATM   24 CL1  UNL     1      43.545   5.238  38.336  1.00  0.00    -0.119 Cl
HETATM   25  C15 UNL     1      44.268   3.527  36.439  1.00  0.00     0.056 C 
ENDBRANCH  13  15
BRANCH   1  26
HETATM   26  C2  UNL     1      43.635  -2.942  28.261  1.00  0.00     0.076 C 
HETATM   27  C1  UNL     1      44.201  -2.598  26.899  1.00  0.00     0.032 C 
HETATM   28  C3  UNL     1      42.227  -3.486  28.152  1.00  0.00     0.032 C 
ENDBRANCH   1  26
TORSDOF 2
ENDMDL
