MODEL 1
REMARK VINA RESULT: -5.859326325      0.000      0.000
REMARK  4 active torsions:
REMARK  status: ('A' for Active; 'I' for Inactive)
REMARK       I    between atoms: C1_2  and  N4_19 
REMARK       I    between atoms: N2_3  and  C2_5 
REMARK       I    between atoms: C2_5  and  N3_7 
REMARK    1  A    between atoms: N3_7  and  C3_9 
REMARK    2  A    between atoms: N4_19  and  C13_21 
REMARK    3  A    between atoms: C13_21  and  N5_23 
REMARK    4  A    between atoms: N5_23  and  C14_25 
ROOT
HETATM    1  N1  UNL     1      44.402  -3.844  28.890  1.00  0.00    -0.063 NA
HETATM    2  C1  UNL     1      43.373  -3.844  27.880  1.00  0.00     0.198 C 
HETATM    3  N2  UNL     1      42.215  -3.312  28.078  1.00  0.00    -0.283 N 
ATOM      4  H2  UNL     1      41.495  -3.319  27.355  1.00  0.00     0.173 HD
HETATM    5  C2  UNL     1      41.983  -2.715  29.348  1.00  0.00     0.323 C 
HETATM    6  O1  UNL     1      42.075  -1.464  29.391  1.00  0.00    -0.247 OA
HETATM    7  N3  UNL     1      41.667  -3.468  30.511  1.00  0.00    -0.334 N 
ATOM      8  H3  UNL     1      41.608  -4.482  30.415  1.00  0.00     0.165 HD
HETATM    9  N4  UNL     1      43.645  -4.447  26.636  1.00  0.00    -0.307 N 
ATOM     10  H4  UNL     1      43.468  -5.443  26.507  1.00  0.00     0.171 HD
ENDROOT
BRANCH   7  11
HETATM   11  C3  UNL     1      41.426  -2.912  31.805  1.00  0.00     0.035 C 
HETATM   12  C4  UNL     1      40.337  -1.863  31.819  1.00  0.00     0.035 C 
HETATM   13  C5  UNL     1      40.227  -1.306  33.217  1.00  0.00    -0.012 C 
HETATM   14  C6  UNL     1      39.813  -2.408  34.143  1.00  0.00     0.009 C 
HETATM   15  C10 UNL     1      41.511  -0.652  33.666  1.00  0.00     0.009 C 
HETATM   16  C7  UNL     1      40.950  -3.429  34.182  1.00  0.00    -0.012 C 
HETATM   17  C8  UNL     1      42.226  -2.811  34.652  1.00  0.00     0.009 C 
HETATM   18  C12 UNL     1      41.074  -4.003  32.785  1.00  0.00     0.035 C 
HETATM   19  C9  UNL     1      42.594  -1.696  33.673  1.00  0.00    -0.012 C 
HETATM   20  C11 UNL     1      42.716  -2.290  32.311  1.00  0.00     0.035 C 
ENDBRANCH   7  11
BRANCH   9  21
HETATM   21  C13 UNL     1      44.160  -3.686  25.573  1.00  0.00     0.174 C 
HETATM   22  S1  UNL     1      43.765  -4.112  24.023  1.00  0.00    -0.041 SA
BRANCH  21  23
HETATM   23  N5  UNL     1      44.997  -2.578  25.815  1.00  0.00    -0.354 N 
ATOM     24  H5  UNL     1      46.001  -2.722  25.911  1.00  0.00     0.163 HD
BRANCH  23  25
HETATM   25  C14 UNL     1      44.460  -1.253  25.926  1.00  0.00     0.237 C 
HETATM   26 CL1  UNL     1      44.704  -0.546  27.532  1.00  0.00    -0.109 Cl
ENDBRANCH  23  25
ENDBRANCH  21  23
ENDBRANCH   9  21
TORSDOF 4
ENDMDL
MODEL 2
REMARK VINA RESULT: -5.751595577      2.759      3.706
REMARK  4 active torsions:
REMARK  status: ('A' for Active; 'I' for Inactive)
REMARK       I    between atoms: C1_2  and  N4_19 
REMARK       I    between atoms: N2_3  and  C2_5 
REMARK       I    between atoms: C2_5  and  N3_7 
REMARK    1  A    between atoms: N3_7  and  C3_9 
REMARK    2  A    between atoms: N4_19  and  C13_21 
REMARK    3  A    between atoms: C13_21  and  N5_23 
REMARK    4  A    between atoms: N5_23  and  C14_25 
ROOT
HETATM    1  N1  UNL     1      42.812  -0.439  30.493  1.00  0.00    -0.063 NA
HETATM    2  C1  UNL     1      42.567  -1.747  29.935  1.00  0.00     0.198 C 
HETATM    3  N2  UNL     1      41.403  -2.302  29.969  1.00  0.00    -0.283 N 
ATOM      4  H2  UNL     1      41.243  -3.228  29.571  1.00  0.00     0.173 HD
HETATM    5  C2  UNL     1      40.352  -1.569  30.586  1.00  0.00     0.323 C 
HETATM    6  O1  UNL     1      39.561  -0.983  29.806  1.00  0.00    -0.247 OA
HETATM    7  N3  UNL     1      40.187  -1.489  31.995  1.00  0.00    -0.334 N 
ATOM      8  H3  UNL     1      40.862  -1.985  32.577  1.00  0.00     0.165 HD
HETATM    9  N4  UNL     1      43.637  -2.437  29.334  1.00  0.00    -0.307 N 
ATOM     10  H4  UNL     1      44.239  -3.032  29.903  1.00  0.00     0.171 HD
ENDROOT
BRANCH   7  11
HETATM   11  C3  UNL     1      39.147  -0.767  32.657  1.00  0.00     0.035 C 
HETATM   12  C4  UNL     1      39.004   0.661  32.179  1.00  0.00     0.035 C 
HETATM   13  C5  UNL     1      37.929   1.334  32.997  1.00  0.00    -0.012 C 
HETATM   14  C6  UNL     1      36.627   0.635  32.749  1.00  0.00     0.009 C 
HETATM   15  C10 UNL     1      38.275   1.365  34.465  1.00  0.00     0.009 C 
HETATM   16  C7  UNL     1      36.754  -0.785  33.302  1.00  0.00    -0.012 C 
HETATM   17  C8  UNL     1      37.068  -0.779  34.762  1.00  0.00     0.009 C 
HETATM   18  C12 UNL     1      37.828  -1.479  32.489  1.00  0.00     0.035 C 
HETATM   19  C9  UNL     1      38.400  -0.053  34.951  1.00  0.00    -0.012 C 
HETATM   20  C11 UNL     1      39.437  -0.761  34.147  1.00  0.00     0.035 C 
ENDBRANCH   7  11
BRANCH   9  21
HETATM   21  C13 UNL     1      43.882  -2.311  27.955  1.00  0.00     0.174 C 
HETATM   22  S1  UNL     1      44.643  -0.950  27.401  1.00  0.00    -0.041 SA
BRANCH  21  23
HETATM   23  N5  UNL     1      43.489  -3.323  27.057  1.00  0.00    -0.354 N 
ATOM     24  H5  UNL     1      42.520  -3.640  27.053  1.00  0.00     0.163 HD
BRANCH  23  25
HETATM   25  C14 UNL     1      44.428  -3.913  26.147  1.00  0.00     0.237 C 
HETATM   26 CL1  UNL     1      44.089  -3.512  24.455  1.00  0.00    -0.109 Cl
ENDBRANCH  23  25
ENDBRANCH  21  23
ENDBRANCH   9  21
TORSDOF 4
ENDMDL
MODEL 3
REMARK VINA RESULT: -5.744943139      2.732      3.709
REMARK  4 active torsions:
REMARK  status: ('A' for Active; 'I' for Inactive)
REMARK       I    between atoms: C1_2  and  N4_19 
REMARK       I    between atoms: N2_3  and  C2_5 
REMARK       I    between atoms: C2_5  and  N3_7 
REMARK    1  A    between atoms: N3_7  and  C3_9 
REMARK    2  A    between atoms: N4_19  and  C13_21 
REMARK    3  A    between atoms: C13_21  and  N5_23 
REMARK    4  A    between atoms: N5_23  and  C14_25 
ROOT
HETATM    1  N1  UNL     1      42.736  -0.445  30.438  1.00  0.00    -0.063 NA
HETATM    2  C1  UNL     1      42.574  -1.778  29.910  1.00  0.00     0.198 C 
HETATM    3  N2  UNL     1      41.450  -2.408  29.969  1.00  0.00    -0.283 N 
ATOM      4  H2  UNL     1      41.348  -3.351  29.592  1.00  0.00     0.173 HD
HETATM    5  C2  UNL     1      40.358  -1.734  30.582  1.00  0.00     0.323 C 
HETATM    6  O1  UNL     1      39.523  -1.218  29.799  1.00  0.00    -0.247 OA
HETATM    7  N3  UNL     1      40.202  -1.635  31.991  1.00  0.00    -0.334 N 
ATOM      8  H3  UNL     1      40.914  -2.073  32.576  1.00  0.00     0.165 HD
HETATM    9  N4  UNL     1      43.682  -2.408  29.311  1.00  0.00    -0.307 N 
ATOM     10  H4  UNL     1      44.327  -2.949  29.886  1.00  0.00     0.171 HD
ENDROOT
BRANCH   7  11
HETATM   11  C3  UNL     1      39.123  -0.969  32.649  1.00  0.00     0.035 C 
HETATM   12  C4  UNL     1      37.766  -1.556  32.331  1.00  0.00     0.035 C 
HETATM   13  C5  UNL     1      36.712  -0.729  33.024  1.00  0.00    -0.012 C 
HETATM   14  C6  UNL     1      36.919  -0.831  34.505  1.00  0.00     0.009 C 
HETATM   15  C10 UNL     1      36.723   0.705  32.557  1.00  0.00     0.009 C 
HETATM   16  C7  UNL     1      38.258  -0.169  34.830  1.00  0.00    -0.012 C 
HETATM   17  C8  UNL     1      38.282   1.261  34.402  1.00  0.00     0.009 C 
HETATM   18  C12 UNL     1      39.331  -0.990  34.143  1.00  0.00     0.035 C 
HETATM   19  C9  UNL     1      38.064   1.300  32.889  1.00  0.00    -0.012 C 
HETATM   20  C11 UNL     1      39.136   0.492  32.241  1.00  0.00     0.035 C 
ENDBRANCH   7  11
BRANCH   9  21
HETATM   21  C13 UNL     1      43.904  -2.296  27.928  1.00  0.00     0.174 C 
HETATM   22  S1  UNL     1      44.676  -0.950  27.350  1.00  0.00    -0.041 SA
BRANCH  21  23
HETATM   23  N5  UNL     1      43.480  -3.308  27.044  1.00  0.00    -0.354 N 
ATOM     24  H5  UNL     1      42.501  -3.591  27.040  1.00  0.00     0.163 HD
BRANCH  23  25
HETATM   25  C14 UNL     1      44.402  -3.945  26.149  1.00  0.00     0.237 C 
HETATM   26 CL1  UNL     1      44.150  -3.482  24.458  1.00  0.00    -0.109 Cl
ENDBRANCH  23  25
ENDBRANCH  21  23
ENDBRANCH   9  21
TORSDOF 4
ENDMDL
MODEL 4
REMARK VINA RESULT: -5.710315547      0.345      1.520
REMARK  4 active torsions:
REMARK  status: ('A' for Active; 'I' for Inactive)
REMARK       I    between atoms: C1_2  and  N4_19 
REMARK       I    between atoms: N2_3  and  C2_5 
REMARK       I    between atoms: C2_5  and  N3_7 
REMARK    1  A    between atoms: N3_7  and  C3_9 
REMARK    2  A    between atoms: N4_19  and  C13_21 
REMARK    3  A    between atoms: C13_21  and  N5_23 
REMARK    4  A    between atoms: N5_23  and  C14_25 
ROOT
HETATM    1  N1  UNL     1      44.468  -3.856  28.871  1.00  0.00    -0.063 NA
HETATM    2  C1  UNL     1      43.404  -3.736  27.904  1.00  0.00     0.198 C 
HETATM    3  N2  UNL     1      42.323  -3.076  28.150  1.00  0.00    -0.283 N 
ATOM      4  H2  UNL     1      41.578  -2.998  27.457  1.00  0.00     0.173 HD
HETATM    5  C2  UNL     1      42.215  -2.461  29.428  1.00  0.00     0.323 C 
HETATM    6  O1  UNL     1      42.450  -1.228  29.465  1.00  0.00    -0.247 OA
HETATM    7  N3  UNL     1      41.863  -3.177  30.603  1.00  0.00    -0.334 N 
ATOM      8  H3  UNL     1      41.685  -4.177  30.511  1.00  0.00     0.165 HD
HETATM    9  N4  UNL     1      43.555  -4.360  26.651  1.00  0.00    -0.307 N 
ATOM     10  H4  UNL     1      43.260  -5.329  26.530  1.00  0.00     0.171 HD
ENDROOT
BRANCH   7  11
HETATM   11  C3  UNL     1      41.741  -2.602  31.906  1.00  0.00     0.035 C 
HETATM   12  C4  UNL     1      42.929  -1.756  32.307  1.00  0.00     0.035 C 
HETATM   13  C5  UNL     1      42.713  -1.267  33.718  1.00  0.00    -0.012 C 
HETATM   14  C6  UNL     1      41.497  -0.391  33.743  1.00  0.00     0.009 C 
HETATM   15  C10 UNL     1      42.599  -2.407  34.699  1.00  0.00     0.009 C 
HETATM   16  C7  UNL     1      40.291  -1.268  33.409  1.00  0.00    -0.012 C 
HETATM   17  C8  UNL     1      40.141  -2.389  34.385  1.00  0.00     0.009 C 
HETATM   18  C12 UNL     1      40.488  -1.767  31.992  1.00  0.00     0.035 C 
HETATM   19  C9  UNL     1      41.407  -3.242  34.316  1.00  0.00    -0.012 C 
HETATM   20  C11 UNL     1      41.572  -3.723  32.915  1.00  0.00     0.035 C 
ENDBRANCH   7  11
BRANCH   9  21
HETATM   21  C13 UNL     1      44.108  -3.659  25.566  1.00  0.00     0.174 C 
HETATM   22  S1  UNL     1      43.725  -4.136  24.028  1.00  0.00    -0.041 SA
BRANCH  21  23
HETATM   23  N5  UNL     1      44.974  -2.568  25.777  1.00  0.00    -0.354 N 
ATOM     24  H5  UNL     1      45.975  -2.735  25.874  1.00  0.00     0.163 HD
BRANCH  23  25
HETATM   25  C14 UNL     1      44.473  -1.226  25.857  1.00  0.00     0.237 C 
HETATM   26 CL1  UNL     1      44.850  -0.443  27.401  1.00  0.00    -0.109 Cl
ENDBRANCH  23  25
ENDBRANCH  21  23
ENDBRANCH   9  21
TORSDOF 4
ENDMDL
MODEL 5
REMARK VINA RESULT: -5.670978200      4.707      5.995
REMARK  4 active torsions:
REMARK  status: ('A' for Active; 'I' for Inactive)
REMARK       I    between atoms: C1_2  and  N4_19 
REMARK       I    between atoms: N2_3  and  C2_5 
REMARK       I    between atoms: C2_5  and  N3_7 
REMARK    1  A    between atoms: N3_7  and  C3_9 
REMARK    2  A    between atoms: N4_19  and  C13_21 
REMARK    3  A    between atoms: C13_21  and  N5_23 
REMARK    4  A    between atoms: N5_23  and  C14_25 
ROOT
HETATM    1  N1  UNL     1      42.933  -1.601  33.178  1.00  0.00    -0.063 NA
HETATM    2  C1  UNL     1      43.380  -0.726  32.122  1.00  0.00     0.198 C 
HETATM    3  N2  UNL     1      44.168   0.271  32.344  1.00  0.00    -0.283 N 
ATOM      4  H2  UNL     1      44.477   0.883  31.588  1.00  0.00     0.173 HD
HETATM    5  C2  UNL     1      44.588   0.481  33.686  1.00  0.00     0.323 C 
HETATM    6  O1  UNL     1      45.742   0.076  33.970  1.00  0.00    -0.247 OA
HETATM    7  N3  UNL     1      43.770   1.108  34.664  1.00  0.00    -0.334 N 
ATOM      8  H3  UNL     1      42.841   1.415  34.375  1.00  0.00     0.165 HD
HETATM    9  N4  UNL     1      42.939  -0.971  30.808  1.00  0.00    -0.307 N 
ATOM     10  H4  UNL     1      42.064  -0.559  30.483  1.00  0.00     0.171 HD
ENDROOT
BRANCH   7  11
HETATM   11  C3  UNL     1      44.150   1.341  36.021  1.00  0.00     0.035 C 
HETATM   12  C4  UNL     1      45.416   2.156  36.164  1.00  0.00     0.035 C 
HETATM   13  C5  UNL     1      45.748   2.272  37.631  1.00  0.00    -0.012 C 
HETATM   14  C6  UNL     1      44.644   3.018  38.317  1.00  0.00     0.009 C 
HETATM   15  C10 UNL     1      45.988   0.923  38.263  1.00  0.00     0.009 C 
HETATM   16  C7  UNL     1      43.385   2.154  38.234  1.00  0.00    -0.012 C 
HETATM   17  C8  UNL     1      43.589   0.823  38.880  1.00  0.00     0.009 C 
HETATM   18  C12 UNL     1      43.033   2.029  36.766  1.00  0.00     0.035 C 
HETATM   19  C9  UNL     1      44.725   0.114  38.142  1.00  0.00    -0.012 C 
HETATM   20  C11 UNL     1      44.348  -0.001  36.704  1.00  0.00     0.035 C 
ENDBRANCH   7  11
BRANCH   9  21
HETATM   21  C13 UNL     1      43.695  -1.780  29.942  1.00  0.00     0.174 C 
HETATM   22  S1  UNL     1      43.512  -3.423  30.021  1.00  0.00    -0.041 SA
BRANCH  21  23
HETATM   23  N5  UNL     1      44.594  -1.208  29.020  1.00  0.00    -0.354 N 
ATOM     24  H5  UNL     1      45.521  -0.924  29.336  1.00  0.00     0.163 HD
BRANCH  23  25
HETATM   25  C14 UNL     1      44.229  -1.020  27.646  1.00  0.00     0.237 C 
HETATM   26 CL1  UNL     1      44.678  -2.394  26.622  1.00  0.00    -0.109 Cl
ENDBRANCH  23  25
ENDBRANCH  21  23
ENDBRANCH   9  21
TORSDOF 4
ENDMDL
