MODEL 1
REMARK VINA RESULT: -6.492249172      0.000      0.000
REMARK  2 active torsions:
REMARK  status: ('A' for Active; 'I' for Inactive)
REMARK       I    between atoms: N3_8  and  C4_10 
REMARK       I    between atoms: C4_10  and  N4_12 
REMARK    1  A    between atoms: N4_12  and  C5_14 
REMARK       I    between atoms: N5_17  and  C8_18 
REMARK       I    between atoms: C8_18  and  N6_20 
REMARK    2  A    between atoms: N6_20  and  C9_22 
ROOT
HETATM    1  C1  UNL     1      36.629   5.843  36.367  1.00  0.00     0.071 C 
HETATM    2  C2  UNL     1      37.923   5.183  36.685  1.00  0.00     0.047 A 
HETATM    3  N1  UNL     1      38.394   4.029  36.187  1.00  0.00    -0.302 N 
ATOM      4  H1  UNL     1      37.924   3.431  35.508  1.00  0.00     0.186 HD
HETATM    5  N2  UNL     1      39.578   3.804  36.733  1.00  0.00    -0.284 N 
ATOM      6  H2  UNL     1      40.166   2.993  36.534  1.00  0.00     0.188 HD
HETATM    7  C3  UNL     1      39.896   4.783  37.578  1.00  0.00     0.148 A 
HETATM    8  N3  UNL     1      40.968   4.933  38.311  1.00  0.00    -0.292 N 
ATOM      9  H3  UNL     1      41.074   5.745  38.919  1.00  0.00     0.172 HD
HETATM   10  C4  UNL     1      41.985   3.941  38.242  1.00  0.00     0.322 C 
HETATM   11  O1  UNL     1      41.838   2.910  38.941  1.00  0.00    -0.247 OA
HETATM   12  N4  UNL     1      43.143   4.053  37.435  1.00  0.00    -0.338 N 
ATOM     13  H4  UNL     1      43.286   4.881  36.858  1.00  0.00     0.164 HD
HETATM   14  C14 UNL     1      38.849   5.684  37.567  1.00  0.00     0.103 A 
HETATM   15 CL1  UNL     1      38.747   7.175  38.511  1.00  0.00    -0.078 Cl
ENDROOT
BRANCH  12  16
HETATM   16  C5  UNL     1      44.113   3.002  37.431  1.00  0.00     0.089 C 
HETATM   17  C6  UNL     1      45.044   3.056  36.247  1.00  0.00     0.045 C 
HETATM   18  C7  UNL     1      45.842   1.775  36.225  1.00  0.00     0.129 C 
HETATM   19  N5  UNL     1      46.299   1.331  37.503  1.00  0.00    -0.334 N 
HETATM   20  C8  UNL     1      47.442   0.487  37.600  1.00  0.00     0.318 C 
HETATM   21  C12 UNL     1      45.644   1.691  38.759  1.00  0.00     0.129 C 
HETATM   22  O2  UNL     1      47.843   0.104  38.730  1.00  0.00    -0.247 OA
HETATM   23  N6  UNL     1      48.144   0.065  36.448  1.00  0.00    -0.339 N 
ATOM     24  H6  UNL     1      47.834   0.365  35.523  1.00  0.00     0.164 HD
HETATM   25  C13 UNL     1      45.028   3.066  38.660  1.00  0.00     0.045 C 
BRANCH  23  26
HETATM   26  C9  UNL     1      49.318  -0.803  36.582  1.00  0.00     0.078 C 
HETATM   27  C10 UNL     1      50.378  -0.371  35.586  1.00  0.00     0.032 C 
HETATM   28  C11 UNL     1      48.882  -2.221  36.349  1.00  0.00     0.032 C 
ENDBRANCH  23  26
ENDBRANCH  12  16
TORSDOF 2
ENDMDL
MODEL 2
REMARK VINA RESULT: -6.443962801      8.144     11.497
REMARK  2 active torsions:
REMARK  status: ('A' for Active; 'I' for Inactive)
REMARK       I    between atoms: N3_8  and  C4_10 
REMARK       I    between atoms: C4_10  and  N4_12 
REMARK    1  A    between atoms: N4_12  and  C5_14 
REMARK       I    between atoms: N5_17  and  C8_18 
REMARK       I    between atoms: C8_18  and  N6_20 
REMARK    2  A    between atoms: N6_20  and  C9_22 
ROOT
HETATM    1  C1  UNL     1      45.148  -1.811  26.164  1.00  0.00     0.071 C 
HETATM    2  C2  UNL     1      44.231  -1.697  27.330  1.00  0.00     0.047 A 
HETATM    3  N1  UNL     1      44.062  -0.636  28.135  1.00  0.00    -0.302 N 
ATOM      4  H1  UNL     1      44.547   0.257  28.060  1.00  0.00     0.186 HD
HETATM    5  N2  UNL     1      43.155  -0.956  29.044  1.00  0.00    -0.284 N 
ATOM      6  H2  UNL     1      42.831  -0.335  29.786  1.00  0.00     0.188 HD
HETATM    7  C3  UNL     1      42.723  -2.202  28.855  1.00  0.00     0.148 A 
HETATM    8  N3  UNL     1      41.839  -2.887  29.530  1.00  0.00    -0.292 N 
ATOM      9  H3  UNL     1      41.607  -3.844  29.264  1.00  0.00     0.172 HD
HETATM   10  C4  UNL     1      41.204  -2.270  30.643  1.00  0.00     0.322 C 
HETATM   11  O1  UNL     1      41.817  -2.274  31.736  1.00  0.00    -0.247 OA
HETATM   12  N4  UNL     1      39.929  -1.655  30.583  1.00  0.00    -0.338 N 
ATOM     13  H4  UNL     1      39.411  -1.638  29.706  1.00  0.00     0.164 HD
HETATM   14  C14 UNL     1      43.399  -2.703  27.759  1.00  0.00     0.103 A 
HETATM   15 CL1  UNL     1      43.212  -4.319  27.067  1.00  0.00    -0.078 Cl
ENDROOT
BRANCH  12  16
HETATM   16  C5  UNL     1      39.370  -1.059  31.756  1.00  0.00     0.089 C 
HETATM   17  C6  UNL     1      39.542   0.438  31.802  1.00  0.00     0.045 C 
HETATM   18  C7  UNL     1      39.143   0.909  33.180  1.00  0.00     0.129 C 
HETATM   19  N5  UNL     1      37.974   0.284  33.712  1.00  0.00    -0.334 N 
HETATM   20  C8  UNL     1      37.199   0.946  34.707  1.00  0.00     0.318 C 
HETATM   21  C12 UNL     1      37.511  -1.038  33.295  1.00  0.00     0.129 C 
HETATM   22  O2  UNL     1      36.167   0.392  35.167  1.00  0.00    -0.247 OA
HETATM   23  N6  UNL     1      37.563   2.222  35.194  1.00  0.00    -0.339 N 
ATOM     24  H6  UNL     1      38.397   2.687  34.833  1.00  0.00     0.164 HD
HETATM   25  C13 UNL     1      37.857  -1.289  31.846  1.00  0.00     0.045 C 
BRANCH  23  26
HETATM   26  C9  UNL     1      36.743   2.877  36.217  1.00  0.00     0.078 C 
HETATM   27  C10 UNL     1      36.644   4.359  35.908  1.00  0.00     0.032 C 
HETATM   28  C11 UNL     1      37.377   2.630  37.555  1.00  0.00     0.032 C 
ENDBRANCH  23  26
ENDBRANCH  12  16
TORSDOF 2
ENDMDL
MODEL 3
REMARK VINA RESULT: -6.386504620      2.303      2.444
REMARK  2 active torsions:
REMARK  status: ('A' for Active; 'I' for Inactive)
REMARK       I    between atoms: N3_8  and  C4_10 
REMARK       I    between atoms: C4_10  and  N4_12 
REMARK    1  A    between atoms: N4_12  and  C5_14 
REMARK       I    between atoms: N5_17  and  C8_18 
REMARK       I    between atoms: C8_18  and  N6_20 
REMARK    2  A    between atoms: N6_20  and  C9_22 
ROOT
HETATM    1  C1  UNL     1      36.319   2.285  33.757  1.00  0.00     0.071 C 
HETATM    2  C2  UNL     1      37.657   2.040  34.357  1.00  0.00     0.047 A 
HETATM    3  N1  UNL     1      38.492   1.019  34.104  1.00  0.00    -0.302 N 
ATOM      4  H1  UNL     1      38.323   0.254  33.452  1.00  0.00     0.186 HD
HETATM    5  N2  UNL     1      39.572   1.182  34.849  1.00  0.00    -0.284 N 
ATOM      6  H2  UNL     1      40.373   0.550  34.858  1.00  0.00     0.188 HD
HETATM    7  C3  UNL     1      39.468   2.286  35.588  1.00  0.00     0.148 A 
HETATM    8  N3  UNL     1      40.311   2.795  36.446  1.00  0.00    -0.292 N 
ATOM      9  H3  UNL     1      40.092   3.658  36.943  1.00  0.00     0.172 HD
HETATM   10  C4  UNL     1      41.543   2.120  36.673  1.00  0.00     0.322 C 
HETATM   11  O1  UNL     1      41.538   1.159  37.478  1.00  0.00    -0.247 OA
HETATM   12  N4  UNL     1      42.762   2.470  36.044  1.00  0.00    -0.338 N 
ATOM     13  H4  UNL     1      42.792   3.248  35.385  1.00  0.00     0.164 HD
HETATM   14  C14 UNL     1      38.246   2.858  35.291  1.00  0.00     0.103 A 
HETATM   15 CL1  UNL     1      37.593   4.345  35.989  1.00  0.00    -0.078 Cl
ENDROOT
BRANCH  12  16
HETATM   16  C5  UNL     1      43.952   1.732  36.335  1.00  0.00     0.089 C 
HETATM   17  C6  UNL     1      44.885   1.619  35.157  1.00  0.00     0.045 C 
HETATM   18  C7  UNL     1      45.962   0.624  35.512  1.00  0.00     0.129 C 
HETATM   19  N5  UNL     1      46.467   0.735  36.844  1.00  0.00    -0.334 N 
HETATM   20  C8  UNL     1      47.773   0.260  37.156  1.00  0.00     0.318 C 
HETATM   21  C12 UNL     1      45.702   1.317  37.945  1.00  0.00     0.129 C 
HETATM   22  O2  UNL     1      48.213   0.367  38.330  1.00  0.00    -0.247 OA
HETATM   23  N6  UNL     1      48.594  -0.334  36.171  1.00  0.00    -0.339 N 
ATOM     24  H6  UNL     1      48.255  -0.429  35.213  1.00  0.00     0.164 HD
HETATM   25  C13 UNL     1      44.782   2.402  37.437  1.00  0.00     0.045 C 
BRANCH  23  26
HETATM   26  C9  UNL     1      49.934  -0.812  36.525  1.00  0.00     0.078 C 
HETATM   27  C10 UNL     1      50.884  -0.541  35.373  1.00  0.00     0.032 C 
HETATM   28  C11 UNL     1      49.842  -2.277  36.837  1.00  0.00     0.032 C 
ENDBRANCH  23  26
ENDBRANCH  12  16
TORSDOF 2
ENDMDL
MODEL 4
REMARK VINA RESULT: -6.302498305      7.302     10.736
REMARK  2 active torsions:
REMARK  status: ('A' for Active; 'I' for Inactive)
REMARK       I    between atoms: N3_8  and  C4_10 
REMARK       I    between atoms: C4_10  and  N4_12 
REMARK    1  A    between atoms: N4_12  and  C5_14 
REMARK       I    between atoms: N5_17  and  C8_18 
REMARK       I    between atoms: C8_18  and  N6_20 
REMARK    2  A    between atoms: N6_20  and  C9_22 
ROOT
HETATM    1  C1  UNL     1      44.754  -2.510  26.177  1.00  0.00     0.071 C 
HETATM    2  C2  UNL     1      44.174  -1.983  27.441  1.00  0.00     0.047 A 
HETATM    3  N1  UNL     1      43.763  -0.729  27.690  1.00  0.00    -0.302 N 
ATOM      4  H1  UNL     1      43.792   0.053  27.037  1.00  0.00     0.186 HD
HETATM    5  N2  UNL     1      43.316  -0.687  28.934  1.00  0.00    -0.284 N 
ATOM      6  H2  UNL     1      42.941   0.145  29.390  1.00  0.00     0.188 HD
HETATM    7  C3  UNL     1      43.421  -1.885  29.509  1.00  0.00     0.148 A 
HETATM    8  N3  UNL     1      43.093  -2.259  30.717  1.00  0.00    -0.292 N 
ATOM      9  H3  UNL     1      43.234  -3.223  31.021  1.00  0.00     0.172 HD
HETATM   10  C4  UNL     1      42.535  -1.294  31.601  1.00  0.00     0.322 C 
HETATM   11  O1  UNL     1      43.327  -0.541  32.214  1.00  0.00    -0.247 OA
HETATM   12  N4  UNL     1      41.144  -1.140  31.823  1.00  0.00    -0.338 N 
ATOM     13  H4  UNL     1      40.479  -1.740  31.337  1.00  0.00     0.164 HD
HETATM   14  C14 UNL     1      43.970  -2.737  28.571  1.00  0.00     0.103 A 
HETATM   15 CL1  UNL     1      44.330  -4.453  28.804  1.00  0.00    -0.078 Cl
ENDROOT
BRANCH  12  16
HETATM   16  C5  UNL     1      40.675  -0.141  32.732  1.00  0.00     0.089 C 
HETATM   17  C6  UNL     1      39.188   0.088  32.648  1.00  0.00     0.045 C 
HETATM   18  C7  UNL     1      38.860   1.318  33.459  1.00  0.00     0.129 C 
HETATM   19  N5  UNL     1      39.553   1.416  34.705  1.00  0.00    -0.334 N 
HETATM   20  C8  UNL     1      39.003   2.187  35.770  1.00  0.00     0.318 C 
HETATM   21  C12 UNL     1      40.834   0.763  34.965  1.00  0.00     0.129 C 
HETATM   22  O2  UNL     1      39.615   2.264  36.866  1.00  0.00    -0.247 OA
HETATM   23  N6  UNL     1      37.776   2.873  35.623  1.00  0.00    -0.339 N 
ATOM     24  H6  UNL     1      37.265   2.822  34.741  1.00  0.00     0.164 HD
HETATM   25  C13 UNL     1      40.936  -0.531  34.192  1.00  0.00     0.045 C 
BRANCH  23  26
HETATM   26  C9  UNL     1      37.237   3.656  36.739  1.00  0.00     0.078 C 
HETATM   27  C10 UNL     1      36.175   2.844  37.456  1.00  0.00     0.032 C 
HETATM   28  C11 UNL     1      36.679   4.936  36.187  1.00  0.00     0.032 C 
ENDBRANCH  23  26
ENDBRANCH  12  16
TORSDOF 2
ENDMDL
MODEL 5
REMARK VINA RESULT: -6.199900322      8.475     10.396
REMARK  2 active torsions:
REMARK  status: ('A' for Active; 'I' for Inactive)
REMARK       I    between atoms: N3_8  and  C4_10 
REMARK       I    between atoms: C4_10  and  N4_12 
REMARK    1  A    between atoms: N4_12  and  C5_14 
REMARK       I    between atoms: N5_17  and  C8_18 
REMARK       I    between atoms: C8_18  and  N6_20 
REMARK    2  A    between atoms: N6_20  and  C9_22 
ROOT
HETATM    1  C1  UNL     1      44.145  -4.325  25.208  1.00  0.00     0.071 C 
HETATM    2  C2  UNL     1      43.679  -3.737  26.492  1.00  0.00     0.047 A 
HETATM    3  N1  UNL     1      43.043  -4.364  27.494  1.00  0.00    -0.302 N 
ATOM      4  H1  UNL     1      42.784  -5.350  27.517  1.00  0.00     0.186 HD
HETATM    5  N2  UNL     1      42.810  -3.476  28.447  1.00  0.00    -0.284 N 
ATOM      6  H2  UNL     1      42.338  -3.680  29.329  1.00  0.00     0.188 HD
HETATM    7  C3  UNL     1      43.279  -2.280  28.095  1.00  0.00     0.148 A 
HETATM    8  N3  UNL     1      43.249  -1.150  28.751  1.00  0.00    -0.292 N 
ATOM      9  H3  UNL     1      43.654  -0.304  28.349  1.00  0.00     0.172 HD
HETATM   10  C4  UNL     1      42.641  -1.124  30.036  1.00  0.00     0.322 C 
HETATM   11  O1  UNL     1      41.394  -1.010  30.086  1.00  0.00    -0.247 OA
HETATM   12  N4  UNL     1      43.362  -1.220  31.252  1.00  0.00    -0.338 N 
ATOM     13  H4  UNL     1      44.377  -1.313  31.238  1.00  0.00     0.164 HD
HETATM   14  C14 UNL     1      43.843  -2.418  26.842  1.00  0.00     0.103 A 
HETATM   15 CL1  UNL     1      44.614  -1.138  25.898  1.00  0.00    -0.078 Cl
ENDROOT
BRANCH  12  16
HETATM   16  C5  UNL     1      42.664  -1.184  32.499  1.00  0.00     0.089 C 
HETATM   17  C6  UNL     1      42.566  -2.533  33.165  1.00  0.00     0.045 C 
HETATM   18  C7  UNL     1      41.608  -2.410  34.324  1.00  0.00     0.129 C 
HETATM   19  N5  UNL     1      41.748  -1.216  35.095  1.00  0.00    -0.334 N 
HETATM   20  C8  UNL     1      41.316  -1.185  36.452  1.00  0.00     0.318 C 
HETATM   21  C12 UNL     1      42.318   0.020  34.562  1.00  0.00     0.129 C 
HETATM   22  O2  UNL     1      41.449  -0.131  37.127  1.00  0.00    -0.247 OA
HETATM   23  N6  UNL     1      40.737  -2.320  37.065  1.00  0.00    -0.339 N 
ATOM     24  H6  UNL     1      40.621  -3.183  36.534  1.00  0.00     0.164 HD
HETATM   25  C13 UNL     1      43.370  -0.286  33.522  1.00  0.00     0.045 C 
BRANCH  23  26
HETATM   26  C9  UNL     1      40.304  -2.255  38.464  1.00  0.00     0.078 C 
HETATM   27  C10 UNL     1      41.208  -3.132  39.310  1.00  0.00     0.032 C 
HETATM   28  C11 UNL     1      38.873  -2.704  38.533  1.00  0.00     0.032 C 
ENDBRANCH  23  26
ENDBRANCH  12  16
TORSDOF 2
ENDMDL
