MODEL 1
REMARK VINA RESULT: -6.438020913      0.000      0.000
REMARK  5 active torsions:
REMARK  status: ('A' for Active; 'I' for Inactive)
REMARK    1  A    between atoms: N1_2  and  C3_4 
REMARK    2  A    between atoms: C3_4  and  C4_8 
REMARK    3  A    between atoms: C4_8  and  C5_9 
REMARK    4  A    between atoms: C5_9  and  C6_10 
REMARK    5  A    between atoms: C8_12  and  N3_13 
REMARK       I    between atoms: N3_13  and  C9_15 
REMARK       I    between atoms: C9_15  and  N4_17 
ROOT
HETATM    1  C6  UNL     1      43.119  -4.339  30.827  1.00  0.00     0.030 A 
HETATM    2  C7  UNL     1      43.728  -5.459  30.315  1.00  0.00     0.076 A 
HETATM    3  C8  UNL     1      42.956  -6.545  30.653  1.00  0.00     0.125 A 
HETATM    4  N6  UNL     1      41.911  -6.071  31.352  1.00  0.00    -0.285 N 
ATOM      5  H6  UNL     1      41.159  -6.637  31.743  1.00  0.00     0.188 HD
HETATM    6  N7  UNL     1      42.012  -4.760  31.452  1.00  0.00    -0.303 N 
ATOM      7  H7  UNL     1      41.345  -4.157  31.933  1.00  0.00     0.186 HD
ENDROOT
BRANCH   1   8
HETATM    8  C5  UNL     1      43.601  -2.968  30.703  1.00  0.00     0.076 C 
BRANCH   8   9
HETATM    9  C4  UNL     1      43.022  -2.183  29.557  1.00  0.00     0.023 C 
HETATM   10  C14 UNL     1      41.835  -2.742  28.860  1.00  0.00     0.018 C 
HETATM   11  C15 UNL     1      40.925  -1.781  29.602  1.00  0.00     0.002 C 
HETATM   12  C16 UNL     1      42.176  -0.998  29.965  1.00  0.00     0.018 C 
BRANCH   9  13
HETATM   13  C3  UNL     1      44.102  -1.800  28.615  1.00  0.00     0.081 C 
HETATM   14  N2  UNL     1      45.029  -0.940  28.854  1.00  0.00    -0.388 N 
ATOM     15  H22 UNL     1      45.772  -0.678  28.206  1.00  0.00     0.157 HD
ATOM     16  H21 UNL     1      44.974  -0.522  29.782  1.00  0.00     0.157 HD
BRANCH  13  17
HETATM   17  N1  UNL     1      44.179  -2.393  27.299  1.00  0.00    -0.379 N 
HETATM   18  C1  UNL     1      44.106  -3.826  27.130  1.00  0.00     0.150 C 
HETATM   19  C2  UNL     1      44.329  -1.480  26.190  1.00  0.00     0.150 C 
ENDBRANCH  13  17
ENDBRANCH   9  13
ENDBRANCH   8   9
ENDBRANCH   1   8
BRANCH   3  20
HETATM   20  N3  UNL     1      43.129  -7.803  30.391  1.00  0.00    -0.293 N 
HETATM   21  C9  UNL     1      43.458  -8.721  31.398  1.00  0.00     0.324 C 
HETATM   22  O1  UNL     1      42.818  -8.762  32.473  1.00  0.00    -0.247 OA
HETATM   23  N4  UNL     1      44.534  -9.628  31.220  1.00  0.00    -0.331 N 
HETATM   24  C10 UNL     1      44.897 -10.579  32.234  1.00  0.00     0.155 C 
HETATM   25  C13 UNL     1      45.304  -9.616  29.990  1.00  0.00     0.155 C 
HETATM   26  C11 UNL     1      46.062 -11.404  31.697  1.00  0.00     0.252 C 
HETATM   27  N5  UNL     1      47.168 -10.506  31.334  1.00  0.00    -0.072 N 
HETATM   28  C12 UNL     1      46.782  -9.614  30.281  1.00  0.00     0.252 C 
ATOM     29  H52 UNL     1      47.523 -10.000  32.145  1.00  0.00     0.277 HD
ATOM     30  H51 UNL     1      48.012 -11.027  31.095  1.00  0.00     0.277 HD
ATOM     31  H3  UNL     1      43.023  -8.131  29.431  1.00  0.00     0.172 HD
ENDBRANCH   3  20
TORSDOF 5
ENDMDL
MODEL 2
REMARK VINA RESULT: -6.378599832      5.672      8.300
REMARK  5 active torsions:
REMARK  status: ('A' for Active; 'I' for Inactive)
REMARK    1  A    between atoms: N1_2  and  C3_4 
REMARK    2  A    between atoms: C3_4  and  C4_8 
REMARK    3  A    between atoms: C4_8  and  C5_9 
REMARK    4  A    between atoms: C5_9  and  C6_10 
REMARK    5  A    between atoms: C8_12  and  N3_13 
REMARK       I    between atoms: N3_13  and  C9_15 
REMARK       I    between atoms: C9_15  and  N4_17 
ROOT
HETATM    1  C6  UNL     1      43.395  -1.372  32.102  1.00  0.00     0.030 A 
HETATM    2  C7  UNL     1      42.774  -1.167  33.310  1.00  0.00     0.076 A 
HETATM    3  C8  UNL     1      43.367  -0.079  33.905  1.00  0.00     0.125 A 
HETATM    4  N6  UNL     1      44.321   0.348  33.061  1.00  0.00    -0.285 N 
ATOM      5  H6  UNL     1      44.938   1.143  33.223  1.00  0.00     0.188 HD
HETATM    6  N7  UNL     1      44.334  -0.423  31.991  1.00  0.00    -0.303 N 
ATOM      7  H7  UNL     1      44.964  -0.312  31.197  1.00  0.00     0.186 HD
ENDROOT
BRANCH   1   8
HETATM    8  C5  UNL     1      43.080  -2.424  31.143  1.00  0.00     0.076 C 
BRANCH   8   9
HETATM    9  C4  UNL     1      42.359  -1.970  29.902  1.00  0.00     0.023 C 
HETATM   10  C14 UNL     1      41.168  -2.742  29.467  1.00  0.00     0.018 C 
HETATM   11  C15 UNL     1      40.248  -1.682  30.042  1.00  0.00     0.002 C 
HETATM   12  C16 UNL     1      41.462  -0.768  30.095  1.00  0.00     0.018 C 
BRANCH   9  13
HETATM   13  C3  UNL     1      43.334  -1.768  28.802  1.00  0.00     0.081 C 
HETATM   14  N2  UNL     1      43.825  -0.635  28.441  1.00  0.00    -0.388 N 
ATOM     15  H22 UNL     1      44.496  -0.496  27.684  1.00  0.00     0.157 HD
ATOM     16  H21 UNL     1      43.489   0.155  28.991  1.00  0.00     0.157 HD
BRANCH  13  17
HETATM   17  N1  UNL     1      43.810  -2.887  28.022  1.00  0.00    -0.379 N 
HETATM   18  C1  UNL     1      44.046  -4.172  28.641  1.00  0.00     0.150 C 
HETATM   19  C2  UNL     1      44.027  -2.645  26.614  1.00  0.00     0.150 C 
ENDBRANCH  13  17
ENDBRANCH   9  13
ENDBRANCH   8   9
ENDBRANCH   1   8
BRANCH   3  20
HETATM   20  N3  UNL     1      43.117   0.485  35.045  1.00  0.00    -0.293 N 
HETATM   21  C9  UNL     1      43.821   1.619  35.469  1.00  0.00     0.324 C 
HETATM   22  O1  UNL     1      43.975   2.608  34.716  1.00  0.00    -0.247 OA
HETATM   23  N4  UNL     1      44.382   1.673  36.771  1.00  0.00    -0.331 N 
HETATM   24  C10 UNL     1      45.111   2.821  37.235  1.00  0.00     0.155 C 
HETATM   25  C13 UNL     1      44.229   0.551  37.679  1.00  0.00     0.155 C 
HETATM   26  C11 UNL     1      45.537   2.547  38.673  1.00  0.00     0.252 C 
HETATM   27  N5  UNL     1      46.330   1.309  38.720  1.00  0.00    -0.072 N 
HETATM   28  C12 UNL     1      45.548   0.182  38.305  1.00  0.00     0.252 C 
ATOM     29  H52 UNL     1      47.189   1.392  38.176  1.00  0.00     0.277 HD
ATOM     30  H51 UNL     1      46.743   1.162  39.641  1.00  0.00     0.277 HD
ATOM     31  H3  UNL     1      42.391   0.094  35.646  1.00  0.00     0.172 HD
ENDBRANCH   3  20
TORSDOF 5
ENDMDL
MODEL 3
REMARK VINA RESULT: -6.293587280      4.827      8.606
REMARK  5 active torsions:
REMARK  status: ('A' for Active; 'I' for Inactive)
REMARK    1  A    between atoms: N1_2  and  C3_4 
REMARK    2  A    between atoms: C3_4  and  C4_8 
REMARK    3  A    between atoms: C4_8  and  C5_9 
REMARK    4  A    between atoms: C5_9  and  C6_10 
REMARK    5  A    between atoms: C8_12  and  N3_13 
REMARK       I    between atoms: N3_13  and  C9_15 
REMARK       I    between atoms: C9_15  and  N4_17 
ROOT
HETATM    1  C6  UNL     1      41.006  -1.876  29.881  1.00  0.00     0.030 A 
HETATM    2  C7  UNL     1      40.308  -2.219  31.014  1.00  0.00     0.076 A 
HETATM    3  C8  UNL     1      39.856  -1.058  31.593  1.00  0.00     0.125 A 
HETATM    4  N6  UNL     1      40.281  -0.050  30.815  1.00  0.00    -0.285 N 
ATOM      5  H6  UNL     1      40.104   0.940  30.983  1.00  0.00     0.188 HD
HETATM    6  N7  UNL     1      40.963  -0.540  29.799  1.00  0.00    -0.303 N 
ATOM      7  H7  UNL     1      41.394   0.015  29.060  1.00  0.00     0.186 HD
ENDROOT
BRANCH   1   8
HETATM    8  C5  UNL     1      41.659  -2.802  28.963  1.00  0.00     0.076 C 
BRANCH   8   9
HETATM    9  C4  UNL     1      43.106  -3.091  29.260  1.00  0.00     0.023 C 
HETATM   10  C14 UNL     1      43.532  -3.119  30.682  1.00  0.00     0.018 C 
HETATM   11  C15 UNL     1      43.528  -4.636  30.673  1.00  0.00     0.002 C 
HETATM   12  C16 UNL     1      43.494  -4.549  29.156  1.00  0.00     0.018 C 
BRANCH   9  13
HETATM   13  C3  UNL     1      43.973  -2.222  28.427  1.00  0.00     0.081 C 
HETATM   14  N2  UNL     1      44.685  -1.244  28.861  1.00  0.00    -0.388 N 
ATOM     15  H22 UNL     1      45.282  -0.646  28.288  1.00  0.00     0.157 HD
ATOM     16  H21 UNL     1      44.619  -1.100  29.869  1.00  0.00     0.157 HD
BRANCH  13  17
HETATM   17  N1  UNL     1      44.067  -2.425  26.999  1.00  0.00    -0.379 N 
HETATM   18  C1  UNL     1      43.912  -3.744  26.429  1.00  0.00     0.150 C 
HETATM   19  C2  UNL     1      44.319  -1.250  26.197  1.00  0.00     0.150 C 
ENDBRANCH  13  17
ENDBRANCH   9  13
ENDBRANCH   8   9
ENDBRANCH   1   8
BRANCH   3  20
HETATM   20  N3  UNL     1      39.156  -0.884  32.670  1.00  0.00    -0.293 N 
HETATM   21  C9  UNL     1      38.305   0.220  32.818  1.00  0.00     0.324 C 
HETATM   22  O1  UNL     1      37.490   0.537  31.921  1.00  0.00    -0.247 OA
HETATM   23  N4  UNL     1      38.349   1.010  33.995  1.00  0.00    -0.331 N 
HETATM   24  C10 UNL     1      37.491   2.149  34.175  1.00  0.00     0.155 C 
HETATM   25  C13 UNL     1      39.278   0.682  35.061  1.00  0.00     0.155 C 
HETATM   26  C11 UNL     1      37.785   2.735  35.552  1.00  0.00     0.252 C 
HETATM   27  N5  UNL     1      39.213   3.075  35.643  1.00  0.00    -0.072 N 
HETATM   28  C12 UNL     1      40.030   1.905  35.516  1.00  0.00     0.252 C 
ATOM     29  H52 UNL     1      39.472   3.791  34.964  1.00  0.00     0.277 HD
ATOM     30  H51 UNL     1      39.423   3.590  36.498  1.00  0.00     0.277 HD
ATOM     31  H3  UNL     1      39.226  -1.565  33.426  1.00  0.00     0.172 HD
ENDBRANCH   3  20
TORSDOF 5
ENDMDL
MODEL 4
REMARK VINA RESULT: -6.258576917      4.665      7.145
REMARK  5 active torsions:
REMARK  status: ('A' for Active; 'I' for Inactive)
REMARK    1  A    between atoms: N1_2  and  C3_4 
REMARK    2  A    between atoms: C3_4  and  C4_8 
REMARK    3  A    between atoms: C4_8  and  C5_9 
REMARK    4  A    between atoms: C5_9  and  C6_10 
REMARK    5  A    between atoms: C8_12  and  N3_13 
REMARK       I    between atoms: N3_13  and  C9_15 
REMARK       I    between atoms: C9_15  and  N4_17 
ROOT
HETATM    1  C6  UNL     1      39.754  -3.572  31.366  1.00  0.00     0.030 A 
HETATM    2  C7  UNL     1      40.714  -3.709  30.393  1.00  0.00     0.076 A 
HETATM    3  C8  UNL     1      41.912  -3.299  30.928  1.00  0.00     0.125 A 
HETATM    4  N6  UNL     1      41.660  -2.927  32.193  1.00  0.00    -0.285 N 
ATOM      5  H6  UNL     1      42.353  -2.573  32.853  1.00  0.00     0.188 HD
HETATM    6  N7  UNL     1      40.377  -3.092  32.450  1.00  0.00    -0.303 N 
ATOM      7  H7  UNL     1      39.927  -2.885  33.341  1.00  0.00     0.186 HD
ENDROOT
BRANCH   1   8
HETATM    8  C5  UNL     1      38.338  -3.893  31.225  1.00  0.00     0.076 C 
BRANCH   8   9
HETATM    9  C4  UNL     1      37.443  -2.727  30.901  1.00  0.00     0.023 C 
HETATM   10  C14 UNL     1      37.809  -1.870  29.745  1.00  0.00     0.018 C 
HETATM   11  C15 UNL     1      36.758  -2.546  28.886  1.00  0.00     0.002 C 
HETATM   12  C16 UNL     1      36.167  -3.093  30.175  1.00  0.00     0.018 C 
BRANCH   9  13
HETATM   13  C3  UNL     1      37.180  -1.940  32.130  1.00  0.00     0.081 C 
HETATM   14  N2  UNL     1      36.771  -2.421  33.250  1.00  0.00    -0.388 N 
ATOM     15  H22 UNL     1      36.591  -1.879  34.096  1.00  0.00     0.157 HD
ATOM     16  H21 UNL     1      36.639  -3.432  33.241  1.00  0.00     0.157 HD
BRANCH  13  17
HETATM   17  N1  UNL     1      37.368  -0.507  32.143  1.00  0.00    -0.379 N 
HETATM   18  C1  UNL     1      38.695   0.064  32.183  1.00  0.00     0.150 C 
HETATM   19  C2  UNL     1      36.169   0.300  32.110  1.00  0.00     0.150 C 
ENDBRANCH  13  17
ENDBRANCH   9  13
ENDBRANCH   8   9
ENDBRANCH   1   8
BRANCH   3  20
HETATM   20  N3  UNL     1      43.090  -3.249  30.389  1.00  0.00    -0.293 N 
HETATM   21  C9  UNL     1      43.507  -2.136  29.646  1.00  0.00     0.324 C 
HETATM   22  O1  UNL     1      43.371  -0.972  30.086  1.00  0.00    -0.247 OA
HETATM   23  N4  UNL     1      44.096  -2.306  28.366  1.00  0.00    -0.331 N 
HETATM   24  C10 UNL     1      44.532  -1.186  27.579  1.00  0.00     0.155 C 
HETATM   25  C13 UNL     1      44.274  -3.636  27.814  1.00  0.00     0.155 C 
HETATM   26  C11 UNL     1      45.137  -1.734  26.291  1.00  0.00     0.252 C 
HETATM   27  N5  UNL     1      44.141  -2.565  25.599  1.00  0.00    -0.072 N 
HETATM   28  C12 UNL     1      43.777  -3.701  26.394  1.00  0.00     0.252 C 
ATOM     29  H52 UNL     1      43.323  -2.021  25.325  1.00  0.00     0.277 HD
ATOM     30  H51 UNL     1      44.461  -2.842  24.671  1.00  0.00     0.277 HD
ATOM     31  H3  UNL     1      43.727  -4.037  30.509  1.00  0.00     0.172 HD
ENDBRANCH   3  20
TORSDOF 5
ENDMDL
MODEL 5
REMARK VINA RESULT: -6.193922960      4.675      6.916
REMARK  5 active torsions:
REMARK  status: ('A' for Active; 'I' for Inactive)
REMARK    1  A    between atoms: N1_2  and  C3_4 
REMARK    2  A    between atoms: C3_4  and  C4_8 
REMARK    3  A    between atoms: C4_8  and  C5_9 
REMARK    4  A    between atoms: C5_9  and  C6_10 
REMARK    5  A    between atoms: C8_12  and  N3_13 
REMARK       I    between atoms: N3_13  and  C9_15 
REMARK       I    between atoms: C9_15  and  N4_17 
ROOT
HETATM    1  C6  UNL     1      39.830  -3.553  31.530  1.00  0.00     0.030 A 
HETATM    2  C7  UNL     1      40.808  -3.872  30.620  1.00  0.00     0.076 A 
HETATM    3  C8  UNL     1      41.952  -3.204  30.985  1.00  0.00     0.125 A 
HETATM    4  N6  UNL     1      41.652  -2.505  32.091  1.00  0.00    -0.285 N 
ATOM      5  H6  UNL     1      42.298  -1.905  32.603  1.00  0.00     0.188 HD
HETATM    6  N7  UNL     1      40.390  -2.716  32.412  1.00  0.00    -0.303 N 
ATOM      7  H7  UNL     1      39.913  -2.303  33.213  1.00  0.00     0.186 HD
ENDROOT
BRANCH   1   8
HETATM    8  C5  UNL     1      38.456  -4.042  31.520  1.00  0.00     0.076 C 
BRANCH   8   9
HETATM    9  C4  UNL     1      37.596  -3.525  30.398  1.00  0.00     0.023 C 
HETATM   10  C14 UNL     1      36.227  -3.058  30.730  1.00  0.00     0.018 C 
HETATM   11  C15 UNL     1      36.684  -1.613  30.661  1.00  0.00     0.002 C 
HETATM   12  C16 UNL     1      37.925  -2.121  29.945  1.00  0.00     0.018 C 
BRANCH   9  13
HETATM   13  C3  UNL     1      37.607  -4.492  29.273  1.00  0.00     0.081 C 
HETATM   14  N2  UNL     1      37.713  -4.185  28.028  1.00  0.00    -0.388 N 
ATOM     15  H22 UNL     1      37.721  -4.850  27.254  1.00  0.00     0.157 HD
ATOM     16  H21 UNL     1      37.802  -3.184  27.856  1.00  0.00     0.157 HD
BRANCH  13  17
HETATM   17  N1  UNL     1      37.481  -5.911  29.517  1.00  0.00    -0.379 N 
HETATM   18  C1  UNL     1      36.231  -6.473  29.974  1.00  0.00     0.150 C 
HETATM   19  C2  UNL     1      38.660  -6.712  29.277  1.00  0.00     0.150 C 
ENDBRANCH  13  17
ENDBRANCH   9  13
ENDBRANCH   8   9
ENDBRANCH   1   8
BRANCH   3  20
HETATM   20  N3  UNL     1      43.124  -3.196  30.431  1.00  0.00    -0.293 N 
HETATM   21  C9  UNL     1      43.567  -2.103  29.675  1.00  0.00     0.324 C 
HETATM   22  O1  UNL     1      43.475  -0.932  30.109  1.00  0.00    -0.247 OA
HETATM   23  N4  UNL     1      44.133  -2.299  28.389  1.00  0.00    -0.331 N 
HETATM   24  C10 UNL     1      44.594  -1.198  27.588  1.00  0.00     0.155 C 
HETATM   25  C13 UNL     1      44.260  -3.638  27.844  1.00  0.00     0.155 C 
HETATM   26  C11 UNL     1      45.164  -1.774  26.296  1.00  0.00     0.252 C 
HETATM   27  N5  UNL     1      44.132  -2.577  25.623  1.00  0.00    -0.072 N 
HETATM   28  C12 UNL     1      43.742  -3.695  26.430  1.00  0.00     0.252 C 
ATOM     29  H52 UNL     1      43.329  -2.008  25.356  1.00  0.00     0.277 HD
ATOM     30  H51 UNL     1      44.431  -2.870  24.693  1.00  0.00     0.277 HD
ATOM     31  H3  UNL     1      43.736  -4.004  30.548  1.00  0.00     0.172 HD
ENDBRANCH   3  20
TORSDOF 5
ENDMDL
