MODEL 1
REMARK VINA RESULT: -6.949980297      0.000      0.000
REMARK  4 active torsions:
REMARK  status: ('A' for Active; 'I' for Inactive)
REMARK    1  A    between atoms: C2_2  and  N1_3 
REMARK    2  A    between atoms: N1_3  and  C3_5 
REMARK    3  A    between atoms: C6_10  and  N3_11 
REMARK    4  A    between atoms: N3_11  and  C7_13 
ROOT
HETATM    1  C3  UNL     1      41.550  -1.710  29.797  1.00  0.00     0.118 A 
HETATM    2  C4  UNL     1      40.355  -2.367  29.931  1.00  0.00     0.066 A 
HETATM    3  C5  UNL     1      39.624  -2.281  31.101  1.00  0.00     0.110 A 
HETATM    4  N2  UNL     1      40.091  -1.546  32.117  1.00  0.00    -0.202 N 
ATOM      5  H2  UNL     1      39.559  -1.478  32.985  1.00  0.00     0.183 HD
HETATM    6  C6  UNL     1      41.255  -0.902  31.995  1.00  0.00     0.681 A 
HETATM    7  N6  UNL     1      41.975  -0.975  30.871  1.00  0.00    -0.177 N 
ATOM      8  H6  UNL     1      42.860  -0.471  30.812  1.00  0.00     0.185 HD
ENDROOT
BRANCH   6   9
HETATM    9  N3  UNL     1      41.749  -0.181  32.947  1.00  0.00    -0.205 N 
ATOM     10  H3  UNL     1      41.231   0.661  33.200  1.00  0.00     0.179 HD
BRANCH   9  11
HETATM   11  C7  UNL     1      42.943  -0.445  33.680  1.00  0.00     0.196 C 
HETATM   12  C8  UNL     1      42.797   0.131  35.062  1.00  0.00     0.075 C 
HETATM   13  C9  UNL     1      43.903  -0.338  35.986  1.00  0.00     0.240 C 
HETATM   14  N4  UNL     1      44.983   0.628  36.044  1.00  0.00    -0.073 N 
HETATM   15  C10 UNL     1      44.560   1.931  36.466  1.00  0.00     0.272 C 
HETATM   16  C11 UNL     1      45.928   0.123  37.040  1.00  0.00     0.272 C 
HETATM   17  C12 UNL     1      45.674   0.643  34.785  1.00  0.00     0.255 C 
HETATM   18  C13 UNL     1      44.812   1.093  33.633  1.00  0.00     0.144 C 
HETATM   19  N5  UNL     1      44.110   0.036  32.983  1.00  0.00    -0.399 N 
ATOM     20  H5  UNL     1      44.412  -0.351  32.089  1.00  0.00     0.155 HD
ENDBRANCH   9  11
ENDBRANCH   6   9
BRANCH   1  21
HETATM   21  N1  UNL     1      42.267  -1.741  28.765  1.00  0.00    -0.367 N 
ATOM     22  H1  UNL     1      41.958  -1.113  28.023  1.00  0.00     0.162 HD
BRANCH  21  23
HETATM   23  C2  UNL     1      43.437  -2.497  28.443  1.00  0.00     0.028 C 
HETATM   24  C1  UNL     1      43.949  -3.178  29.722  1.00  0.00     0.038 C 
HETATM   25  C14 UNL     1      42.995  -3.618  27.550  1.00  0.00     0.033 C 
HETATM   26  C15 UNL     1      43.925  -3.962  26.440  1.00  0.00     0.039 C 
HETATM   27  C16 UNL     1      44.148  -2.649  25.672  1.00  0.00     0.170 C 
HETATM   28  F1  UNL     1      44.732  -2.896  24.472  1.00  0.00    -0.249 F 
HETATM   29  C17 UNL     1      45.037  -1.852  26.568  1.00  0.00     0.039 C 
HETATM   30  C18 UNL     1      44.496  -1.615  27.925  1.00  0.00     0.033 C 
ENDBRANCH  21  23
ENDBRANCH   1  21
TORSDOF 4
ENDMDL
MODEL 2
REMARK VINA RESULT: -6.846875559      1.241      1.773
REMARK  4 active torsions:
REMARK  status: ('A' for Active; 'I' for Inactive)
REMARK    1  A    between atoms: C2_2  and  N1_3 
REMARK    2  A    between atoms: N1_3  and  C3_5 
REMARK    3  A    between atoms: C6_10  and  N3_11 
REMARK    4  A    between atoms: N3_11  and  C7_13 
ROOT
HETATM    1  C3  UNL     1      41.553  -2.150  30.203  1.00  0.00     0.118 A 
HETATM    2  C4  UNL     1      40.614  -1.209  29.870  1.00  0.00     0.066 A 
HETATM    3  C5  UNL     1      40.169  -0.290  30.802  1.00  0.00     0.110 A 
HETATM    4  N2  UNL     1      40.661  -0.321  32.046  1.00  0.00    -0.202 N 
ATOM      5  H2  UNL     1      40.338   0.353  32.741  1.00  0.00     0.183 HD
HETATM    6  C6  UNL     1      41.578  -1.235  32.378  1.00  0.00     0.681 A 
HETATM    7  N6  UNL     1      42.019  -2.131  31.490  1.00  0.00    -0.177 N 
ATOM      8  H6  UNL     1      42.718  -2.816  31.778  1.00  0.00     0.185 HD
ENDROOT
BRANCH   6   9
HETATM    9  N3  UNL     1      42.083  -1.306  33.565  1.00  0.00    -0.205 N 
ATOM     10  H3  UNL     1      42.216  -2.240  33.952  1.00  0.00     0.179 HD
BRANCH   9  11
HETATM   11  C7  UNL     1      42.474  -0.210  34.389  1.00  0.00     0.196 C 
HETATM   12  C8  UNL     1      43.920   0.104  34.120  1.00  0.00     0.075 C 
HETATM   13  C9  UNL     1      44.337   1.419  34.748  1.00  0.00     0.240 C 
HETATM   14  N4  UNL     1      44.954   1.209  36.043  1.00  0.00    -0.073 N 
HETATM   15  C10 UNL     1      46.097   0.345  35.996  1.00  0.00     0.272 C 
HETATM   16  C11 UNL     1      45.408   2.524  36.495  1.00  0.00     0.272 C 
HETATM   17  C12 UNL     1      43.956   0.770  36.978  1.00  0.00     0.255 C 
HETATM   18  C13 UNL     1      43.343  -0.560  36.621  1.00  0.00     0.144 C 
HETATM   19  N5  UNL     1      42.195  -0.466  35.780  1.00  0.00    -0.399 N 
ATOM     20  H5  UNL     1      41.246  -0.572  36.138  1.00  0.00     0.155 HD
ENDBRANCH   9  11
ENDBRANCH   6   9
BRANCH   1  21
HETATM   21  N1  UNL     1      42.005  -3.014  29.410  1.00  0.00    -0.367 N 
ATOM     22  H1  UNL     1      41.309  -3.682  29.078  1.00  0.00     0.162 HD
BRANCH  21  23
HETATM   23  C2  UNL     1      43.318  -3.231  28.888  1.00  0.00     0.028 C 
HETATM   24  C1  UNL     1      43.979  -4.372  29.678  1.00  0.00     0.038 C 
HETATM   25  C14 UNL     1      43.149  -3.763  27.496  1.00  0.00     0.033 C 
HETATM   26  C15 UNL     1      44.131  -3.268  26.493  1.00  0.00     0.039 C 
HETATM   27  C16 UNL     1      44.038  -1.735  26.553  1.00  0.00     0.170 C 
HETATM   28  F1  UNL     1      44.661  -1.181  25.482  1.00  0.00    -0.249 F 
HETATM   29  C17 UNL     1      44.718  -1.381  27.834  1.00  0.00     0.039 C 
HETATM   30  C18 UNL     1      44.141  -2.019  29.039  1.00  0.00     0.033 C 
ENDBRANCH  21  23
ENDBRANCH   1  21
TORSDOF 4
ENDMDL
MODEL 3
REMARK VINA RESULT: -6.803690429      1.666      2.379
REMARK  4 active torsions:
REMARK  status: ('A' for Active; 'I' for Inactive)
REMARK    1  A    between atoms: C2_2  and  N1_3 
REMARK    2  A    between atoms: N1_3  and  C3_5 
REMARK    3  A    between atoms: C6_10  and  N3_11 
REMARK    4  A    between atoms: N3_11  and  C7_13 
ROOT
HETATM    1  C3  UNL     1      43.176  -2.784  31.464  1.00  0.00     0.118 A 
HETATM    2  C4  UNL     1      42.647  -3.825  32.182  1.00  0.00     0.066 A 
HETATM    3  C5  UNL     1      42.217  -3.645  33.483  1.00  0.00     0.110 A 
HETATM    4  N2  UNL     1      42.320  -2.437  34.050  1.00  0.00    -0.202 N 
ATOM      5  H2  UNL     1      42.007  -2.295  35.011  1.00  0.00     0.183 HD
HETATM    6  C6  UNL     1      42.835  -1.417  33.357  1.00  0.00     0.681 A 
HETATM    7  N6  UNL     1      43.255  -1.573  32.099  1.00  0.00    -0.177 N 
ATOM      8  H6  UNL     1      43.644  -0.773  31.599  1.00  0.00     0.185 HD
ENDROOT
BRANCH   6   9
HETATM    9  N3  UNL     1      42.956  -0.233  33.860  1.00  0.00    -0.205 N 
ATOM     10  H3  UNL     1      42.657   0.547  33.274  1.00  0.00     0.179 HD
BRANCH   9  11
HETATM   11  C7  UNL     1      43.464   0.093  35.151  1.00  0.00     0.196 C 
HETATM   12  C8  UNL     1      42.887   1.415  35.577  1.00  0.00     0.075 C 
HETATM   13  C9  UNL     1      43.159   1.703  37.040  1.00  0.00     0.240 C 
HETATM   14  N4  UNL     1      44.340   2.530  37.201  1.00  0.00    -0.073 N 
HETATM   15  C10 UNL     1      44.263   3.776  36.499  1.00  0.00     0.272 C 
HETATM   16  C11 UNL     1      44.437   2.828  38.630  1.00  0.00     0.272 C 
HETATM   17  C12 UNL     1      45.505   1.763  36.857  1.00  0.00     0.255 C 
HETATM   18  C13 UNL     1      45.532   1.325  35.415  1.00  0.00     0.144 C 
HETATM   19  N5  UNL     1      44.906   0.067  35.176  1.00  0.00    -0.399 N 
ATOM     20  H5  UNL     1      45.441  -0.790  35.033  1.00  0.00     0.155 HD
ENDBRANCH   9  11
ENDBRANCH   6   9
BRANCH   1  21
HETATM   21  N1  UNL     1      43.585  -2.873  30.279  1.00  0.00    -0.367 N 
ATOM     22  H1  UNL     1      44.520  -3.270  30.189  1.00  0.00     0.162 HD
BRANCH  21  23
HETATM   23  C2  UNL     1      42.976  -2.519  29.035  1.00  0.00     0.028 C 
HETATM   24  C1  UNL     1      41.596  -1.906  29.319  1.00  0.00     0.038 C 
HETATM   25  C14 UNL     1      43.792  -1.400  28.457  1.00  0.00     0.033 C 
HETATM   26  C15 UNL     1      43.984  -1.437  26.982  1.00  0.00     0.039 C 
HETATM   27  C16 UNL     1      44.586  -2.820  26.684  1.00  0.00     0.170 C 
HETATM   28  F1  UNL     1      45.082  -2.858  25.421  1.00  0.00    -0.249 F 
HETATM   29  C17 UNL     1      43.440  -3.759  26.858  1.00  0.00     0.039 C 
HETATM   30  C18 UNL     1      42.795  -3.710  28.189  1.00  0.00     0.033 C 
ENDBRANCH  21  23
ENDBRANCH   1  21
TORSDOF 4
ENDMDL
MODEL 4
REMARK VINA RESULT: -6.589382783      1.683      2.792
REMARK  4 active torsions:
REMARK  status: ('A' for Active; 'I' for Inactive)
REMARK    1  A    between atoms: C2_2  and  N1_3 
REMARK    2  A    between atoms: N1_3  and  C3_5 
REMARK    3  A    between atoms: C6_10  and  N3_11 
REMARK    4  A    between atoms: N3_11  and  C7_13 
ROOT
HETATM    1  C3  UNL     1      43.367  -1.871  31.754  1.00  0.00     0.118 A 
HETATM    2  C4  UNL     1      42.505  -2.362  32.700  1.00  0.00     0.066 A 
HETATM    3  C5  UNL     1      42.306  -1.695  33.894  1.00  0.00     0.110 A 
HETATM    4  N2  UNL     1      42.967  -0.555  34.131  1.00  0.00    -0.202 N 
ATOM      5  H2  UNL     1      42.828  -0.057  35.010  1.00  0.00     0.183 HD
HETATM    6  C6  UNL     1      43.810  -0.070  33.214  1.00  0.00     0.681 A 
HETATM    7  N6  UNL     1      44.013  -0.701  32.055  1.00  0.00    -0.177 N 
ATOM      8  H6  UNL     1      44.665  -0.304  31.377  1.00  0.00     0.185 HD
ENDROOT
BRANCH   6   9
HETATM    9  N3  UNL     1      44.471   1.025  33.396  1.00  0.00    -0.205 N 
ATOM     10  H3  UNL     1      44.525   1.664  32.603  1.00  0.00     0.179 HD
BRANCH   9  11
HETATM   11  C7  UNL     1      45.131   1.430  34.593  1.00  0.00     0.196 C 
HETATM   12  C8  UNL     1      45.576   0.201  35.337  1.00  0.00     0.075 C 
HETATM   13  C9  UNL     1      46.517   0.541  36.475  1.00  0.00     0.240 C 
HETATM   14  N4  UNL     1      45.802   0.654  37.732  1.00  0.00    -0.073 N 
HETATM   15  C10 UNL     1      45.077  -0.531  38.082  1.00  0.00     0.272 C 
HETATM   16  C11 UNL     1      46.819   0.874  38.760  1.00  0.00     0.272 C 
HETATM   17  C12 UNL     1      44.978   1.830  37.704  1.00  0.00     0.255 C 
HETATM   18  C13 UNL     1      43.902   1.785  36.648  1.00  0.00     0.144 C 
HETATM   19  N5  UNL     1      44.304   2.307  35.385  1.00  0.00    -0.399 N 
ATOM     20  H5  UNL     1      44.026   3.235  35.064  1.00  0.00     0.155 HD
ENDBRANCH   9  11
ENDBRANCH   6   9
BRANCH   1  21
HETATM   21  N1  UNL     1      43.597  -2.421  30.647  1.00  0.00    -0.367 N 
ATOM     22  H1  UNL     1      44.363  -3.093  30.666  1.00  0.00     0.162 HD
BRANCH  21  23
HETATM   23  C2  UNL     1      42.977  -2.274  29.367  1.00  0.00     0.028 C 
HETATM   24  C1  UNL     1      41.747  -1.365  29.518  1.00  0.00     0.038 C 
HETATM   25  C14 UNL     1      43.934  -1.502  28.509  1.00  0.00     0.033 C 
HETATM   26  C15 UNL     1      44.017  -1.933  27.087  1.00  0.00     0.039 C 
HETATM   27  C16 UNL     1      44.347  -3.434  27.134  1.00  0.00     0.170 C 
HETATM   28  F1  UNL     1      44.743  -3.870  25.912  1.00  0.00    -0.249 F 
HETATM   29  C17 UNL     1      43.068  -4.072  27.564  1.00  0.00     0.039 C 
HETATM   30  C18 UNL     1      42.534  -3.581  28.854  1.00  0.00     0.033 C 
ENDBRANCH  21  23
ENDBRANCH   1  21
TORSDOF 4
ENDMDL
MODEL 5
REMARK VINA RESULT: -6.582058665      2.740      3.858
REMARK  4 active torsions:
REMARK  status: ('A' for Active; 'I' for Inactive)
REMARK    1  A    between atoms: C2_2  and  N1_3 
REMARK    2  A    between atoms: N1_3  and  C3_5 
REMARK    3  A    between atoms: C6_10  and  N3_11 
REMARK    4  A    between atoms: N3_11  and  C7_13 
ROOT
HETATM    1  C3  UNL     1      41.985  -3.343  29.110  1.00  0.00     0.118 A 
HETATM    2  C4  UNL     1      42.767  -3.057  28.022  1.00  0.00     0.066 A 
HETATM    3  C5  UNL     1      43.553  -1.921  27.990  1.00  0.00     0.110 A 
HETATM    4  N2  UNL     1      43.549  -1.087  29.037  1.00  0.00    -0.202 N 
ATOM      5  H2  UNL     1      44.124  -0.245  29.023  1.00  0.00     0.183 HD
HETATM    6  C6  UNL     1      42.789  -1.358  30.103  1.00  0.00     0.681 A 
HETATM    7  N6  UNL     1      42.024  -2.452  30.150  1.00  0.00    -0.177 N 
ATOM      8  H6  UNL     1      41.455  -2.629  30.978  1.00  0.00     0.185 HD
ENDROOT
BRANCH   6   9
HETATM    9  N3  UNL     1      42.750  -0.585  31.137  1.00  0.00    -0.205 N 
ATOM     10  H3  UNL     1      42.219   0.280  31.043  1.00  0.00     0.179 HD
BRANCH   9  11
HETATM   11  C7  UNL     1      43.376  -0.820  32.397  1.00  0.00     0.196 C 
HETATM   12  C8  UNL     1      42.369  -0.576  33.488  1.00  0.00     0.075 C 
HETATM   13  C9  UNL     1      42.868  -1.063  34.833  1.00  0.00     0.240 C 
HETATM   14  N4  UNL     1      43.474   0.016  35.590  1.00  0.00    -0.073 N 
HETATM   15  C10 UNL     1      42.592   1.125  35.806  1.00  0.00     0.272 C 
HETATM   16  C11 UNL     1      43.814  -0.544  36.898  1.00  0.00     0.272 C 
HETATM   17  C12 UNL     1      44.711   0.396  34.966  1.00  0.00     0.255 C 
HETATM   18  C13 UNL     1      44.537   0.948  33.574  1.00  0.00     0.144 C 
HETATM   19  N5  UNL     1      44.578  -0.039  32.547  1.00  0.00    -0.399 N 
ATOM     20  H5  UNL     1      45.400  -0.181  31.959  1.00  0.00     0.155 HD
ENDBRANCH   9  11
ENDBRANCH   6   9
BRANCH   1  21
HETATM   21  N1  UNL     1      41.248  -4.356  29.210  1.00  0.00    -0.367 N 
ATOM     22  H1  UNL     1      40.378  -4.293  28.681  1.00  0.00     0.162 HD
BRANCH  21  23
HETATM   23  C2  UNL     1      41.408  -5.581  29.930  1.00  0.00     0.028 C 
HETATM   24  C1  UNL     1      40.145  -6.434  29.737  1.00  0.00     0.038 C 
HETATM   25  C14 UNL     1      42.506  -6.343  29.248  1.00  0.00     0.033 C 
HETATM   26  C15 UNL     1      43.430  -7.085  30.148  1.00  0.00     0.039 C 
HETATM   27  C16 UNL     1      43.966  -6.038  31.137  1.00  0.00     0.170 C 
HETATM   28  F1  UNL     1      45.038  -6.527  31.810  1.00  0.00    -0.249 F 
HETATM   29  C17 UNL     1      42.813  -5.775  32.047  1.00  0.00     0.039 C 
HETATM   30  C18 UNL     1      41.580  -5.317  31.368  1.00  0.00     0.033 C 
ENDBRANCH  21  23
ENDBRANCH   1  21
TORSDOF 4
ENDMDL
