MODEL 1
REMARK VINA RESULT: -6.467142029      0.000      0.000
REMARK  4 active torsions:
REMARK  status: ('A' for Active; 'I' for Inactive)
REMARK    1  A    between atoms: C2_2  and  N1_4 
REMARK       I    between atoms: N1_4  and  C4_6 
REMARK       I    between atoms: C4_6  and  N2_8 
REMARK    2  A    between atoms: N2_8  and  C5_10 
REMARK       I    between atoms: N3_13  and  C8_14 
REMARK       I    between atoms: C8_14  and  N4_16 
REMARK    3  A    between atoms: N4_16  and  C9_18 
REMARK    4  A    between atoms: C11_20  and  C12_21 
ROOT
HETATM    1  C5  UNL     1      45.217   1.485  37.318  1.00  0.00     0.105 C 
HETATM    2  C6  UNL     1      45.320   2.964  37.590  1.00  0.00     0.047 C 
HETATM    3  C7  UNL     1      43.901   3.476  37.550  1.00  0.00     0.129 C 
HETATM    4  N3  UNL     1      43.075   2.282  37.519  1.00  0.00    -0.332 N 
HETATM    5  C8  UNL     1      41.829   2.132  38.156  1.00  0.00     0.324 C 
HETATM    6  O2  UNL     1      41.163   1.043  38.075  1.00  0.00    -0.247 OA
HETATM    7  N4  UNL     1      41.308   3.217  38.904  1.00  0.00    -0.293 N 
ATOM      8  H4  UNL     1      41.488   3.293  39.904  1.00  0.00     0.172 HD
HETATM    9  C15 UNL     1      43.832   1.348  36.712  1.00  0.00     0.152 C 
ENDROOT
BRANCH   7  10
HETATM   10  C9  UNL     1      40.597   4.109  38.290  1.00  0.00     0.125 A 
HETATM   11  C10 UNL     1      39.336   3.972  37.752  1.00  0.00     0.080 A 
HETATM   12  C11 UNL     1      38.974   5.157  37.203  1.00  0.00     0.068 A 
HETATM   13  N5  UNL     1      40.008   5.997  37.411  1.00  0.00    -0.300 N 
HETATM   14  N6  UNL     1      40.977   5.376  38.057  1.00  0.00    -0.285 N 
ATOM     15  H5  UNL     1      40.038   6.972  37.112  1.00  0.00     0.186 HD
ATOM     16  H6  UNL     1      41.867   5.790  38.335  1.00  0.00     0.188 HD
BRANCH  12  17
HETATM   17  C12 UNL     1      37.712   5.472  36.524  1.00  0.00     0.139 C 
HETATM   18  C13 UNL     1      36.516   5.212  37.447  1.00  0.00     0.058 C 
HETATM   19  C14 UNL     1      37.645   6.904  36.064  1.00  0.00     0.058 C 
HETATM   20  F1  UNL     1      37.561   4.648  35.429  1.00  0.00    -0.237 F 
ENDBRANCH  12  17
ENDBRANCH   7  10
BRANCH   1  21
HETATM   21  N2  UNL     1      46.252   1.021  36.430  1.00  0.00    -0.337 N 
HETATM   22  C4  UNL     1      47.423   0.389  36.914  1.00  0.00     0.316 C 
HETATM   23  N1  UNL     1      48.435  -0.052  36.028  1.00  0.00    -0.339 N 
HETATM   24  O1  UNL     1      47.587   0.207  38.142  1.00  0.00    -0.247 OA
ATOM     25  H1  UNL     1      48.318   0.093  35.026  1.00  0.00     0.164 HD
ATOM     26  H2  UNL     1      46.138   1.152  35.424  1.00  0.00     0.164 HD
BRANCH  23  27
HETATM   27  C2  UNL     1      49.637  -0.706  36.515  1.00  0.00     0.078 C 
HETATM   28  C1  UNL     1      49.328  -2.177  36.637  1.00  0.00     0.032 C 
HETATM   29  C3  UNL     1      50.776  -0.517  35.513  1.00  0.00     0.032 C 
ENDBRANCH  23  27
ENDBRANCH   1  21
TORSDOF 4
ENDMDL
MODEL 2
REMARK VINA RESULT: -6.286213965      5.859      9.869
REMARK  4 active torsions:
REMARK  status: ('A' for Active; 'I' for Inactive)
REMARK    1  A    between atoms: C2_2  and  N1_4 
REMARK       I    between atoms: N1_4  and  C4_6 
REMARK       I    between atoms: C4_6  and  N2_8 
REMARK    2  A    between atoms: N2_8  and  C5_10 
REMARK       I    between atoms: N3_13  and  C8_14 
REMARK       I    between atoms: C8_14  and  N4_16 
REMARK    3  A    between atoms: N4_16  and  C9_18 
REMARK    4  A    between atoms: C11_20  and  C12_21 
ROOT
HETATM    1  C5  UNL     1      41.442  -0.877  33.530  1.00  0.00     0.105 C 
HETATM    2  C6  UNL     1      41.774  -1.426  34.895  1.00  0.00     0.047 C 
HETATM    3  C7  UNL     1      43.225  -1.078  35.121  1.00  0.00     0.129 C 
HETATM    4  N3  UNL     1      43.562  -0.166  34.043  1.00  0.00    -0.332 N 
HETATM    5  C8  UNL     1      44.429   0.937  34.144  1.00  0.00     0.324 C 
HETATM    6  O2  UNL     1      44.675   1.691  33.141  1.00  0.00    -0.247 OA
HETATM    7  N4  UNL     1      45.041   1.214  35.392  1.00  0.00    -0.293 N 
ATOM      8  H4  UNL     1      44.606   1.858  36.053  1.00  0.00     0.172 HD
HETATM    9  C15 UNL     1      42.810  -0.664  32.909  1.00  0.00     0.152 C 
ENDROOT
BRANCH   7  10
HETATM   10  C9  UNL     1      46.163   0.632  35.677  1.00  0.00     0.125 A 
HETATM   11  C10 UNL     1      46.636   0.254  36.914  1.00  0.00     0.080 A 
HETATM   12  C11 UNL     1      47.853  -0.319  36.750  1.00  0.00     0.068 A 
HETATM   13  N5  UNL     1      48.106  -0.286  35.426  1.00  0.00    -0.300 N 
HETATM   14  N6  UNL     1      47.101   0.281  34.784  1.00  0.00    -0.285 N 
ATOM     15  H5  UNL     1      48.952  -0.646  34.983  1.00  0.00     0.186 HD
ATOM     16  H6  UNL     1      47.047   0.428  33.776  1.00  0.00     0.188 HD
BRANCH  12  17
HETATM   17  C12 UNL     1      48.723  -0.873  37.794  1.00  0.00     0.139 C 
HETATM   18  C13 UNL     1      47.938  -1.108  39.089  1.00  0.00     0.058 C 
HETATM   19  C14 UNL     1      49.357  -2.175  37.388  1.00  0.00     0.058 C 
HETATM   20  F1  UNL     1      49.721   0.032  38.088  1.00  0.00    -0.237 F 
ENDBRANCH  12  17
ENDBRANCH   7  10
BRANCH   1  21
HETATM   21  N2  UNL     1      40.627  -1.785  32.762  1.00  0.00    -0.337 N 
HETATM   22  C4  UNL     1      39.710  -1.322  31.788  1.00  0.00     0.316 C 
HETATM   23  N1  UNL     1      38.910  -2.226  31.049  1.00  0.00    -0.339 N 
HETATM   24  O1  UNL     1      39.588  -0.097  31.560  1.00  0.00    -0.247 OA
ATOM     25  H1  UNL     1      38.995  -3.227  31.227  1.00  0.00     0.164 HD
ATOM     26  H2  UNL     1      40.714  -2.788  32.926  1.00  0.00     0.164 HD
BRANCH  23  27
HETATM   27  C2  UNL     1      37.970  -1.762  30.045  1.00  0.00     0.078 C 
HETATM   28  C1  UNL     1      37.848  -2.852  29.009  1.00  0.00     0.032 C 
HETATM   29  C3  UNL     1      36.601  -1.522  30.681  1.00  0.00     0.032 C 
ENDBRANCH  23  27
ENDBRANCH   1  21
TORSDOF 4
ENDMDL
MODEL 3
REMARK VINA RESULT: -6.242693255      6.937      7.506
REMARK  4 active torsions:
REMARK  status: ('A' for Active; 'I' for Inactive)
REMARK    1  A    between atoms: C2_2  and  N1_4 
REMARK       I    between atoms: N1_4  and  C4_6 
REMARK       I    between atoms: C4_6  and  N2_8 
REMARK    2  A    between atoms: N2_8  and  C5_10 
REMARK       I    between atoms: N3_13  and  C8_14 
REMARK       I    between atoms: C8_14  and  N4_16 
REMARK    3  A    between atoms: N4_16  and  C9_18 
REMARK    4  A    between atoms: C11_20  and  C12_21 
ROOT
HETATM    1  C5  UNL     1      41.162  -1.111  31.147  1.00  0.00     0.105 C 
HETATM    2  C6  UNL     1      41.457  -0.701  32.568  1.00  0.00     0.047 C 
HETATM    3  C7  UNL     1      40.262   0.110  33.005  1.00  0.00     0.129 C 
HETATM    4  N3  UNL     1      39.276  -0.086  31.957  1.00  0.00    -0.332 N 
HETATM    5  C8  UNL     1      37.886  -0.185  32.149  1.00  0.00     0.324 C 
HETATM    6  O2  UNL     1      37.084  -0.354  31.166  1.00  0.00    -0.247 OA
HETATM    7  N4  UNL     1      37.369  -0.095  33.465  1.00  0.00    -0.293 N 
ATOM      8  H4  UNL     1      37.217  -0.935  34.023  1.00  0.00     0.172 HD
HETATM    9  C15 UNL     1      40.060  -0.150  30.740  1.00  0.00     0.152 C 
ENDROOT
BRANCH   7  10
HETATM   10  C9  UNL     1      37.093   1.076  33.945  1.00  0.00     0.125 A 
HETATM   11  C10 UNL     1      37.644   1.698  35.043  1.00  0.00     0.080 A 
HETATM   12  C11 UNL     1      37.060   2.913  35.185  1.00  0.00     0.068 A 
HETATM   13  N5  UNL     1      36.167   3.018  34.180  1.00  0.00    -0.300 N 
HETATM   14  N6  UNL     1      36.184   1.925  33.440  1.00  0.00    -0.285 N 
ATOM     15  H5  UNL     1      35.566   3.825  34.015  1.00  0.00     0.186 HD
ATOM     16  H6  UNL     1      35.602   1.754  32.620  1.00  0.00     0.188 HD
BRANCH  12  17
HETATM   17  C12 UNL     1      37.341   3.919  36.216  1.00  0.00     0.139 C 
HETATM   18  C13 UNL     1      36.233   3.938  37.275  1.00  0.00     0.058 C 
HETATM   19  C14 UNL     1      38.652   3.680  36.915  1.00  0.00     0.058 C 
HETATM   20  F1  UNL     1      37.368   5.172  35.641  1.00  0.00    -0.237 F 
ENDBRANCH  12  17
ENDBRANCH   7  10
BRANCH   1  21
HETATM   21  N2  UNL     1      42.322  -1.005  30.299  1.00  0.00    -0.337 N 
HETATM   22  C4  UNL     1      42.477  -1.808  29.143  1.00  0.00     0.316 C 
HETATM   23  N1  UNL     1      43.627  -1.699  28.325  1.00  0.00    -0.339 N 
HETATM   24  O1  UNL     1      41.594  -2.636  28.820  1.00  0.00    -0.247 OA
ATOM     25  H1  UNL     1      44.356  -1.033  28.577  1.00  0.00     0.164 HD
ATOM     26  H2  UNL     1      43.052  -0.333  30.537  1.00  0.00     0.164 HD
BRANCH  23  27
HETATM   27  C2  UNL     1      43.792  -2.515  27.135  1.00  0.00     0.078 C 
HETATM   28  C1  UNL     1      44.763  -1.796  26.231  1.00  0.00     0.032 C 
HETATM   29  C3  UNL     1      44.376  -3.876  27.512  1.00  0.00     0.032 C 
ENDBRANCH  23  27
ENDBRANCH   1  21
TORSDOF 4
ENDMDL
MODEL 4
REMARK VINA RESULT: -6.240244633      7.994     10.192
REMARK  4 active torsions:
REMARK  status: ('A' for Active; 'I' for Inactive)
REMARK    1  A    between atoms: C2_2  and  N1_4 
REMARK       I    between atoms: N1_4  and  C4_6 
REMARK       I    between atoms: C4_6  and  N2_8 
REMARK    2  A    between atoms: N2_8  and  C5_10 
REMARK       I    between atoms: N3_13  and  C8_14 
REMARK       I    between atoms: C8_14  and  N4_16 
REMARK    3  A    between atoms: N4_16  and  C9_18 
REMARK    4  A    between atoms: C11_20  and  C12_21 
ROOT
HETATM    1  C5  UNL     1      42.639  -1.068  33.888  1.00  0.00     0.105 C 
HETATM    2  C6  UNL     1      43.323  -0.360  32.746  1.00  0.00     0.047 C 
HETATM    3  C7  UNL     1      43.147  -1.266  31.552  1.00  0.00     0.129 C 
HETATM    4  N3  UNL     1      42.194  -2.272  31.986  1.00  0.00    -0.332 N 
HETATM    5  C8  UNL     1      41.199  -2.858  31.182  1.00  0.00     0.324 C 
HETATM    6  O2  UNL     1      40.400  -3.743  31.644  1.00  0.00    -0.247 OA
HETATM    7  N4  UNL     1      41.085  -2.451  29.830  1.00  0.00    -0.293 N 
ATOM      8  H4  UNL     1      40.452  -1.697  29.565  1.00  0.00     0.172 HD
HETATM    9  C15 UNL     1      42.522  -2.494  33.380  1.00  0.00     0.152 C 
ENDROOT
BRANCH   7  10
HETATM   10  C9  UNL     1      41.801  -3.057  28.937  1.00  0.00     0.125 A 
HETATM   11  C10 UNL     1      42.814  -2.538  28.160  1.00  0.00     0.080 A 
HETATM   12  C11 UNL     1      43.287  -3.523  27.360  1.00  0.00     0.068 A 
HETATM   13  N5  UNL     1      42.565  -4.623  27.654  1.00  0.00    -0.300 N 
HETATM   14  N6  UNL     1      41.679  -4.349  28.592  1.00  0.00    -0.285 N 
ATOM     15  H5  UNL     1      42.687  -5.536  27.215  1.00  0.00     0.186 HD
ATOM     16  H6  UNL     1      41.011  -5.010  28.990  1.00  0.00     0.188 HD
BRANCH  12  17
HETATM   17  C12 UNL     1      44.370  -3.423  26.374  1.00  0.00     0.139 C 
HETATM   18  C13 UNL     1      43.900  -3.905  24.997  1.00  0.00     0.058 C 
HETATM   19  C14 UNL     1      44.890  -2.019  26.226  1.00  0.00     0.058 C 
HETATM   20  F1  UNL     1      45.413  -4.243  26.752  1.00  0.00    -0.237 F 
ENDBRANCH  12  17
ENDBRANCH   7  10
BRANCH   1  21
HETATM   21  N2  UNL     1      43.395  -0.983  35.112  1.00  0.00    -0.337 N 
HETATM   22  C4  UNL     1      43.469   0.215  35.862  1.00  0.00     0.316 C 
HETATM   23  N1  UNL     1      44.223   0.285  37.057  1.00  0.00    -0.339 N 
HETATM   24  O1  UNL     1      42.865   1.243  35.478  1.00  0.00    -0.247 OA
ATOM     25  H1  UNL     1      44.724  -0.543  37.379  1.00  0.00     0.164 HD
ATOM     26  H2  UNL     1      43.890  -1.810  35.447  1.00  0.00     0.164 HD
BRANCH  23  27
HETATM   27  C2  UNL     1      44.302   1.508  37.835  1.00  0.00     0.078 C 
HETATM   28  C1  UNL     1      44.307   1.113  39.291  1.00  0.00     0.032 C 
HETATM   29  C3  UNL     1      45.600   2.249  37.515  1.00  0.00     0.032 C 
ENDBRANCH  23  27
ENDBRANCH   1  21
TORSDOF 4
ENDMDL
MODEL 5
REMARK VINA RESULT: -6.154691151      1.279      1.389
REMARK  4 active torsions:
REMARK  status: ('A' for Active; 'I' for Inactive)
REMARK    1  A    between atoms: C2_2  and  N1_4 
REMARK       I    between atoms: N1_4  and  C4_6 
REMARK       I    between atoms: C4_6  and  N2_8 
REMARK    2  A    between atoms: N2_8  and  C5_10 
REMARK       I    between atoms: N3_13  and  C8_14 
REMARK       I    between atoms: C8_14  and  N4_16 
REMARK    3  A    between atoms: N4_16  and  C9_18 
REMARK    4  A    between atoms: C11_20  and  C12_21 
ROOT
HETATM    1  C5  UNL     1      45.326   1.128  37.145  1.00  0.00     0.105 C 
HETATM    2  C6  UNL     1      45.235   2.614  37.383  1.00  0.00     0.047 C 
HETATM    3  C7  UNL     1      43.767   2.945  37.274  1.00  0.00     0.129 C 
HETATM    4  N3  UNL     1      43.096   1.658  37.241  1.00  0.00    -0.332 N 
HETATM    5  C8  UNL     1      41.852   1.368  37.831  1.00  0.00     0.324 C 
HETATM    6  O2  UNL     1      41.328   0.204  37.751  1.00  0.00    -0.247 OA
HETATM    7  N4  UNL     1      41.170   2.394  38.529  1.00  0.00    -0.293 N 
ATOM      8  H4  UNL     1      41.296   2.513  39.534  1.00  0.00     0.172 HD
HETATM    9  C15 UNL     1      43.996   0.808  36.487  1.00  0.00     0.152 C 
ENDROOT
BRANCH   7  10
HETATM   10  C9  UNL     1      40.382   3.180  37.865  1.00  0.00     0.125 A 
HETATM   11  C10 UNL     1      40.045   4.486  38.147  1.00  0.00     0.080 A 
HETATM   12  C11 UNL     1      39.192   4.923  37.190  1.00  0.00     0.068 A 
HETATM   13  N5  UNL     1      39.019   3.889  36.342  1.00  0.00    -0.300 N 
HETATM   14  N6  UNL     1      39.726   2.849  36.742  1.00  0.00    -0.285 N 
ATOM     15  H5  UNL     1      38.427   3.908  35.511  1.00  0.00     0.186 HD
ATOM     16  H6  UNL     1      39.767   1.943  36.274  1.00  0.00     0.188 HD
BRANCH  12  17
HETATM   17  C12 UNL     1      38.579   6.253  37.087  1.00  0.00     0.139 C 
HETATM   18  C13 UNL     1      37.510   6.277  35.989  1.00  0.00     0.058 C 
HETATM   19  C14 UNL     1      37.938   6.696  38.374  1.00  0.00     0.058 C 
HETATM   20  F1  UNL     1      39.540   7.175  36.731  1.00  0.00    -0.237 F 
ENDBRANCH  12  17
ENDBRANCH   7  10
BRANCH   1  21
HETATM   21  N2  UNL     1      46.447   0.778  36.310  1.00  0.00    -0.337 N 
HETATM   22  C4  UNL     1      47.613   0.174  36.841  1.00  0.00     0.316 C 
HETATM   23  N1  UNL     1      48.710  -0.154  36.009  1.00  0.00    -0.339 N 
HETATM   24  O1  UNL     1      47.697  -0.081  38.064  1.00  0.00    -0.247 OA
ATOM     25  H1  UNL     1      48.658   0.051  35.012  1.00  0.00     0.164 HD
ATOM     26  H2  UNL     1      46.399   0.970  35.309  1.00  0.00     0.164 HD
BRANCH  23  27
HETATM   27  C2  UNL     1      49.907  -0.777  36.543  1.00  0.00     0.078 C 
HETATM   28  C1  UNL     1      49.589  -2.233  36.777  1.00  0.00     0.032 C 
HETATM   29  C3  UNL     1      51.047  -0.672  35.530  1.00  0.00     0.032 C 
ENDBRANCH  23  27
ENDBRANCH   1  21
TORSDOF 4
ENDMDL
