MODEL 1
REMARK VINA RESULT: -7.547754637      0.000      0.000
REMARK  3 active torsions:
REMARK  status: ('A' for Active; 'I' for Inactive)
REMARK    1  A    between atoms: C10_14  and  O1_15 
REMARK    2  A    between atoms: C14_23  and  C15_24 
REMARK    3  A    between atoms: C15_24  and  C16_25 
ROOT
HETATM    1  C1  UNL     1      37.447  -2.704  30.554  1.00  0.00     0.037 C 
HETATM    2  C2  UNL     1      38.888  -3.194  30.679  1.00  0.00     0.111 C 
HETATM    3  C3  UNL     1      39.421  -3.697  29.356  1.00  0.00     0.080 C 
HETATM    4  N1  UNL     1      39.942  -4.957  29.508  1.00  0.00    -0.395 N 
ATOM      5  H1  UNL     1      39.266  -5.689  29.729  1.00  0.00     0.159 HD
HETATM    6  C4  UNL     1      41.262  -5.376  29.404  1.00  0.00     0.088 C 
HETATM    7  C5  UNL     1      41.458  -6.454  30.443  1.00  0.00     0.026 C 
HETATM    8  C6  UNL     1      42.850  -6.599  30.924  1.00  0.00     0.010 C 
HETATM    9  C7  UNL     1      43.336  -5.312  31.421  1.00  0.00     0.030 C 
HETATM   10  C8  UNL     1      42.440  -4.416  32.211  1.00  0.00     0.036 C 
HETATM   11  C9  UNL     1      43.190  -3.322  31.477  1.00  0.00     0.124 C 
HETATM   12  N2  UNL     1      42.720  -2.014  31.474  1.00  0.00    -0.365 N 
ATOM     13  H2  UNL     1      43.162  -1.469  32.215  1.00  0.00     0.161 HD
HETATM   14  C10 UNL     1      41.819  -1.229  30.753  1.00  0.00     0.134 C 
HETATM   15  C11 UNL     1      40.335  -1.225  30.666  1.00  0.00     0.147 C 
HETATM   16  C12 UNL     1      39.896   0.123  31.287  1.00  0.00     0.040 C 
HETATM   17  N3  UNL     1      39.618  -2.200  31.321  1.00  0.00    -0.402 N 
ATOM     18  H3  UNL     1      39.623  -2.193  32.341  1.00  0.00     0.154 HD
HETATM   19  C13 UNL     1      43.331  -4.215  30.321  1.00  0.00     0.133 C 
HETATM   20  F1  UNL     1      44.648  -4.186  29.885  1.00  0.00    -0.240 F 
HETATM   21  C14 UNL     1      42.367  -4.371  29.284  1.00  0.00     0.055 C 
ENDROOT
BRANCH  21  22
HETATM   22  C15 UNL     1      42.900  -4.531  27.883  1.00  0.00     0.050 C 
BRANCH  22  23
HETATM   23  C16 UNL     1      43.614  -3.446  27.250  1.00  0.00    -0.041 A 
HETATM   24  C17 UNL     1      43.576  -2.094  27.612  1.00  0.00     0.025 A 
HETATM   25  C18 UNL     1      44.304  -1.334  26.731  1.00  0.00     0.088 A 
HETATM   26  N4  UNL     1      44.791  -2.202  25.829  1.00  0.00    -0.375 N 
HETATM   27  C19 UNL     1      44.397  -3.448  26.118  1.00  0.00     0.094 A 
ATOM     28  H4  UNL     1      45.379  -1.948  25.036  1.00  0.00     0.164 HD
ENDBRANCH  22  23
ENDBRANCH  21  22
BRANCH  14  29
HETATM   29  O1  UNL     1      42.321  -0.300  29.993  1.00  0.00    -0.348 OA
ATOM     30  H1  UNL     1      42.690  -0.576  29.162  1.00  0.00     0.219 HD
ENDBRANCH  14  29
TORSDOF 3
ENDMDL
MODEL 2
REMARK VINA RESULT: -7.146931256      1.860      2.725
REMARK  3 active torsions:
REMARK  status: ('A' for Active; 'I' for Inactive)
REMARK    1  A    between atoms: C10_14  and  O1_15 
REMARK    2  A    between atoms: C14_23  and  C15_24 
REMARK    3  A    between atoms: C15_24  and  C16_25 
ROOT
HETATM    1  C1  UNL     1      38.824   0.686  31.964  1.00  0.00     0.037 C 
HETATM    2  C2  UNL     1      39.716  -0.526  31.698  1.00  0.00     0.111 C 
HETATM    3  C3  UNL     1      40.761  -0.226  30.647  1.00  0.00     0.080 C 
HETATM    4  N1  UNL     1      40.726  -1.182  29.664  1.00  0.00    -0.395 N 
ATOM      5  H1  UNL     1      39.881  -1.192  29.091  1.00  0.00     0.159 HD
HETATM    6  C4  UNL     1      41.679  -2.139  29.338  1.00  0.00     0.088 C 
HETATM    7  C5  UNL     1      40.923  -3.380  28.926  1.00  0.00     0.026 C 
HETATM    8  C6  UNL     1      41.663  -4.645  29.131  1.00  0.00     0.010 C 
HETATM    9  C7  UNL     1      42.092  -4.744  30.526  1.00  0.00     0.030 C 
HETATM   10  C8  UNL     1      41.190  -4.304  31.631  1.00  0.00     0.036 C 
HETATM   11  C9  UNL     1      42.491  -3.862  32.271  1.00  0.00     0.124 C 
HETATM   12  N2  UNL     1      42.491  -3.016  33.374  1.00  0.00    -0.365 N 
ATOM     13  H2  UNL     1      42.541  -3.551  34.241  1.00  0.00     0.161 HD
HETATM   14  C10 UNL     1      42.442  -1.646  33.640  1.00  0.00     0.134 C 
HETATM   15  C11 UNL     1      41.363  -0.633  33.499  1.00  0.00     0.147 C 
HETATM   16  C12 UNL     1      41.031  -0.191  34.945  1.00  0.00     0.040 C 
HETATM   17  N3  UNL     1      40.166  -0.997  32.926  1.00  0.00    -0.402 N 
ATOM     18  H3  UNL     1      39.573  -1.653  33.434  1.00  0.00     0.154 HD
HETATM   19  C13 UNL     1      43.033  -3.579  30.937  1.00  0.00     0.133 C 
HETATM   20  F1  UNL     1      44.301  -4.135  30.837  1.00  0.00    -0.240 F 
HETATM   21  C14 UNL     1      42.865  -2.356  30.227  1.00  0.00     0.055 C 
ENDROOT
BRANCH  21  22
HETATM   22  C15 UNL     1      44.050  -1.865  29.436  1.00  0.00     0.050 C 
BRANCH  22  23
HETATM   23  C16 UNL     1      44.132  -2.123  28.016  1.00  0.00    -0.041 A 
HETATM   24  C17 UNL     1      44.333  -3.364  27.400  1.00  0.00     0.025 A 
HETATM   25  C18 UNL     1      44.452  -3.218  26.041  1.00  0.00     0.088 A 
HETATM   26  N4  UNL     1      44.326  -1.901  25.811  1.00  0.00    -0.375 N 
HETATM   27  C19 UNL     1      44.137  -1.242  26.959  1.00  0.00     0.094 A 
ATOM     28  H4  UNL     1      44.367  -1.466  24.890  1.00  0.00     0.164 HD
ENDBRANCH  22  23
ENDBRANCH  21  22
BRANCH  14  29
HETATM   29  O1  UNL     1      43.524  -1.096  34.106  1.00  0.00    -0.348 OA
ATOM     30  H1  UNL     1      43.428  -0.261  34.549  1.00  0.00     0.219 HD
ENDBRANCH  14  29
TORSDOF 3
ENDMDL
MODEL 3
REMARK VINA RESULT: -6.765794728      1.263      1.531
REMARK  3 active torsions:
REMARK  status: ('A' for Active; 'I' for Inactive)
REMARK    1  A    between atoms: C10_14  and  O1_15 
REMARK    2  A    between atoms: C14_23  and  C15_24 
REMARK    3  A    between atoms: C15_24  and  C16_25 
ROOT
HETATM    1  C1  UNL     1      37.111  -2.041  29.495  1.00  0.00     0.037 C 
HETATM    2  C2  UNL     1      38.314  -2.729  30.141  1.00  0.00     0.111 C 
HETATM    3  C3  UNL     1      39.361  -3.094  29.113  1.00  0.00     0.080 C 
HETATM    4  N1  UNL     1      39.694  -4.420  29.233  1.00  0.00    -0.395 N 
ATOM      5  H1  UNL     1      38.956  -5.081  28.992  1.00  0.00     0.159 HD
HETATM    6  C4  UNL     1      40.896  -4.987  29.636  1.00  0.00     0.088 C 
HETATM    7  C5  UNL     1      40.545  -6.225  30.428  1.00  0.00     0.026 C 
HETATM    8  C6  UNL     1      41.561  -6.620  31.430  1.00  0.00     0.010 C 
HETATM    9  C7  UNL     1      41.832  -5.496  32.326  1.00  0.00     0.030 C 
HETATM   10  C8  UNL     1      40.722  -4.618  32.802  1.00  0.00     0.036 C 
HETATM   11  C9  UNL     1      41.776  -3.536  32.694  1.00  0.00     0.124 C 
HETATM   12  N2  UNL     1      41.424  -2.191  32.737  1.00  0.00    -0.365 N 
ATOM     13  H2  UNL     1      41.510  -1.825  33.686  1.00  0.00     0.161 HD
HETATM   14  C10 UNL     1      40.987  -1.196  31.861  1.00  0.00     0.134 C 
HETATM   15  C11 UNL     1      39.706  -0.986  31.137  1.00  0.00     0.147 C 
HETATM   16  C12 UNL     1      39.101   0.300  31.751  1.00  0.00     0.040 C 
HETATM   17  N3  UNL     1      38.723  -1.945  31.214  1.00  0.00    -0.402 N 
ATOM     18  H3  UNL     1      38.265  -2.091  32.114  1.00  0.00     0.154 HD
HETATM   19  C13 UNL     1      42.380  -4.257  31.567  1.00  0.00     0.133 C 
HETATM   20  F1  UNL     1      43.752  -4.336  31.764  1.00  0.00    -0.240 F 
HETATM   21  C14 UNL     1      41.984  -4.128  30.205  1.00  0.00     0.055 C 
ENDROOT
BRANCH  21  22
HETATM   22  C15 UNL     1      43.084  -4.146  29.176  1.00  0.00     0.050 C 
BRANCH  22  23
HETATM   23  C16 UNL     1      43.440  -2.935  28.473  1.00  0.00    -0.041 A 
HETATM   24  C17 UNL     1      43.976  -2.841  27.183  1.00  0.00     0.025 A 
HETATM   25  C18 UNL     1      44.280  -1.538  26.876  1.00  0.00     0.088 A 
HETATM   26  N4  UNL     1      43.936  -0.827  27.962  1.00  0.00    -0.375 N 
HETATM   27  C19 UNL     1      43.441  -1.630  28.911  1.00  0.00     0.094 A 
ATOM     28  H4  UNL     1      44.039   0.184  28.051  1.00  0.00     0.164 HD
ENDBRANCH  22  23
ENDBRANCH  21  22
BRANCH  14  29
HETATM   29  O1  UNL     1      41.825  -0.239  31.590  1.00  0.00    -0.348 OA
ATOM     30  H1  UNL     1      41.620   0.317  30.847  1.00  0.00     0.219 HD
ENDBRANCH  14  29
TORSDOF 3
ENDMDL
MODEL 4
REMARK VINA RESULT: -6.704072133      2.060      4.449
REMARK  3 active torsions:
REMARK  status: ('A' for Active; 'I' for Inactive)
REMARK    1  A    between atoms: C10_14  and  O1_15 
REMARK    2  A    between atoms: C14_23  and  C15_24 
REMARK    3  A    between atoms: C15_24  and  C16_25 
ROOT
HETATM    1  C1  UNL     1      42.157  -6.872  33.848  1.00  0.00     0.037 C 
HETATM    2  C2  UNL     1      41.760  -5.674  32.987  1.00  0.00     0.111 C 
HETATM    3  C3  UNL     1      42.963  -4.840  32.608  1.00  0.00     0.080 C 
HETATM    4  N1  UNL     1      42.741  -3.524  32.929  1.00  0.00    -0.395 N 
ATOM      5  H1  UNL     1      42.678  -3.320  33.927  1.00  0.00     0.159 HD
HETATM    6  C4  UNL     1      42.592  -2.431  32.085  1.00  0.00     0.088 C 
HETATM    7  C5  UNL     1      41.562  -1.530  32.724  1.00  0.00     0.026 C 
HETATM    8  C6  UNL     1      40.818  -0.676  31.771  1.00  0.00     0.010 C 
HETATM    9  C7  UNL     1      40.202  -1.511  30.739  1.00  0.00     0.030 C 
HETATM   10  C8  UNL     1      39.584  -2.823  31.093  1.00  0.00     0.036 C 
HETATM   11  C9  UNL     1      40.126  -3.237  29.740  1.00  0.00     0.124 C 
HETATM   12  N2  UNL     1      40.188  -4.577  29.377  1.00  0.00    -0.365 N 
ATOM     13  H2  UNL     1      39.361  -4.847  28.844  1.00  0.00     0.161 HD
HETATM   14  C10 UNL     1      41.054  -5.661  29.529  1.00  0.00     0.134 C 
HETATM   15  C11 UNL     1      41.436  -6.486  30.706  1.00  0.00     0.147 C 
HETATM   16  C12 UNL     1      40.880  -7.900  30.406  1.00  0.00     0.040 C 
HETATM   17  N3  UNL     1      40.961  -6.144  31.951  1.00  0.00    -0.402 N 
ATOM     18  H3  UNL     1      39.960  -6.242  32.125  1.00  0.00     0.154 HD
HETATM   19  C13 UNL     1      41.253  -2.315  29.927  1.00  0.00     0.133 C 
HETATM   20  F1  UNL     1      41.417  -1.562  28.773  1.00  0.00    -0.240 F 
HETATM   21  C14 UNL     1      42.464  -2.631  30.606  1.00  0.00     0.055 C 
ENDROOT
BRANCH  21  22
HETATM   22  C15 UNL     1      43.734  -2.071  30.018  1.00  0.00     0.050 C 
BRANCH  22  23
HETATM   23  C16 UNL     1      44.117  -2.407  28.666  1.00  0.00    -0.041 A 
HETATM   24  C17 UNL     1      44.531  -1.517  27.667  1.00  0.00     0.025 A 
HETATM   25  C18 UNL     1      44.724  -2.176  26.478  1.00  0.00     0.088 A 
HETATM   26  N4  UNL     1      44.433  -3.462  26.733  1.00  0.00    -0.375 N 
HETATM   27  C19 UNL     1      44.075  -3.617  28.012  1.00  0.00     0.094 A 
ATOM     28  H4  UNL     1      44.480  -4.215  26.046  1.00  0.00     0.164 HD
ENDBRANCH  22  23
ENDBRANCH  21  22
BRANCH  14  29
HETATM   29  O1  UNL     1      41.676  -6.075  28.464  1.00  0.00    -0.348 OA
ATOM     30  H1  UNL     1      41.959  -6.982  28.454  1.00  0.00     0.219 HD
ENDBRANCH  14  29
TORSDOF 3
ENDMDL
MODEL 5
REMARK VINA RESULT: -6.628268466      2.109      4.097
REMARK  3 active torsions:
REMARK  status: ('A' for Active; 'I' for Inactive)
REMARK    1  A    between atoms: C10_14  and  O1_15 
REMARK    2  A    between atoms: C14_23  and  C15_24 
REMARK    3  A    between atoms: C15_24  and  C16_25 
ROOT
HETATM    1  C1  UNL     1      41.383  -7.210  31.649  1.00  0.00     0.037 C 
HETATM    2  C2  UNL     1      41.238  -5.690  31.629  1.00  0.00     0.111 C 
HETATM    3  C3  UNL     1      42.333  -5.037  30.816  1.00  0.00     0.080 C 
HETATM    4  N1  UNL     1      42.945  -4.056  31.554  1.00  0.00    -0.395 N 
ATOM      5  H1  UNL     1      43.479  -4.382  32.360  1.00  0.00     0.159 HD
HETATM    6  C4  UNL     1      42.940  -2.682  31.357  1.00  0.00     0.088 C 
HETATM    7  C5  UNL     1      42.917  -2.048  32.728  1.00  0.00     0.026 C 
HETATM    8  C6  UNL     1      42.309  -0.700  32.771  1.00  0.00     0.010 C 
HETATM    9  C7  UNL     1      40.961  -0.749  32.203  1.00  0.00     0.030 C 
HETATM   10  C8  UNL     1      40.059  -1.904  32.488  1.00  0.00     0.036 C 
HETATM   11  C9  UNL     1      39.607  -1.668  31.061  1.00  0.00     0.124 C 
HETATM   12  N2  UNL     1      38.845  -2.617  30.388  1.00  0.00    -0.365 N 
ATOM     13  H2  UNL     1      37.850  -2.406  30.469  1.00  0.00     0.161 HD
HETATM   14  C10 UNL     1      39.046  -3.773  29.633  1.00  0.00     0.134 C 
HETATM   15  C11 UNL     1      39.509  -5.140  29.992  1.00  0.00     0.147 C 
HETATM   16  C12 UNL     1      38.289  -6.059  29.744  1.00  0.00     0.040 C 
HETATM   17  N3  UNL     1      39.925  -5.395  31.279  1.00  0.00    -0.402 N 
ATOM     18  H3  UNL     1      39.226  -5.366  32.022  1.00  0.00     0.154 HD
HETATM   19  C13 UNL     1      40.962  -1.217  30.723  1.00  0.00     0.133 C 
HETATM   20  F1  UNL     1      40.877  -0.030  30.007  1.00  0.00    -0.240 F 
HETATM   21  C14 UNL     1      42.035  -2.068  30.333  1.00  0.00     0.055 C 
ENDROOT
BRANCH  21  22
HETATM   22  C15 UNL     1      42.949  -1.553  29.251  1.00  0.00     0.050 C 
BRANCH  22  23
HETATM   23  C16 UNL     1      43.372  -2.427  28.182  1.00  0.00    -0.041 A 
HETATM   24  C17 UNL     1      44.344  -2.154  27.211  1.00  0.00     0.025 A 
HETATM   25  C18 UNL     1      44.417  -3.175  26.297  1.00  0.00     0.088 A 
HETATM   26  N4  UNL     1      43.502  -4.074  26.692  1.00  0.00    -0.375 N 
HETATM   27  C19 UNL     1      42.878  -3.653  27.798  1.00  0.00     0.094 A 
ATOM     28  H4  UNL     1      43.310  -4.956  26.216  1.00  0.00     0.164 HD
ENDBRANCH  22  23
ENDBRANCH  21  22
BRANCH  14  29
HETATM   29  O1  UNL     1      38.792  -3.699  28.360  1.00  0.00    -0.348 OA
ATOM     30  H1  UNL     1      38.652  -4.519  27.900  1.00  0.00     0.219 HD
ENDBRANCH  14  29
TORSDOF 3
ENDMDL
