MODEL 1
REMARK VINA RESULT: -6.489708820      0.000      0.000
REMARK  7 active torsions:
REMARK  status: ('A' for Active; 'I' for Inactive)
REMARK    1  A    between atoms: C2_2  and  N1_3 
REMARK    2  A    between atoms: C2_2  and  C16_22 
REMARK    3  A    between atoms: N1_3  and  C3_5 
REMARK    4  A    between atoms: C3_5  and  N2_7 
REMARK    5  A    between atoms: N2_7  and  C4_9 
REMARK    6  A    between atoms: C4_9  and  C5_10 
REMARK    7  A    between atoms: C11_16  and  C12_17 
ROOT
HETATM    1  N2  UNL     1      41.247  -3.354  28.697  1.00  0.00    -0.366 N 
ATOM      2  H2  UNL     1      40.558  -3.645  28.004  1.00  0.00     0.161 HD
ENDROOT
BRANCH   1   3
HETATM    3  C3  UNL     1      42.541  -3.948  28.730  1.00  0.00     0.168 C 
HETATM    4  S1  UNL     1      43.184  -4.499  30.143  1.00  0.00    -0.041 SA
BRANCH   3   5
HETATM    5  N1  UNL     1      43.328  -4.074  27.565  1.00  0.00    -0.357 N 
ATOM      6  H1  UNL     1      43.829  -4.952  27.431  1.00  0.00     0.162 HD
BRANCH   5   7
HETATM    7  C2  UNL     1      43.480  -3.074  26.559  1.00  0.00     0.144 C 
HETATM    8  C1  UNL     1      44.295  -1.886  27.042  1.00  0.00     0.040 C 
BRANCH   7   9
HETATM    9  C16 UNL     1      44.064  -3.546  25.290  1.00  0.00     0.109 C 
HETATM   10  N3  UNL     1      44.256  -4.800  25.111  1.00  0.00    -0.389 N 
ATOM     11  H32 UNL     1      44.019  -5.475  25.837  1.00  0.00     0.157 HD
ATOM     12  H31 UNL     1      44.660  -5.126  24.233  1.00  0.00     0.157 HD
HETATM   13  N4  UNL     1      44.393  -2.607  24.282  1.00  0.00    -0.086 NA
ENDBRANCH   7   9
ENDBRANCH   5   7
ENDBRANCH   3   5
ENDBRANCH   1   3
BRANCH   1  14
HETATM   14  C4  UNL     1      40.935  -2.344  29.657  1.00  0.00     0.131 C 
BRANCH  14  15
HETATM   15  C5  UNL     1      39.558  -2.442  30.224  1.00  0.00    -0.023 C 
HETATM   16  C6  UNL     1      39.190  -1.056  30.756  1.00  0.00     0.015 C 
HETATM   17  C7  UNL     1      37.822  -1.044  31.369  1.00  0.00    -0.013 C 
HETATM   18  C8  UNL     1      37.802  -1.998  32.538  1.00  0.00     0.009 C 
HETATM   19  C13 UNL     1      36.830  -1.431  30.296  1.00  0.00     0.015 C 
HETATM   20  C9  UNL     1      38.147  -3.383  32.013  1.00  0.00    -0.013 C 
HETATM   21  C10 UNL     1      37.073  -3.750  31.014  1.00  0.00     0.015 C 
HETATM   22  C15 UNL     1      39.521  -3.395  31.401  1.00  0.00     0.015 C 
HETATM   23  C11 UNL     1      37.172  -2.823  29.822  1.00  0.00    -0.030 C 
HETATM   24  C14 UNL     1      38.545  -2.912  29.219  1.00  0.00     0.021 C 
BRANCH  23  25
HETATM   25  C12 UNL     1      36.095  -3.240  28.845  1.00  0.00     0.094 C 
HETATM   26 BR1  UNL     1      35.058  -1.756  28.217  1.00  0.00    -0.096 Br
ENDBRANCH  23  25
ENDBRANCH  14  15
ENDBRANCH   1  14
TORSDOF 7
ENDMDL
MODEL 2
REMARK VINA RESULT: -6.454175619      1.495      2.400
REMARK  7 active torsions:
REMARK  status: ('A' for Active; 'I' for Inactive)
REMARK    1  A    between atoms: C2_2  and  N1_3 
REMARK    2  A    between atoms: C2_2  and  C16_22 
REMARK    3  A    between atoms: N1_3  and  C3_5 
REMARK    4  A    between atoms: C3_5  and  N2_7 
REMARK    5  A    between atoms: N2_7  and  C4_9 
REMARK    6  A    between atoms: C4_9  and  C5_10 
REMARK    7  A    between atoms: C11_16  and  C12_17 
ROOT
HETATM    1  N2  UNL     1      41.410  -3.265  28.781  1.00  0.00    -0.366 N 
ATOM      2  H2  UNL     1      40.598  -3.627  28.281  1.00  0.00     0.161 HD
ENDROOT
BRANCH   1   3
HETATM    3  C3  UNL     1      42.647  -3.971  28.767  1.00  0.00     0.168 C 
HETATM    4  S1  UNL     1      43.219  -4.703  30.128  1.00  0.00    -0.041 SA
BRANCH   3   5
HETATM    5  N1  UNL     1      43.436  -4.059  27.600  1.00  0.00    -0.357 N 
ATOM      6  H1  UNL     1      44.007  -4.896  27.483  1.00  0.00     0.162 HD
BRANCH   5   7
HETATM    7  C2  UNL     1      43.503  -3.072  26.573  1.00  0.00     0.144 C 
HETATM    8  C1  UNL     1      44.280  -1.839  27.003  1.00  0.00     0.040 C 
BRANCH   7   9
HETATM    9  C16 UNL     1      44.060  -3.541  25.290  1.00  0.00     0.109 C 
HETATM   10  N3  UNL     1      44.240  -4.795  25.101  1.00  0.00    -0.389 N 
ATOM     11  H32 UNL     1      44.013  -5.473  25.827  1.00  0.00     0.157 HD
ATOM     12  H31 UNL     1      44.625  -5.119  24.213  1.00  0.00     0.157 HD
HETATM   13  N4  UNL     1      44.375  -2.599  24.281  1.00  0.00    -0.086 NA
ENDBRANCH   7   9
ENDBRANCH   5   7
ENDBRANCH   3   5
ENDBRANCH   1   3
BRANCH   1  14
HETATM   14  C4  UNL     1      41.331  -2.040  29.511  1.00  0.00     0.131 C 
BRANCH  14  15
HETATM   15  C5  UNL     1      40.124  -1.924  30.382  1.00  0.00    -0.023 C 
HETATM   16  C6  UNL     1      40.406  -2.730  31.651  1.00  0.00     0.015 C 
HETATM   17  C7  UNL     1      39.243  -2.697  32.597  1.00  0.00    -0.013 C 
HETATM   18  C8  UNL     1      38.046  -3.319  31.923  1.00  0.00     0.009 C 
HETATM   19  C13 UNL     1      39.000  -1.255  32.981  1.00  0.00     0.015 C 
HETATM   20  C9  UNL     1      37.746  -2.511  30.670  1.00  0.00    -0.013 C 
HETATM   21  C10 UNL     1      37.425  -1.106  31.124  1.00  0.00     0.015 C 
HETATM   22  C15 UNL     1      38.912  -2.548  29.720  1.00  0.00     0.015 C 
HETATM   23  C11 UNL     1      38.668  -0.485  31.726  1.00  0.00    -0.030 C 
HETATM   24  C14 UNL     1      39.782  -0.501  30.720  1.00  0.00     0.021 C 
BRANCH  23  25
HETATM   25  C12 UNL     1      38.302   0.921  32.146  1.00  0.00     0.094 C 
HETATM   26 BR1  UNL     1      36.568   1.016  32.960  1.00  0.00    -0.096 Br
ENDBRANCH  23  25
ENDBRANCH  14  15
ENDBRANCH   1  14
TORSDOF 7
ENDMDL
MODEL 3
REMARK VINA RESULT: -6.303683926      1.346      2.256
REMARK  7 active torsions:
REMARK  status: ('A' for Active; 'I' for Inactive)
REMARK    1  A    between atoms: C2_2  and  N1_3 
REMARK    2  A    between atoms: C2_2  and  C16_22 
REMARK    3  A    between atoms: N1_3  and  C3_5 
REMARK    4  A    between atoms: C3_5  and  N2_7 
REMARK    5  A    between atoms: N2_7  and  C4_9 
REMARK    6  A    between atoms: C4_9  and  C5_10 
REMARK    7  A    between atoms: C11_16  and  C12_17 
ROOT
HETATM    1  N2  UNL     1      41.172  -3.344  28.759  1.00  0.00    -0.366 N 
ATOM      2  H2  UNL     1      40.526  -3.516  27.988  1.00  0.00     0.161 HD
ENDROOT
BRANCH   1   3
HETATM    3  C3  UNL     1      42.472  -3.926  28.761  1.00  0.00     0.168 C 
HETATM    4  S1  UNL     1      43.175  -4.419  30.168  1.00  0.00    -0.041 SA
BRANCH   3   5
HETATM    5  N1  UNL     1      43.213  -4.089  27.571  1.00  0.00    -0.357 N 
ATOM      6  H1  UNL     1      43.628  -5.005  27.400  1.00  0.00     0.162 HD
BRANCH   5   7
HETATM    7  C2  UNL     1      43.430  -3.079  26.589  1.00  0.00     0.144 C 
HETATM    8  C1  UNL     1      44.261  -1.923  27.120  1.00  0.00     0.040 C 
BRANCH   7   9
HETATM    9  C16 UNL     1      44.045  -3.548  25.333  1.00  0.00     0.109 C 
HETATM   10  N3  UNL     1      44.243  -4.801  25.157  1.00  0.00    -0.389 N 
ATOM     11  H32 UNL     1      43.990  -5.478  25.876  1.00  0.00     0.157 HD
ATOM     12  H31 UNL     1      44.668  -5.126  24.289  1.00  0.00     0.157 HD
HETATM   13  N4  UNL     1      44.396  -2.607  24.335  1.00  0.00    -0.086 NA
ENDBRANCH   7   9
ENDBRANCH   5   7
ENDBRANCH   3   5
ENDBRANCH   1   3
BRANCH   1  14
HETATM   14  C4  UNL     1      40.792  -2.515  29.857  1.00  0.00     0.131 C 
BRANCH  14  15
HETATM   15  C5  UNL     1      39.346  -2.602  30.218  1.00  0.00    -0.023 C 
HETATM   16  C6  UNL     1      39.208  -3.713  31.260  1.00  0.00     0.015 C 
HETATM   17  C7  UNL     1      37.781  -3.900  31.683  1.00  0.00    -0.013 C 
HETATM   18  C8  UNL     1      36.964  -4.301  30.482  1.00  0.00     0.009 C 
HETATM   19  C13 UNL     1      37.306  -2.601  32.293  1.00  0.00     0.015 C 
HETATM   20  C9  UNL     1      37.079  -3.192  29.448  1.00  0.00    -0.013 C 
HETATM   21  C10 UNL     1      36.508  -1.945  30.083  1.00  0.00     0.015 C 
HETATM   22  C15 UNL     1      38.510  -3.008  29.021  1.00  0.00     0.015 C 
HETATM   23  C11 UNL     1      37.395  -1.527  31.235  1.00  0.00    -0.030 C 
HETATM   24  C14 UNL     1      38.797  -1.306  30.745  1.00  0.00     0.021 C 
BRANCH  23  25
HETATM   25  C12 UNL     1      36.795  -0.269  31.823  1.00  0.00     0.094 C 
HETATM   26 BR1  UNL     1      38.130   0.982  32.397  1.00  0.00    -0.096 Br
ENDBRANCH  23  25
ENDBRANCH  14  15
ENDBRANCH   1  14
TORSDOF 7
ENDMDL
MODEL 4
REMARK VINA RESULT: -6.281005507      1.614      2.017
REMARK  7 active torsions:
REMARK  status: ('A' for Active; 'I' for Inactive)
REMARK    1  A    between atoms: C2_2  and  N1_3 
REMARK    2  A    between atoms: C2_2  and  C16_22 
REMARK    3  A    between atoms: N1_3  and  C3_5 
REMARK    4  A    between atoms: C3_5  and  N2_7 
REMARK    5  A    between atoms: N2_7  and  C4_9 
REMARK    6  A    between atoms: C4_9  and  C5_10 
REMARK    7  A    between atoms: C11_16  and  C12_17 
ROOT
HETATM    1  N2  UNL     1      41.852  -2.641  29.056  1.00  0.00    -0.366 N 
ATOM      2  H2  UNL     1      42.252  -1.709  29.167  1.00  0.00     0.161 HD
ENDROOT
BRANCH   1   3
HETATM    3  C3  UNL     1      42.677  -3.750  28.713  1.00  0.00     0.168 C 
HETATM    4  S1  UNL     1      42.474  -5.213  29.443  1.00  0.00    -0.041 SA
BRANCH   3   5
HETATM    5  N1  UNL     1      43.706  -3.639  27.753  1.00  0.00    -0.357 N 
ATOM      6  H1  UNL     1      44.534  -4.220  27.885  1.00  0.00     0.162 HD
BRANCH   5   7
HETATM    7  C2  UNL     1      43.684  -2.780  26.615  1.00  0.00     0.144 C 
HETATM    8  C1  UNL     1      44.505  -1.518  26.824  1.00  0.00     0.040 C 
BRANCH   7   9
HETATM    9  C16 UNL     1      44.117  -3.405  25.351  1.00  0.00     0.109 C 
HETATM   10  N3  UNL     1      44.204  -4.680  25.274  1.00  0.00    -0.389 N 
ATOM     11  H32 UNL     1      43.987  -5.270  26.077  1.00  0.00     0.157 HD
ATOM     12  H31 UNL     1      44.504  -5.112  24.400  1.00  0.00     0.157 HD
HETATM   13  N4  UNL     1      44.419  -2.585  24.236  1.00  0.00    -0.086 NA
ENDBRANCH   7   9
ENDBRANCH   5   7
ENDBRANCH   3   5
ENDBRANCH   1   3
BRANCH   1  14
HETATM   14  C4  UNL     1      40.454  -2.861  29.241  1.00  0.00     0.131 C 
BRANCH  14  15
HETATM   15  C5  UNL     1      39.888  -2.213  30.461  1.00  0.00    -0.023 C 
HETATM   16  C6  UNL     1      40.668  -0.916  30.684  1.00  0.00     0.015 C 
HETATM   17  C7  UNL     1      40.191  -0.187  31.905  1.00  0.00    -0.013 C 
HETATM   18  C8  UNL     1      40.412  -1.061  33.113  1.00  0.00     0.009 C 
HETATM   19  C13 UNL     1      38.732   0.151  31.701  1.00  0.00     0.015 C 
HETATM   20  C9  UNL     1      39.624  -2.346  32.909  1.00  0.00    -0.013 C 
HETATM   21  C10 UNL     1      38.168  -1.951  32.802  1.00  0.00     0.015 C 
HETATM   22  C15 UNL     1      40.105  -3.078  31.687  1.00  0.00     0.015 C 
HETATM   23  C11 UNL     1      37.969  -1.141  31.539  1.00  0.00    -0.030 C 
HETATM   24  C14 UNL     1      38.416  -1.937  30.347  1.00  0.00     0.021 C 
BRANCH  23  25
HETATM   25  C12 UNL     1      36.500  -0.788  31.467  1.00  0.00     0.094 C 
HETATM   26 BR1  UNL     1      36.026   0.632  32.665  1.00  0.00    -0.096 Br
ENDBRANCH  23  25
ENDBRANCH  14  15
ENDBRANCH   1  14
TORSDOF 7
ENDMDL
MODEL 5
REMARK VINA RESULT: -6.230792045      2.516      3.474
REMARK  7 active torsions:
REMARK  status: ('A' for Active; 'I' for Inactive)
REMARK    1  A    between atoms: C2_2  and  N1_3 
REMARK    2  A    between atoms: C2_2  and  C16_22 
REMARK    3  A    between atoms: N1_3  and  C3_5 
REMARK    4  A    between atoms: C3_5  and  N2_7 
REMARK    5  A    between atoms: N2_7  and  C4_9 
REMARK    6  A    between atoms: C4_9  and  C5_10 
REMARK    7  A    between atoms: C11_16  and  C12_17 
ROOT
HETATM    1  N2  UNL     1      41.472  -2.972  28.771  1.00  0.00    -0.366 N 
ATOM      2  H2  UNL     1      40.559  -3.094  28.333  1.00  0.00     0.161 HD
ENDROOT
BRANCH   1   3
HETATM    3  C3  UNL     1      42.492  -3.953  28.609  1.00  0.00     0.168 C 
HETATM    4  S1  UNL     1      42.444  -5.371  29.447  1.00  0.00    -0.041 SA
BRANCH   3   5
HETATM    5  N1  UNL     1      43.588  -3.746  27.743  1.00  0.00    -0.357 N 
ATOM      6  H1  UNL     1      44.441  -4.272  27.934  1.00  0.00     0.162 HD
BRANCH   5   7
HETATM    7  C2  UNL     1      43.600  -2.862  26.624  1.00  0.00     0.144 C 
HETATM    8  C1  UNL     1      44.400  -1.598  26.893  1.00  0.00     0.040 C 
BRANCH   7   9
HETATM    9  C16 UNL     1      44.087  -3.454  25.364  1.00  0.00     0.109 C 
HETATM   10  N3  UNL     1      44.228  -4.724  25.276  1.00  0.00    -0.389 N 
ATOM     11  H32 UNL     1      44.018  -5.331  26.068  1.00  0.00     0.157 HD
ATOM     12  H31 UNL     1      44.564  -5.133  24.405  1.00  0.00     0.157 HD
HETATM   13  N4  UNL     1      44.378  -2.610  24.264  1.00  0.00    -0.086 NA
ENDBRANCH   7   9
ENDBRANCH   5   7
ENDBRANCH   3   5
ENDBRANCH   1   3
BRANCH   1  14
HETATM   14  C4  UNL     1      41.755  -1.816  29.559  1.00  0.00     0.131 C 
BRANCH  14  15
HETATM   15  C5  UNL     1      40.735  -1.528  30.611  1.00  0.00    -0.023 C 
HETATM   16  C6  UNL     1      39.660  -2.611  30.504  1.00  0.00     0.015 C 
HETATM   17  C7  UNL     1      38.568  -2.408  31.511  1.00  0.00    -0.013 C 
HETATM   18  C8  UNL     1      37.902  -1.081  31.248  1.00  0.00     0.009 C 
HETATM   19  C13 UNL     1      39.190  -2.474  32.888  1.00  0.00     0.015 C 
HETATM   20  C9  UNL     1      38.960   0.004  31.372  1.00  0.00    -0.013 C 
HETATM   21  C10 UNL     1      39.478  -0.054  32.791  1.00  0.00     0.015 C 
HETATM   22  C15 UNL     1      40.053  -0.199  30.359  1.00  0.00     0.015 C 
HETATM   23  C11 UNL     1      40.207  -1.364  32.996  1.00  0.00    -0.030 C 
HETATM   24  C14 UNL     1      41.318  -1.491  31.995  1.00  0.00     0.021 C 
BRANCH  23  25
HETATM   25  C12 UNL     1      40.722  -1.366  34.419  1.00  0.00     0.094 C 
HETATM   26 BR1  UNL     1      42.582  -0.912  34.527  1.00  0.00    -0.096 Br
ENDBRANCH  23  25
ENDBRANCH  14  15
ENDBRANCH   1  14
TORSDOF 7
ENDMDL
