MODEL 1
REMARK VINA RESULT: -7.412431848      0.000      0.000
REMARK  5 active torsions:
REMARK  status: ('A' for Active; 'I' for Inactive)
REMARK    1  A    between atoms: C7_8  and  N1_9 
REMARK       I    between atoms: N1_9  and  C8_11 
REMARK    2  A    between atoms: C8_11  and  C9_13 
REMARK    3  A    between atoms: C9_13  and  C10_14 
REMARK    4  A    between atoms: C14_18  and  C15_19 
REMARK    5  A    between atoms: C15_19  and  N2_20 
REMARK       I    between atoms: N2_20  and  C16_22 
REMARK       I    between atoms: N4_24  and  C17_26 
ROOT
HETATM    1  C1  UNL     1      42.544  -6.236  29.844  1.00  0.00     0.015 C 
HETATM    2  C2  UNL     1      42.103  -5.093  30.325  1.00  0.00    -0.078 C 
HETATM    3  C3  UNL     1      40.770  -4.409  30.100  1.00  0.00     0.018 C 
HETATM    4  C4  UNL     1      40.400  -4.170  31.546  1.00  0.00     0.053 C 
HETATM    5  C5  UNL     1      41.653  -3.603  32.118  1.00  0.00     0.113 C 
HETATM    6  F1  UNL     1      41.857  -4.139  33.386  1.00  0.00    -0.242 F 
HETATM    7  C6  UNL     1      41.682  -2.119  32.267  1.00  0.00     0.070 C 
HETATM    8  C7  UNL     1      41.526  -1.371  30.953  1.00  0.00     0.101 C 
HETATM    9  C14 UNL     1      42.009  -2.213  29.837  1.00  0.00     0.014 C 
HETATM   10  C18 UNL     1      40.979  -3.173  29.300  1.00  0.00     0.026 C 
HETATM   11  C19 UNL     1      43.229  -2.987  30.381  1.00  0.00     0.029 C 
HETATM   12  C20 UNL     1      42.780  -4.121  31.238  1.00  0.00     0.055 C 
ENDROOT
BRANCH   9  13
HETATM   13  C15 UNL     1      42.590  -1.465  28.673  1.00  0.00     0.075 C 
BRANCH  13  14
HETATM   14  N2  UNL     1      43.963  -1.636  28.406  1.00  0.00    -0.343 N 
HETATM   15  C16 UNL     1      44.355  -2.006  27.100  1.00  0.00     0.194 C 
HETATM   16  N3  UNL     1      45.386  -1.288  26.454  1.00  0.00    -0.063 NA
HETATM   17  N4  UNL     1      43.787  -2.971  26.518  1.00  0.00    -0.305 N 
HETATM   18  C17 UNL     1      44.010  -3.501  25.247  1.00  0.00     0.188 C 
ATOM     19  H4  UNL     1      43.055  -3.433  27.057  1.00  0.00     0.171 HD
HETATM   20  N5  UNL     1      44.314  -4.779  25.207  1.00  0.00    -0.373 N 
HETATM   21  N6  UNL     1      43.944  -2.817  24.024  1.00  0.00    -0.064 NA
ATOM     22  H52 UNL     1      44.364  -5.276  26.096  1.00  0.00     0.158 HD
ATOM     23  H51 UNL     1      44.478  -5.166  24.277  1.00  0.00     0.158 HD
ATOM     24  H2  UNL     1      44.659  -1.495  29.138  1.00  0.00     0.167 HD
ENDBRANCH  13  14
ENDBRANCH   9  13
BRANCH   8  25
HETATM   25  N1  UNL     1      40.213  -0.842  30.889  1.00  0.00    -0.355 N 
HETATM   26  C8  UNL     1      39.621   0.005  31.866  1.00  0.00     0.218 C 
HETATM   27  O1  UNL     1      40.370   0.283  32.866  1.00  0.00    -0.274 OA
ATOM     28  H1  UNL     1      39.647  -1.089  30.077  1.00  0.00     0.162 HD
BRANCH  26  29
HETATM   29  C9  UNL     1      38.269   0.550  31.795  1.00  0.00     0.111 C 
BRANCH  29  30
HETATM   30  C10 UNL     1      37.196  -0.463  32.109  1.00  0.00    -0.043 C 
HETATM   31  C11 UNL     1      35.959   0.333  32.482  1.00  0.00     0.015 C 
HETATM   32  C12 UNL     1      37.530  -1.403  33.210  1.00  0.00     0.015 C 
HETATM   33  C13 UNL     1      36.845  -1.287  30.878  1.00  0.00     0.015 C 
ENDBRANCH  29  30
ENDBRANCH  26  29
ENDBRANCH   8  25
TORSDOF 5
ENDMDL
MODEL 2
REMARK VINA RESULT: -7.405121216      2.921      4.353
REMARK  5 active torsions:
REMARK  status: ('A' for Active; 'I' for Inactive)
REMARK    1  A    between atoms: C7_8  and  N1_9 
REMARK       I    between atoms: N1_9  and  C8_11 
REMARK    2  A    between atoms: C8_11  and  C9_13 
REMARK    3  A    between atoms: C9_13  and  C10_14 
REMARK    4  A    between atoms: C14_18  and  C15_19 
REMARK    5  A    between atoms: C15_19  and  N2_20 
REMARK       I    between atoms: N2_20  and  C16_22 
REMARK       I    between atoms: N4_24  and  C17_26 
ROOT
HETATM    1  C1  UNL     1      38.056  -3.234  30.753  1.00  0.00     0.015 C 
HETATM    2  C2  UNL     1      39.147  -2.870  31.396  1.00  0.00    -0.078 C 
HETATM    3  C3  UNL     1      39.438  -1.579  32.131  1.00  0.00     0.018 C 
HETATM    4  C4  UNL     1      39.905  -2.173  33.441  1.00  0.00     0.053 C 
HETATM    5  C5  UNL     1      40.857  -3.231  33.002  1.00  0.00     0.113 C 
HETATM    6  F1  UNL     1      40.682  -4.359  33.797  1.00  0.00    -0.242 F 
HETATM    7  C6  UNL     1      42.303  -2.872  33.077  1.00  0.00     0.070 C 
HETATM    8  C7  UNL     1      42.680  -1.679  32.214  1.00  0.00     0.101 C 
HETATM    9  C14 UNL     1      41.743  -1.568  31.075  1.00  0.00     0.014 C 
HETATM   10  C18 UNL     1      40.477  -0.814  31.392  1.00  0.00     0.026 C 
HETATM   11  C19 UNL     1      41.412  -3.015  30.651  1.00  0.00     0.029 C 
HETATM   12  C20 UNL     1      40.427  -3.616  31.594  1.00  0.00     0.055 C 
ENDROOT
BRANCH   9  13
HETATM   13  C15 UNL     1      42.323  -0.984  29.820  1.00  0.00     0.075 C 
BRANCH  13  14
HETATM   14  N2  UNL     1      43.720  -1.064  29.647  1.00  0.00    -0.343 N 
HETATM   15  C16 UNL     1      44.234  -1.134  28.333  1.00  0.00     0.194 C 
HETATM   16  N3  UNL     1      45.285  -0.271  27.951  1.00  0.00    -0.063 NA
HETATM   17  N4  UNL     1      43.756  -1.962  27.509  1.00  0.00    -0.305 N 
HETATM   18  C17 UNL     1      44.105  -2.199  26.179  1.00  0.00     0.188 C 
ATOM     19  H4  UNL     1      43.001  -2.545  27.868  1.00  0.00     0.171 HD
HETATM   20  N5  UNL     1      44.463  -3.430  25.894  1.00  0.00    -0.373 N 
HETATM   21  N6  UNL     1      44.113  -1.267  25.130  1.00  0.00    -0.064 NA
ATOM     22  H52 UNL     1      44.457  -4.107  26.657  1.00  0.00     0.158 HD
ATOM     23  H51 UNL     1      44.718  -3.603  24.921  1.00  0.00     0.158 HD
ATOM     24  H2  UNL     1      44.346  -1.072  30.452  1.00  0.00     0.167 HD
ENDBRANCH  13  14
ENDBRANCH   9  13
BRANCH   8  25
HETATM   25  N1  UNL     1      42.867  -0.554  33.056  1.00  0.00    -0.355 N 
HETATM   26  C8  UNL     1      43.971   0.340  32.998  1.00  0.00     0.218 C 
HETATM   27  O1  UNL     1      44.842   0.065  32.101  1.00  0.00    -0.274 OA
ATOM     28  H1  UNL     1      42.151  -0.372  33.759  1.00  0.00     0.162 HD
BRANCH  26  29
HETATM   29  C9  UNL     1      44.158   1.499  33.866  1.00  0.00     0.111 C 
BRANCH  29  30
HETATM   30  C10 UNL     1      44.740   1.152  35.213  1.00  0.00    -0.043 C 
HETATM   31  C11 UNL     1      44.898   2.466  35.957  1.00  0.00     0.015 C 
HETATM   32  C12 UNL     1      46.049   0.450  35.165  1.00  0.00     0.015 C 
HETATM   33  C13 UNL     1      43.776   0.293  36.020  1.00  0.00     0.015 C 
ENDBRANCH  29  30
ENDBRANCH  26  29
ENDBRANCH   8  25
TORSDOF 5
ENDMDL
MODEL 3
REMARK VINA RESULT: -7.194924039      2.356      5.323
REMARK  5 active torsions:
REMARK  status: ('A' for Active; 'I' for Inactive)
REMARK    1  A    between atoms: C7_8  and  N1_9 
REMARK       I    between atoms: N1_9  and  C8_11 
REMARK    2  A    between atoms: C8_11  and  C9_13 
REMARK    3  A    between atoms: C9_13  and  C10_14 
REMARK    4  A    between atoms: C14_18  and  C15_19 
REMARK    5  A    between atoms: C15_19  and  N2_20 
REMARK       I    between atoms: N2_20  and  C16_22 
REMARK       I    between atoms: N4_24  and  C17_26 
ROOT
HETATM    1  C1  UNL     1      38.831   0.475  31.781  1.00  0.00     0.015 C 
HETATM    2  C2  UNL     1      39.280  -0.761  31.714  1.00  0.00    -0.078 C 
HETATM    3  C3  UNL     1      40.552  -1.349  32.286  1.00  0.00     0.018 C 
HETATM    4  C4  UNL     1      39.943  -2.527  33.012  1.00  0.00     0.053 C 
HETATM    5  C5  UNL     1      39.025  -3.105  31.990  1.00  0.00     0.113 C 
HETATM    6  F1  UNL     1      37.842  -3.494  32.609  1.00  0.00    -0.242 F 
HETATM    7  C6  UNL     1      39.542  -4.298  31.259  1.00  0.00     0.070 C 
HETATM    8  C7  UNL     1      40.817  -4.029  30.476  1.00  0.00     0.101 C 
HETATM    9  C14 UNL     1      40.884  -2.599  30.105  1.00  0.00     0.014 C 
HETATM   10  C18 UNL     1      41.471  -1.713  31.175  1.00  0.00     0.026 C 
HETATM   11  C19 UNL     1      39.435  -2.169  29.791  1.00  0.00     0.029 C 
HETATM   12  C20 UNL     1      38.674  -1.959  31.055  1.00  0.00     0.055 C 
ENDROOT
BRANCH   9  13
HETATM   13  C15 UNL     1      41.599  -2.301  28.820  1.00  0.00     0.075 C 
BRANCH  13  14
HETATM   14  N2  UNL     1      43.008  -2.250  28.853  1.00  0.00    -0.343 N 
HETATM   15  C16 UNL     1      43.714  -2.325  27.632  1.00  0.00     0.194 C 
HETATM   16  N3  UNL     1      44.727  -1.380  27.356  1.00  0.00    -0.063 NA
HETATM   17  N4  UNL     1      43.440  -3.229  26.795  1.00  0.00    -0.305 N 
HETATM   18  C17 UNL     1      44.001  -3.486  25.544  1.00  0.00     0.188 C 
ATOM     19  H4  UNL     1      42.696  -3.868  27.075  1.00  0.00     0.171 HD
HETATM   20  N5  UNL     1      44.507  -4.688  25.382  1.00  0.00    -0.373 N 
HETATM   21  N6  UNL     1      44.079  -2.603  24.457  1.00  0.00    -0.064 NA
ATOM     22  H52 UNL     1      44.451  -5.330  26.173  1.00  0.00     0.158 HD
ATOM     23  H51 UNL     1      44.918  -4.875  24.467  1.00  0.00     0.158 HD
ATOM     24  H2  UNL     1      43.506  -2.162  29.738  1.00  0.00     0.167 HD
ENDBRANCH  13  14
ENDBRANCH   9  13
BRANCH   8  25
HETATM   25  N1  UNL     1      41.906  -4.604  31.176  1.00  0.00    -0.355 N 
HETATM   26  C8  UNL     1      42.988  -5.307  30.577  1.00  0.00     0.218 C 
HETATM   27  O1  UNL     1      42.927  -5.406  29.302  1.00  0.00    -0.274 OA
ATOM     28  H1  UNL     1      41.916  -4.505  32.191  1.00  0.00     0.162 HD
BRANCH  26  29
HETATM   29  C9  UNL     1      44.109  -5.896  31.302  1.00  0.00     0.111 C 
BRANCH  29  30
HETATM   30  C10 UNL     1      43.818  -7.274  31.843  1.00  0.00    -0.043 C 
HETATM   31  C11 UNL     1      45.148  -8.004  31.879  1.00  0.00     0.015 C 
HETATM   32  C12 UNL     1      42.842  -8.062  31.046  1.00  0.00     0.015 C 
HETATM   33  C13 UNL     1      43.306  -7.202  33.275  1.00  0.00     0.015 C 
ENDBRANCH  29  30
ENDBRANCH  26  29
ENDBRANCH   8  25
TORSDOF 5
ENDMDL
MODEL 4
REMARK VINA RESULT: -7.143199453      1.659      2.163
REMARK  5 active torsions:
REMARK  status: ('A' for Active; 'I' for Inactive)
REMARK    1  A    between atoms: C7_8  and  N1_9 
REMARK       I    between atoms: N1_9  and  C8_11 
REMARK    2  A    between atoms: C8_11  and  C9_13 
REMARK    3  A    between atoms: C9_13  and  C10_14 
REMARK    4  A    between atoms: C14_18  and  C15_19 
REMARK    5  A    between atoms: C15_19  and  N2_20 
REMARK       I    between atoms: N2_20  and  C16_22 
REMARK       I    between atoms: N4_24  and  C17_26 
ROOT
HETATM    1  C1  UNL     1      43.246  -7.310  30.622  1.00  0.00     0.015 C 
HETATM    2  C2  UNL     1      42.487  -6.312  31.025  1.00  0.00    -0.078 C 
HETATM    3  C3  UNL     1      41.041  -6.013  30.689  1.00  0.00     0.018 C 
HETATM    4  C4  UNL     1      40.520  -5.843  32.098  1.00  0.00     0.053 C 
HETATM    5  C5  UNL     1      41.537  -4.949  32.720  1.00  0.00     0.113 C 
HETATM    6  F1  UNL     1      41.785  -5.378  34.020  1.00  0.00    -0.242 F 
HETATM    7  C6  UNL     1      41.164  -3.507  32.806  1.00  0.00     0.070 C 
HETATM    8  C7  UNL     1      40.910  -2.862  31.453  1.00  0.00     0.101 C 
HETATM    9  C14 UNL     1      41.674  -3.574  30.407  1.00  0.00     0.014 C 
HETATM   10  C18 UNL     1      40.973  -4.787  29.850  1.00  0.00     0.026 C 
HETATM   11  C19 UNL     1      43.013  -3.982  31.057  1.00  0.00     0.029 C 
HETATM   12  C20 UNL     1      42.819  -5.172  31.933  1.00  0.00     0.055 C 
ENDROOT
BRANCH   9  13
HETATM   13  C15 UNL     1      42.118  -2.730  29.248  1.00  0.00     0.075 C 
BRANCH  13  14
HETATM   14  N2  UNL     1      43.475  -2.351  29.198  1.00  0.00    -0.343 N 
HETATM   15  C16 UNL     1      43.967  -1.761  28.012  1.00  0.00     0.194 C 
HETATM   16  N3  UNL     1      44.715  -0.565  28.090  1.00  0.00    -0.063 NA
HETATM   17  N4  UNL     1      43.737  -2.299  26.894  1.00  0.00    -0.305 N 
HETATM   18  C17 UNL     1      44.120  -1.895  25.615  1.00  0.00     0.188 C 
ATOM     19  H4  UNL     1      43.190  -3.158  26.931  1.00  0.00     0.171 HD
HETATM   20  N5  UNL     1      44.815  -2.769  24.925  1.00  0.00    -0.373 N 
HETATM   21  N6  UNL     1      43.841  -0.665  25.000  1.00  0.00    -0.064 NA
ATOM     22  H52 UNL     1      45.019  -3.663  25.372  1.00  0.00     0.158 HD
ATOM     23  H51 UNL     1      45.095  -2.473  23.989  1.00  0.00     0.158 HD
ATOM     24  H2  UNL     1      44.088  -2.499  29.999  1.00  0.00     0.167 HD
ENDBRANCH  13  14
ENDBRANCH   9  13
BRANCH   8  25
HETATM   25  N1  UNL     1      39.511  -2.702  31.286  1.00  0.00    -0.355 N 
HETATM   26  C8  UNL     1      38.880  -1.580  30.683  1.00  0.00     0.218 C 
HETATM   27  O1  UNL     1      39.678  -0.665  30.277  1.00  0.00    -0.274 OA
ATOM     28  H1  UNL     1      38.909  -3.453  31.626  1.00  0.00     0.162 HD
BRANCH  26  29
HETATM   29  C9  UNL     1      37.439  -1.420  30.511  1.00  0.00     0.111 C 
BRANCH  29  30
HETATM   30  C10 UNL     1      36.828  -2.440  29.584  1.00  0.00    -0.043 C 
HETATM   31  C11 UNL     1      36.115  -3.445  30.470  1.00  0.00     0.015 C 
HETATM   32  C12 UNL     1      37.800  -3.151  28.712  1.00  0.00     0.015 C 
HETATM   33  C13 UNL     1      35.774  -1.804  28.689  1.00  0.00     0.015 C 
ENDBRANCH  29  30
ENDBRANCH  26  29
ENDBRANCH   8  25
TORSDOF 5
ENDMDL
MODEL 5
REMARK VINA RESULT: -7.065691266      2.261      2.904
REMARK  5 active torsions:
REMARK  status: ('A' for Active; 'I' for Inactive)
REMARK    1  A    between atoms: C7_8  and  N1_9 
REMARK       I    between atoms: N1_9  and  C8_11 
REMARK    2  A    between atoms: C8_11  and  C9_13 
REMARK    3  A    between atoms: C9_13  and  C10_14 
REMARK    4  A    between atoms: C14_18  and  C15_19 
REMARK    5  A    between atoms: C15_19  and  N2_20 
REMARK       I    between atoms: N2_20  and  C16_22 
REMARK       I    between atoms: N4_24  and  C17_26 
ROOT
HETATM    1  C1  UNL     1      44.289  -5.822  31.283  1.00  0.00     0.015 C 
HETATM    2  C2  UNL     1      43.107  -5.280  31.079  1.00  0.00    -0.078 C 
HETATM    3  C3  UNL     1      42.070  -5.611  30.026  1.00  0.00     0.018 C 
HETATM    4  C4  UNL     1      40.877  -5.781  30.938  1.00  0.00     0.053 C 
HETATM    5  C5  UNL     1      40.961  -4.582  31.818  1.00  0.00     0.113 C 
HETATM    6  F1  UNL     1      40.645  -4.952  33.122  1.00  0.00    -0.242 F 
HETATM    7  C6  UNL     1      40.057  -3.452  31.459  1.00  0.00     0.070 C 
HETATM    8  C7  UNL     1      40.308  -2.887  30.071  1.00  0.00     0.101 C 
HETATM    9  C14 UNL     1      41.715  -3.124  29.680  1.00  0.00     0.014 C 
HETATM   10  C18 UNL     1      41.962  -4.479  29.067  1.00  0.00     0.026 C 
HETATM   11  C19 UNL     1      42.550  -2.959  30.968  1.00  0.00     0.029 C 
HETATM   12  C20 UNL     1      42.426  -4.175  31.822  1.00  0.00     0.055 C 
ENDROOT
BRANCH   9  13
HETATM   13  C15 UNL     1      42.312  -2.092  28.769  1.00  0.00     0.075 C 
BRANCH  13  14
HETATM   14  N2  UNL     1      43.705  -2.134  28.559  1.00  0.00    -0.343 N 
HETATM   15  C16 UNL     1      44.184  -2.293  27.239  1.00  0.00     0.194 C 
HETATM   16  N3  UNL     1      45.188  -1.426  26.755  1.00  0.00    -0.063 NA
HETATM   17  N4  UNL     1      43.715  -3.202  26.500  1.00  0.00    -0.305 N 
HETATM   18  C17 UNL     1      44.036  -3.535  25.184  1.00  0.00     0.188 C 
ATOM     19  H4  UNL     1      42.994  -3.781  26.930  1.00  0.00     0.171 HD
HETATM   20  N5  UNL     1      44.433  -4.771  24.988  1.00  0.00    -0.373 N 
HETATM   21  N6  UNL     1      43.977  -2.693  24.063  1.00  0.00    -0.064 NA
ATOM     22  H52 UNL     1      44.476  -5.383  25.803  1.00  0.00     0.158 HD
ATOM     23  H51 UNL     1      44.667  -5.014  24.025  1.00  0.00     0.158 HD
ATOM     24  H2  UNL     1      44.353  -2.052  29.342  1.00  0.00     0.167 HD
ENDBRANCH  13  14
ENDBRANCH   9  13
BRANCH   8  25
HETATM   25  N1  UNL     1      39.276  -3.334  29.208  1.00  0.00    -0.355 N 
HETATM   26  C8  UNL     1      37.931  -2.873  29.230  1.00  0.00     0.218 C 
HETATM   27  O1  UNL     1      37.679  -1.985  30.117  1.00  0.00    -0.274 OA
ATOM     28  H1  UNL     1      39.518  -4.045  28.517  1.00  0.00     0.162 HD
BRANCH  26  29
HETATM   29  C9  UNL     1      36.872  -3.335  28.338  1.00  0.00     0.111 C 
BRANCH  29  30
HETATM   30  C10 UNL     1      36.379  -4.724  28.660  1.00  0.00    -0.043 C 
HETATM   31  C11 UNL     1      35.057  -4.547  29.384  1.00  0.00     0.015 C 
HETATM   32  C12 UNL     1      37.300  -5.532  29.500  1.00  0.00     0.015 C 
HETATM   33  C13 UNL     1      36.093  -5.510  27.388  1.00  0.00     0.015 C 
ENDBRANCH  29  30
ENDBRANCH  26  29
ENDBRANCH   8  25
TORSDOF 5
ENDMDL
