MODEL 1
REMARK VINA RESULT: -7.087086170      0.000      0.000
REMARK  5 active torsions:
REMARK  status: ('A' for Active; 'I' for Inactive)
REMARK    1  A    between atoms: C1_2  and  C2_4 
REMARK    2  A    between atoms: C2_4  and  N2_5 
REMARK    3  A    between atoms: C2_4  and  C10_21 
REMARK       I    between atoms: N2_5  and  C3_7 
REMARK       I    between atoms: N4_9  and  C4_11 
REMARK       I    between atoms: C4_11  and  N5_13 
REMARK    4  A    between atoms: N5_13  and  N6_15 
REMARK    5  A    between atoms: N6_15  and  C5_16 
ROOT
HETATM    1  N2  UNL     1      42.960  -0.474  31.254  1.00  0.00    -0.351 N 
ATOM      2  H2  UNL     1      43.498  -0.112  30.467  1.00  0.00     0.163 HD
HETATM    3  C3  UNL     1      43.321  -0.046  32.558  1.00  0.00     0.192 C 
HETATM    4  N3  UNL     1      42.411  -0.132  33.641  1.00  0.00    -0.063 NA
HETATM    5  N4  UNL     1      44.490   0.437  32.814  1.00  0.00    -0.282 N 
ATOM      6  H4  UNL     1      45.158   0.505  32.046  1.00  0.00     0.173 HD
HETATM    7  C4  UNL     1      44.899   0.875  34.084  1.00  0.00     0.338 C 
HETATM    8  O2  UNL     1      44.140   1.642  34.744  1.00  0.00    -0.246 OA
HETATM    9  N5  UNL     1      46.136   0.503  34.685  1.00  0.00    -0.255 N 
ATOM     10  H5  UNL     1      46.764  -0.114  34.171  1.00  0.00     0.187 HD
ENDROOT
BRANCH   1  11
HETATM   11  C2  UNL     1      41.881  -1.387  30.973  1.00  0.00     0.177 C 
BRANCH  11  12
HETATM   12  C1  UNL     1      40.548  -0.788  31.111  1.00  0.00     0.254 C 
HETATM   13  N1  UNL     1      39.613  -1.459  31.969  1.00  0.00    -0.060 NA
HETATM   14  O1  UNL     1      40.145   0.245  30.559  1.00  0.00    -0.275 OA
ENDBRANCH  11  12
BRANCH  11  15
HETATM   15  C10 UNL     1      42.110  -2.138  29.691  1.00  0.00     0.018 C 
HETATM   16  C11 UNL     1      41.715  -3.582  29.761  1.00  0.00     0.007 C 
HETATM   17  C12 UNL     1      42.654  -4.452  28.910  1.00  0.00     0.002 C 
HETATM   18  C13 UNL     1      42.929  -3.666  27.647  1.00  0.00     0.016 C 
HETATM   19  C14 UNL     1      43.936  -2.585  28.023  1.00  0.00     0.058 C 
HETATM   20 BR1  UNL     1      44.106  -1.246  26.661  1.00  0.00    -0.091 Br
HETATM   21  C15 UNL     1      43.598  -1.992  29.362  1.00  0.00     0.022 C 
ENDBRANCH  11  15
ENDBRANCH   1  11
BRANCH   9  22
HETATM   22  N6  UNL     1      46.522   0.951  35.948  1.00  0.00    -0.132 NA
BRANCH  22  23
HETATM   23  C5  UNL     1      47.418  -0.010  36.566  1.00  0.00     0.099 C 
HETATM   24  C6  UNL     1      48.634  -0.269  35.710  1.00  0.00     0.023 C 
HETATM   25  C7  UNL     1      49.602  -0.907  36.682  1.00  0.00     0.002 C 
HETATM   26  C8  UNL     1      49.182  -0.451  38.055  1.00  0.00     0.002 C 
HETATM   27  C9  UNL     1      48.027   0.508  37.849  1.00  0.00     0.023 C 
ENDBRANCH  22  23
ENDBRANCH   9  22
TORSDOF 5
ENDMDL
MODEL 2
REMARK VINA RESULT: -7.068092471      5.548      7.397
REMARK  5 active torsions:
REMARK  status: ('A' for Active; 'I' for Inactive)
REMARK    1  A    between atoms: C1_2  and  C2_4 
REMARK    2  A    between atoms: C2_4  and  N2_5 
REMARK    3  A    between atoms: C2_4  and  C10_21 
REMARK       I    between atoms: N2_5  and  C3_7 
REMARK       I    between atoms: N4_9  and  C4_11 
REMARK       I    between atoms: C4_11  and  N5_13 
REMARK    4  A    between atoms: N5_13  and  N6_15 
REMARK    5  A    between atoms: N6_15  and  C5_16 
ROOT
HETATM    1  N2  UNL     1      38.543  -0.293  31.263  1.00  0.00    -0.351 N 
ATOM      2  H2  UNL     1      38.198   0.442  30.646  1.00  0.00     0.163 HD
HETATM    3  C3  UNL     1      39.933  -0.578  31.245  1.00  0.00     0.192 C 
HETATM    4  N3  UNL     1      40.565  -1.243  32.326  1.00  0.00    -0.063 NA
HETATM    5  N4  UNL     1      40.680  -0.247  30.246  1.00  0.00    -0.282 N 
ATOM      6  H4  UNL     1      40.241   0.231  29.458  1.00  0.00     0.173 HD
HETATM    7  C4  UNL     1      42.059  -0.504  30.175  1.00  0.00     0.338 C 
HETATM    8  O2  UNL     1      42.790  -0.214  31.166  1.00  0.00    -0.246 OA
HETATM    9  N5  UNL     1      42.696  -1.081  29.039  1.00  0.00    -0.255 N 
ATOM     10  H5  UNL     1      42.126  -1.323  28.229  1.00  0.00     0.187 HD
ENDROOT
BRANCH   1  11
HETATM   11  C2  UNL     1      37.590  -0.977  32.100  1.00  0.00     0.177 C 
BRANCH  11  12
HETATM   12  C1  UNL     1      36.889  -0.094  33.040  1.00  0.00     0.254 C 
HETATM   13  N1  UNL     1      35.835   0.725  32.512  1.00  0.00    -0.060 NA
HETATM   14  O1  UNL     1      37.116   0.017  34.252  1.00  0.00    -0.275 OA
ENDBRANCH  11  12
BRANCH  11  15
HETATM   15  C10 UNL     1      36.699  -1.886  31.298  1.00  0.00     0.018 C 
HETATM   16  C11 UNL     1      36.712  -3.309  31.768  1.00  0.00     0.007 C 
HETATM   17  C12 UNL     1      36.568  -4.281  30.588  1.00  0.00     0.002 C 
HETATM   18  C13 UNL     1      35.552  -3.663  29.653  1.00  0.00     0.016 C 
HETATM   19  C14 UNL     1      36.273  -2.544  28.910  1.00  0.00     0.058 C 
HETATM   20 BR1  UNL     1      35.059  -1.391  27.978  1.00  0.00    -0.091 Br
HETATM   21  C15 UNL     1      37.172  -1.785  29.845  1.00  0.00     0.022 C 
ENDBRANCH  11  15
ENDBRANCH   1  11
BRANCH   9  22
HETATM   22  N6  UNL     1      44.068  -1.327  28.991  1.00  0.00    -0.132 NA
BRANCH  22  23
HETATM   23  C5  UNL     1      44.407  -2.028  27.765  1.00  0.00     0.099 C 
HETATM   24  C6  UNL     1      43.553  -3.258  27.572  1.00  0.00     0.023 C 
HETATM   25  C7  UNL     1      43.738  -3.569  26.103  1.00  0.00     0.002 C 
HETATM   26  C8  UNL     1      44.135  -2.274  25.445  1.00  0.00     0.002 C 
HETATM   27  C9  UNL     1      44.095  -1.216  26.529  1.00  0.00     0.023 C 
ENDBRANCH  22  23
ENDBRANCH   9  22
TORSDOF 5
ENDMDL
MODEL 3
REMARK VINA RESULT: -6.865694980      1.377      1.705
REMARK  5 active torsions:
REMARK  status: ('A' for Active; 'I' for Inactive)
REMARK    1  A    between atoms: C1_2  and  C2_4 
REMARK    2  A    between atoms: C2_4  and  N2_5 
REMARK    3  A    between atoms: C2_4  and  C10_21 
REMARK       I    between atoms: N2_5  and  C3_7 
REMARK       I    between atoms: N4_9  and  C4_11 
REMARK       I    between atoms: C4_11  and  N5_13 
REMARK    4  A    between atoms: N5_13  and  N6_15 
REMARK    5  A    between atoms: N6_15  and  C5_16 
ROOT
HETATM    1  N2  UNL     1      43.357  -0.334  31.842  1.00  0.00    -0.351 N 
ATOM      2  H2  UNL     1      43.760   0.242  31.103  1.00  0.00     0.163 HD
HETATM    3  C3  UNL     1      43.757  -0.077  33.179  1.00  0.00     0.192 C 
HETATM    4  N3  UNL     1      42.970  -0.500  34.279  1.00  0.00    -0.063 NA
HETATM    5  N4  UNL     1      44.852   0.550  33.450  1.00  0.00    -0.282 N 
ATOM      6  H4  UNL     1      45.432   0.860  32.670  1.00  0.00     0.173 HD
HETATM    7  C4  UNL     1      45.295   0.831  34.753  1.00  0.00     0.338 C 
HETATM    8  O2  UNL     1      44.484   1.333  35.583  1.00  0.00    -0.246 OA
HETATM    9  N5  UNL     1      46.623   0.582  35.205  1.00  0.00    -0.255 N 
ATOM     10  H5  UNL     1      47.294   0.177  34.552  1.00  0.00     0.187 HD
ENDROOT
BRANCH   1  11
HETATM   11  C2  UNL     1      42.417  -1.358  31.462  1.00  0.00     0.177 C 
BRANCH  11  12
HETATM   12  C1  UNL     1      41.060  -0.855  31.220  1.00  0.00     0.254 C 
HETATM   13  N1  UNL     1      40.024  -1.306  32.107  1.00  0.00    -0.060 NA
HETATM   14  O1  UNL     1      40.713  -0.076  30.322  1.00  0.00    -0.275 OA
ENDBRANCH  11  12
BRANCH  11  15
HETATM   15  C10 UNL     1      42.968  -2.244  30.379  1.00  0.00     0.018 C 
HETATM   16  C11 UNL     1      43.608  -1.490  29.253  1.00  0.00     0.007 C 
HETATM   17  C12 UNL     1      43.380  -2.203  27.912  1.00  0.00     0.002 C 
HETATM   18  C13 UNL     1      43.529  -3.683  28.189  1.00  0.00     0.016 C 
HETATM   19  C14 UNL     1      42.242  -4.124  28.878  1.00  0.00     0.058 C 
HETATM   20 BR1  UNL     1      42.400  -5.866  29.662  1.00  0.00    -0.091 Br
HETATM   21  C15 UNL     1      41.796  -3.092  29.875  1.00  0.00     0.022 C 
ENDBRANCH  11  15
ENDBRANCH   1  11
BRANCH   9  22
HETATM   22  N6  UNL     1      47.041   0.869  36.504  1.00  0.00    -0.132 NA
BRANCH  22  23
HETATM   23  C5  UNL     1      48.013  -0.115  36.945  1.00  0.00     0.099 C 
HETATM   24  C6  UNL     1      49.139  -0.270  35.951  1.00  0.00     0.023 C 
HETATM   25  C7  UNL     1      50.213  -0.959  36.764  1.00  0.00     0.002 C 
HETATM   26  C8  UNL     1      49.928  -0.629  38.205  1.00  0.00     0.002 C 
HETATM   27  C9  UNL     1      48.741   0.312  38.199  1.00  0.00     0.023 C 
ENDBRANCH  22  23
ENDBRANCH   9  22
TORSDOF 5
ENDMDL
MODEL 4
REMARK VINA RESULT: -6.810685853      3.356      8.568
REMARK  5 active torsions:
REMARK  status: ('A' for Active; 'I' for Inactive)
REMARK    1  A    between atoms: C1_2  and  C2_4 
REMARK    2  A    between atoms: C2_4  and  N2_5 
REMARK    3  A    between atoms: C2_4  and  C10_21 
REMARK       I    between atoms: N2_5  and  C3_7 
REMARK       I    between atoms: N4_9  and  C4_11 
REMARK       I    between atoms: C4_11  and  N5_13 
REMARK    4  A    between atoms: N5_13  and  N6_15 
REMARK    5  A    between atoms: N6_15  and  C5_16 
ROOT
HETATM    1  N2  UNL     1      44.633  -0.010  35.338  1.00  0.00    -0.351 N 
ATOM      2  H2  UNL     1      44.555  -0.935  35.760  1.00  0.00     0.163 HD
HETATM    3  C3  UNL     1      44.030   0.196  34.070  1.00  0.00     0.192 C 
HETATM    4  N3  UNL     1      43.709   1.496  33.607  1.00  0.00    -0.063 NA
HETATM    5  N4  UNL     1      43.750  -0.789  33.284  1.00  0.00    -0.282 N 
ATOM      6  H4  UNL     1      43.975  -1.733  33.601  1.00  0.00     0.173 HD
HETATM    7  C4  UNL     1      43.154  -0.643  32.021  1.00  0.00     0.338 C 
HETATM    8  O2  UNL     1      42.132   0.094  31.905  1.00  0.00    -0.246 OA
HETATM    9  N5  UNL     1      43.636  -1.283  30.843  1.00  0.00    -0.255 N 
ATOM     10  H5  UNL     1      44.459  -1.882  30.914  1.00  0.00     0.187 HD
ENDROOT
BRANCH   1  11
HETATM   11  C2  UNL     1      45.348   1.007  36.066  1.00  0.00     0.177 C 
BRANCH  11  12
HETATM   12  C1  UNL     1      44.518   1.739  37.030  1.00  0.00     0.254 C 
HETATM   13  N1  UNL     1      45.121   2.853  37.704  1.00  0.00    -0.060 NA
HETATM   14  O1  UNL     1      43.341   1.490  37.325  1.00  0.00    -0.275 OA
ENDBRANCH  11  12
BRANCH  11  15
HETATM   15  C10 UNL     1      46.648   0.486  36.615  1.00  0.00     0.018 C 
HETATM   16  C11 UNL     1      47.617   0.054  35.557  1.00  0.00     0.007 C 
HETATM   17  C12 UNL     1      48.443  -1.154  36.025  1.00  0.00     0.002 C 
HETATM   18  C13 UNL     1      48.769  -0.905  37.481  1.00  0.00     0.016 C 
HETATM   19  C14 UNL     1      47.498  -1.208  38.266  1.00  0.00     0.058 C 
HETATM   20 BR1  UNL     1      47.591  -0.571  40.072  1.00  0.00    -0.091 Br
HETATM   21  C15 UNL     1      46.291  -0.681  37.541  1.00  0.00     0.022 C 
ENDBRANCH  11  15
ENDBRANCH   1  11
BRANCH   9  22
HETATM   22  N6  UNL     1      43.027  -1.124  29.599  1.00  0.00    -0.132 NA
BRANCH  22  23
HETATM   23  C5  UNL     1      43.774  -1.842  28.582  1.00  0.00     0.099 C 
HETATM   24  C6  UNL     1      42.970  -2.980  28.000  1.00  0.00     0.023 C 
HETATM   25  C7  UNL     1      43.709  -3.293  26.717  1.00  0.00     0.002 C 
HETATM   26  C8  UNL     1      44.450  -2.037  26.340  1.00  0.00     0.002 C 
HETATM   27  C9  UNL     1      44.064  -0.991  27.367  1.00  0.00     0.023 C 
ENDBRANCH  22  23
ENDBRANCH   9  22
TORSDOF 5
ENDMDL
MODEL 5
REMARK VINA RESULT: -6.789961529      5.216      7.556
REMARK  5 active torsions:
REMARK  status: ('A' for Active; 'I' for Inactive)
REMARK    1  A    between atoms: C1_2  and  C2_4 
REMARK    2  A    between atoms: C2_4  and  N2_5 
REMARK    3  A    between atoms: C2_4  and  C10_21 
REMARK       I    between atoms: N2_5  and  C3_7 
REMARK       I    between atoms: N4_9  and  C4_11 
REMARK       I    between atoms: C4_11  and  N5_13 
REMARK    4  A    between atoms: N5_13  and  N6_15 
REMARK    5  A    between atoms: N6_15  and  C5_16 
ROOT
HETATM    1  N2  UNL     1      39.564  -0.790  32.492  1.00  0.00    -0.351 N 
ATOM      2  H2  UNL     1      39.706   0.141  32.884  1.00  0.00     0.163 HD
HETATM    3  C3  UNL     1      40.634  -1.378  31.770  1.00  0.00     0.192 C 
HETATM    4  N3  UNL     1      40.705  -2.779  31.566  1.00  0.00    -0.063 NA
HETATM    5  N4  UNL     1      41.585  -0.666  31.267  1.00  0.00    -0.282 N 
ATOM      6  H4  UNL     1      41.550   0.345  31.403  1.00  0.00     0.173 HD
HETATM    7  C4  UNL     1      42.667  -1.196  30.544  1.00  0.00     0.338 C 
HETATM    8  O2  UNL     1      43.293  -2.189  31.015  1.00  0.00    -0.246 OA
HETATM    9  N5  UNL     1      43.110  -0.676  29.294  1.00  0.00    -0.255 N 
ATOM     10  H5  UNL     1      42.619   0.125  28.896  1.00  0.00     0.187 HD
ENDROOT
BRANCH   1  11
HETATM   11  C2  UNL     1      38.289  -1.425  32.707  1.00  0.00     0.177 C 
BRANCH  11  12
HETATM   12  C1  UNL     1      37.655  -1.064  33.981  1.00  0.00     0.254 C 
HETATM   13  N1  UNL     1      38.134   0.119  34.640  1.00  0.00    -0.060 NA
HETATM   14  O1  UNL     1      36.744  -1.679  34.550  1.00  0.00    -0.275 OA
ENDBRANCH  11  12
BRANCH  11  15
HETATM   15  C10 UNL     1      37.399  -1.308  31.500  1.00  0.00     0.018 C 
HETATM   16  C11 UNL     1      36.363  -0.232  31.619  1.00  0.00     0.007 C 
HETATM   17  C12 UNL     1      35.059  -0.642  30.916  1.00  0.00     0.002 C 
HETATM   18  C13 UNL     1      35.469  -1.346  29.641  1.00  0.00     0.016 C 
HETATM   19  C14 UNL     1      35.931  -2.740  30.047  1.00  0.00     0.058 C 
HETATM   20 BR1  UNL     1      36.859  -3.639  28.630  1.00  0.00    -0.091 Br
HETATM   21  C15 UNL     1      36.745  -2.680  31.309  1.00  0.00     0.022 C 
ENDBRANCH  11  15
ENDBRANCH   1  11
BRANCH   9  22
HETATM   22  N6  UNL     1      44.187  -1.218  28.594  1.00  0.00    -0.132 NA
BRANCH  22  23
HETATM   23  C5  UNL     1      43.715  -1.910  27.408  1.00  0.00     0.099 C 
HETATM   24  C6  UNL     1      44.540  -1.560  26.193  1.00  0.00     0.023 C 
HETATM   25  C7  UNL     1      44.196  -2.668  25.221  1.00  0.00     0.002 C 
HETATM   26  C8  UNL     1      43.733  -3.832  26.057  1.00  0.00     0.002 C 
HETATM   27  C9  UNL     1      43.893  -3.408  27.503  1.00  0.00     0.023 C 
ENDBRANCH  22  23
ENDBRANCH   9  22
TORSDOF 5
ENDMDL
