MODEL 1
REMARK VINA RESULT: -6.869296773      0.000      0.000
REMARK  4 active torsions:
REMARK  status: ('A' for Active; 'I' for Inactive)
REMARK    1  A    between atoms: C2_2  and  N1_4 
REMARK       I    between atoms: N1_4  and  C4_6 
REMARK       I    between atoms: C4_6  and  N3_13 
REMARK    2  A    between atoms: N2_7  and  C5_9 
REMARK    3  A    between atoms: C5_9  and  C6_10 
REMARK    4  A    between atoms: N3_13  and  C9_15 
ROOT
HETATM    1  C9  UNL     1      16.648  11.623  21.465  1.00  0.00     0.143 A 
HETATM    2  N4  UNL     1      17.587  12.562  21.589  1.00  0.00    -0.284 N 
ATOM      3  H4  UNL     1      18.407  12.495  22.191  1.00  0.00     0.188 HD
HETATM    4  N5  UNL     1      17.298  13.579  20.824  1.00  0.00    -0.302 N 
ATOM      5  H5  UNL     1      17.867  14.422  20.746  1.00  0.00     0.186 HD
HETATM    6  C10 UNL     1      16.135  13.365  20.142  1.00  0.00     0.044 A 
HETATM    7  C11 UNL     1      15.731  12.119  20.557  1.00  0.00     0.013 A 
HETATM    8  C12 UNL     1      14.452  11.550  19.998  1.00  0.00     0.053 C 
HETATM    9  C13 UNL     1      13.498  12.754  19.967  1.00  0.00    -0.043 C 
HETATM   10  C14 UNL     1      13.311  13.298  21.346  1.00  0.00     0.015 C 
HETATM   11  C15 UNL     1      12.125  12.295  19.476  1.00  0.00     0.015 C 
HETATM   12  C16 UNL     1      14.009  13.755  18.973  1.00  0.00     0.024 C 
HETATM   13  C17 UNL     1      15.407  14.208  19.167  1.00  0.00    -0.002 C 
HETATM   14  C18 UNL     1      15.528  15.664  19.540  1.00  0.00     0.021 C 
HETATM   15  C19 UNL     1      16.180  14.063  17.848  1.00  0.00     0.021 C 
ENDROOT
BRANCH   1  16
HETATM   16  N3  UNL     1      16.520  10.467  22.021  1.00  0.00    -0.175 N 
HETATM   17  C4  UNL     1      15.458  10.097  22.865  1.00  0.00     0.675 C 
HETATM   18  N1  UNL     1      14.922  10.911  23.888  1.00  0.00    -0.222 N 
HETATM   19  N2  UNL     1      14.944   8.907  22.672  1.00  0.00    -0.226 N 
ATOM     20  H1  UNL     1      13.918  11.093  23.876  1.00  0.00     0.178 HD
ATOM     21  H2  UNL     1      15.318   8.306  21.939  1.00  0.00     0.177 HD
ATOM     22  H3  UNL     1      17.242   9.770  21.835  1.00  0.00     0.186 HD
BRANCH  18  23
HETATM   23  C2  UNL     1      15.700  11.499  24.944  1.00  0.00     0.091 C 
HETATM   24  C1  UNL     1      15.046  11.128  26.270  1.00  0.00     0.032 C 
HETATM   25  C3  UNL     1      15.651  13.003  24.843  1.00  0.00     0.032 C 
ENDBRANCH  18  23
BRANCH  19  26
HETATM   26  C5  UNL     1      13.839   8.437  23.500  1.00  0.00     0.142 C 
BRANCH  26  27
HETATM   27  C6  UNL     1      12.641   8.244  22.604  1.00  0.00     0.004 A 
HETATM   28  C7  UNL     1      12.787   8.442  21.145  1.00  0.00     0.007 A 
HETATM   29  C8  UNL     1      11.978   9.395  21.953  1.00  0.00     0.007 A 
ENDBRANCH  26  27
ENDBRANCH  19  26
ENDBRANCH   1  16
TORSDOF 4
ENDMDL
MODEL 2
REMARK VINA RESULT: -6.381751410      7.237     10.942
REMARK  4 active torsions:
REMARK  status: ('A' for Active; 'I' for Inactive)
REMARK    1  A    between atoms: C2_2  and  N1_4 
REMARK       I    between atoms: N1_4  and  C4_6 
REMARK       I    between atoms: C4_6  and  N3_13 
REMARK    2  A    between atoms: N2_7  and  C5_9 
REMARK    3  A    between atoms: C5_9  and  C6_10 
REMARK    4  A    between atoms: N3_13  and  C9_15 
ROOT
HETATM    1  C9  UNL     1       6.910   6.332  23.377  1.00  0.00     0.143 A 
HETATM    2  N4  UNL     1       6.369   7.511  23.068  1.00  0.00    -0.284 N 
ATOM      3  H4  UNL     1       6.473   7.987  22.172  1.00  0.00     0.188 HD
HETATM    4  N5  UNL     1       5.687   7.964  24.084  1.00  0.00    -0.302 N 
ATOM      5  H5  UNL     1       5.180   8.849  24.091  1.00  0.00     0.186 HD
HETATM    6  C10 UNL     1       5.740   7.096  25.137  1.00  0.00     0.044 A 
HETATM    7  C11 UNL     1       6.520   6.063  24.676  1.00  0.00     0.013 A 
HETATM    8  C12 UNL     1       6.799   4.901  25.596  1.00  0.00     0.053 C 
HETATM    9  C13 UNL     1       7.039   5.565  26.961  1.00  0.00    -0.043 C 
HETATM   10  C14 UNL     1       8.198   6.505  26.880  1.00  0.00     0.015 C 
HETATM   11  C15 UNL     1       7.404   4.491  27.985  1.00  0.00     0.015 C 
HETATM   12  C16 UNL     1       5.761   6.200  27.425  1.00  0.00     0.024 C 
HETATM   13  C17 UNL     1       5.135   7.160  26.486  1.00  0.00    -0.002 C 
HETATM   14  C18 UNL     1       5.124   8.583  26.988  1.00  0.00     0.021 C 
HETATM   15  C19 UNL     1       3.657   6.792  26.287  1.00  0.00     0.021 C 
ENDROOT
BRANCH   1  16
HETATM   16  N3  UNL     1       7.652   5.530  22.694  1.00  0.00    -0.175 N 
HETATM   17  C4  UNL     1       8.894   5.027  23.121  1.00  0.00     0.675 C 
HETATM   18  N1  UNL     1       9.898   5.795  23.755  1.00  0.00    -0.222 N 
HETATM   19  N2  UNL     1       9.118   3.754  22.907  1.00  0.00    -0.226 N 
ATOM     20  H1  UNL     1      10.252   5.468  24.653  1.00  0.00     0.178 HD
ATOM     21  H2  UNL     1       8.405   3.185  22.451  1.00  0.00     0.177 HD
ATOM     22  H3  UNL     1       7.314   5.238  21.777  1.00  0.00     0.186 HD
BRANCH  18  23
HETATM   23  C2  UNL     1      10.451   7.007  23.214  1.00  0.00     0.091 C 
HETATM   24  C1  UNL     1      11.970   6.898  23.277  1.00  0.00     0.032 C 
HETATM   25  C3  UNL     1      10.064   8.180  24.079  1.00  0.00     0.032 C 
ENDBRANCH  18  23
BRANCH  19  26
HETATM   26  C5  UNL     1      10.377   3.146  23.315  1.00  0.00     0.142 C 
BRANCH  26  27
HETATM   27  C6  UNL     1      10.080   1.747  23.797  1.00  0.00     0.004 A 
HETATM   28  C7  UNL     1       8.950   1.001  23.202  1.00  0.00     0.007 A 
HETATM   29  C8  UNL     1       8.884   1.459  24.617  1.00  0.00     0.007 A 
ENDBRANCH  26  27
ENDBRANCH  19  26
ENDBRANCH   1  16
TORSDOF 4
ENDMDL
MODEL 3
REMARK VINA RESULT: -6.283360182      2.473      6.217
REMARK  4 active torsions:
REMARK  status: ('A' for Active; 'I' for Inactive)
REMARK    1  A    between atoms: C2_2  and  N1_4 
REMARK       I    between atoms: N1_4  and  C4_6 
REMARK       I    between atoms: C4_6  and  N3_13 
REMARK    2  A    between atoms: N2_7  and  C5_9 
REMARK    3  A    between atoms: C5_9  and  C6_10 
REMARK    4  A    between atoms: N3_13  and  C9_15 
ROOT
HETATM    1  C9  UNL     1      12.366  11.554  19.825  1.00  0.00     0.143 A 
HETATM    2  N4  UNL     1      11.093  11.330  20.154  1.00  0.00    -0.284 N 
ATOM      3  H4  UNL     1      10.286  11.758  19.700  1.00  0.00     0.188 HD
HETATM    4  N5  UNL     1      11.035  10.480  21.143  1.00  0.00    -0.302 N 
ATOM      5  H5  UNL     1      10.170  10.150  21.571  1.00  0.00     0.186 HD
HETATM    6  C10 UNL     1      12.285  10.090  21.528  1.00  0.00     0.044 A 
HETATM    7  C11 UNL     1      13.123  10.779  20.684  1.00  0.00     0.013 A 
HETATM    8  C12 UNL     1      14.612  10.590  20.829  1.00  0.00     0.053 C 
HETATM    9  C13 UNL     1      14.829  10.551  22.349  1.00  0.00    -0.043 C 
HETATM   10  C14 UNL     1      14.366  11.830  22.968  1.00  0.00     0.015 C 
HETATM   11  C15 UNL     1      16.325  10.429  22.640  1.00  0.00     0.015 C 
HETATM   12  C16 UNL     1      14.171   9.323  22.905  1.00  0.00     0.024 C 
HETATM   13  C17 UNL     1      12.734   9.155  22.584  1.00  0.00    -0.002 C 
HETATM   14  C18 UNL     1      11.827   9.249  23.786  1.00  0.00     0.021 C 
HETATM   15  C19 UNL     1      12.498   7.750  22.009  1.00  0.00     0.021 C 
ENDROOT
BRANCH   1  16
HETATM   16  N3  UNL     1      12.892  12.308  18.923  1.00  0.00    -0.175 N 
HETATM   17  C4  UNL     1      13.712  13.420  19.186  1.00  0.00     0.675 C 
HETATM   18  N1  UNL     1      13.460  14.388  20.184  1.00  0.00    -0.222 N 
HETATM   19  N2  UNL     1      14.782  13.549  18.440  1.00  0.00    -0.226 N 
ATOM     20  H1  UNL     1      14.195  14.573  20.865  1.00  0.00     0.178 HD
ATOM     21  H2  UNL     1      14.981  12.860  17.715  1.00  0.00     0.177 HD
ATOM     22  H3  UNL     1      12.700  12.083  17.946  1.00  0.00     0.186 HD
BRANCH  18  23
HETATM   23  C2  UNL     1      12.233  15.128  20.299  1.00  0.00     0.091 C 
HETATM   24  C1  UNL     1      12.588  16.599  20.491  1.00  0.00     0.032 C 
HETATM   25  C3  UNL     1      11.487  14.698  21.537  1.00  0.00     0.032 C 
ENDBRANCH  18  23
BRANCH  19  26
HETATM   26  C5  UNL     1      15.691  14.671  18.640  1.00  0.00     0.142 C 
BRANCH  26  27
HETATM   27  C6  UNL     1      16.982  14.125  19.199  1.00  0.00     0.004 A 
HETATM   28  C7  UNL     1      16.947  13.291  20.421  1.00  0.00     0.007 A 
HETATM   29  C8  UNL     1      17.553  14.651  20.458  1.00  0.00     0.007 A 
ENDBRANCH  26  27
ENDBRANCH  19  26
ENDBRANCH   1  16
TORSDOF 4
ENDMDL
MODEL 4
REMARK VINA RESULT: -6.275371588      6.345      9.039
REMARK  4 active torsions:
REMARK  status: ('A' for Active; 'I' for Inactive)
REMARK    1  A    between atoms: C2_2  and  N1_4 
REMARK       I    between atoms: N1_4  and  C4_6 
REMARK       I    between atoms: C4_6  and  N3_13 
REMARK    2  A    between atoms: N2_7  and  C5_9 
REMARK    3  A    between atoms: C5_9  and  C6_10 
REMARK    4  A    between atoms: N3_13  and  C9_15 
ROOT
HETATM    1  C9  UNL     1       8.856   6.207  23.091  1.00  0.00     0.143 A 
HETATM    2  N4  UNL     1       7.806   6.376  22.286  1.00  0.00    -0.284 N 
ATOM      3  H4  UNL     1       7.287   5.623  21.834  1.00  0.00     0.188 HD
HETATM    4  N5  UNL     1       7.543   7.648  22.164  1.00  0.00    -0.302 N 
ATOM      5  H5  UNL     1       6.784   8.030  21.599  1.00  0.00     0.186 HD
HETATM    6  C10 UNL     1       8.418   8.402  22.892  1.00  0.00     0.044 A 
HETATM    7  C11 UNL     1       9.247   7.475  23.477  1.00  0.00     0.013 A 
HETATM    8  C12 UNL     1      10.361   7.962  24.370  1.00  0.00     0.053 C 
HETATM    9  C13 UNL     1      10.900   9.201  23.639  1.00  0.00    -0.043 C 
HETATM   10  C14 UNL     1      11.398   8.822  22.282  1.00  0.00     0.015 C 
HETATM   11  C15 UNL     1      12.094   9.761  24.413  1.00  0.00     0.015 C 
HETATM   12  C16 UNL     1       9.841  10.263  23.633  1.00  0.00     0.024 C 
HETATM   13  C17 UNL     1       8.526   9.866  23.076  1.00  0.00    -0.002 C 
HETATM   14  C18 UNL     1       8.166  10.582  21.798  1.00  0.00     0.021 C 
HETATM   15  C19 UNL     1       7.416  10.235  24.071  1.00  0.00     0.021 C 
ENDROOT
BRANCH   1  16
HETATM   16  N3  UNL     1       9.459   5.141  23.491  1.00  0.00    -0.175 N 
HETATM   17  C4  UNL     1       8.934   4.222  24.416  1.00  0.00     0.675 C 
HETATM   18  N1  UNL     1       8.264   4.574  25.610  1.00  0.00    -0.222 N 
HETATM   19  N2  UNL     1       9.089   2.951  24.134  1.00  0.00    -0.226 N 
ATOM     20  H1  UNL     1       7.333   4.188  25.766  1.00  0.00     0.178 HD
ATOM     21  H2  UNL     1       9.570   2.678  23.277  1.00  0.00     0.177 HD
ATOM     22  H3  UNL     1      10.386   4.950  23.109  1.00  0.00     0.186 HD
BRANCH  18  23
HETATM   23  C2  UNL     1       8.811   5.443  26.617  1.00  0.00     0.091 C 
HETATM   24  C1  UNL     1       8.808   4.685  27.940  1.00  0.00     0.032 C 
HETATM   25  C3  UNL     1       7.917   6.642  26.803  1.00  0.00     0.032 C 
ENDBRANCH  18  23
BRANCH  19  26
HETATM   26  C5  UNL     1       8.577   1.926  25.035  1.00  0.00     0.142 C 
BRANCH  26  27
HETATM   27  C6  UNL     1       9.194   0.609  24.634  1.00  0.00     0.004 A 
HETATM   28  C7  UNL     1       8.819  -0.003  23.340  1.00  0.00     0.007 A 
HETATM   29  C8  UNL     1       8.396  -0.636  24.620  1.00  0.00     0.007 A 
ENDBRANCH  26  27
ENDBRANCH  19  26
ENDBRANCH   1  16
TORSDOF 4
ENDMDL
MODEL 5
REMARK VINA RESULT: -6.149810739      5.544      8.170
REMARK  4 active torsions:
REMARK  status: ('A' for Active; 'I' for Inactive)
REMARK    1  A    between atoms: C2_2  and  N1_4 
REMARK       I    between atoms: N1_4  and  C4_6 
REMARK       I    between atoms: C4_6  and  N3_13 
REMARK    2  A    between atoms: N2_7  and  C5_9 
REMARK    3  A    between atoms: C5_9  and  C6_10 
REMARK    4  A    between atoms: N3_13  and  C9_15 
ROOT
HETATM    1  C9  UNL     1       9.927   6.713  23.405  1.00  0.00     0.143 A 
HETATM    2  N4  UNL     1       8.759   7.205  22.989  1.00  0.00    -0.284 N 
ATOM      3  H4  UNL     1       7.895   6.670  22.904  1.00  0.00     0.188 HD
HETATM    4  N5  UNL     1       8.889   8.472  22.708  1.00  0.00    -0.302 N 
ATOM      5  H5  UNL     1       8.134   9.069  22.370  1.00  0.00     0.186 HD
HETATM    6  C10 UNL     1      10.169   8.895  22.925  1.00  0.00     0.044 A 
HETATM    7  C11 UNL     1      10.820   7.768  23.369  1.00  0.00     0.013 A 
HETATM    8  C12 UNL     1      12.285   7.866  23.710  1.00  0.00     0.053 C 
HETATM    9  C13 UNL     1      12.859   8.763  22.604  1.00  0.00    -0.043 C 
HETATM   10  C14 UNL     1      12.639   8.136  21.265  1.00  0.00     0.015 C 
HETATM   11  C15 UNL     1      14.371   8.892  22.794  1.00  0.00     0.015 C 
HETATM   12  C16 UNL     1      12.280  10.140  22.742  1.00  0.00     0.024 C 
HETATM   13  C17 UNL     1      10.800  10.223  22.759  1.00  0.00    -0.002 C 
HETATM   14  C18 UNL     1      10.217  10.933  21.562  1.00  0.00     0.021 C 
HETATM   15  C19 UNL     1      10.347  11.044  23.975  1.00  0.00     0.021 C 
ENDROOT
BRANCH   1  16
HETATM   16  N3  UNL     1      10.266   5.529  23.784  1.00  0.00    -0.175 N 
HETATM   17  C4  UNL     1       9.407   4.612  24.415  1.00  0.00     0.675 C 
HETATM   18  N1  UNL     1       8.499   4.939  25.448  1.00  0.00    -0.222 N 
HETATM   19  N2  UNL     1       9.467   3.370  24.000  1.00  0.00    -0.226 N 
ATOM     20  H1  UNL     1       7.519   4.691  25.318  1.00  0.00     0.178 HD
ATOM     21  H2  UNL     1      10.116   3.116  23.255  1.00  0.00     0.177 HD
ATOM     22  H3  UNL     1      11.228   5.235  23.614  1.00  0.00     0.186 HD
BRANCH  18  23
HETATM   23  C2  UNL     1       8.871   5.598  26.670  1.00  0.00     0.091 C 
HETATM   24  C1  UNL     1       8.474   4.692  27.831  1.00  0.00     0.032 C 
HETATM   25  C3  UNL     1       8.082   6.874  26.827  1.00  0.00     0.032 C 
ENDBRANCH  18  23
BRANCH  19  26
HETATM   26  C5  UNL     1       8.613   2.350  24.595  1.00  0.00     0.142 C 
BRANCH  26  27
HETATM   27  C6  UNL     1       9.295   1.015  24.418  1.00  0.00     0.004 A 
HETATM   28  C7  UNL     1       8.923   0.159  23.270  1.00  0.00     0.007 A 
HETATM   29  C8  UNL     1       8.570  -0.251  24.657  1.00  0.00     0.007 A 
ENDBRANCH  26  27
ENDBRANCH  19  26
ENDBRANCH   1  16
TORSDOF 4
ENDMDL
