MODEL 1
REMARK VINA RESULT: -8.009144146      0.000      0.000
REMARK  3 active torsions:
REMARK  status: ('A' for Active; 'I' for Inactive)
REMARK    1  A    between atoms: C2_2  and  N1_3 
REMARK       I    between atoms: N1_3  and  C3_5 
REMARK       I    between atoms: C3_5  and  N2_7 
REMARK       I    between atoms: C4_9  and  N3_10 
REMARK       I    between atoms: C4_9  and  N4_19 
REMARK    2  A    between atoms: N3_10  and  C5_12 
REMARK    3  A    between atoms: C5_12  and  C6_13 
REMARK       I    between atoms: N4_19  and  C12_21 
ROOT
HETATM    1  N1  UNL     1       6.952   8.551  24.106  1.00  0.00    -0.334 N 
ATOM      2  H1  UNL     1       7.330   9.335  24.638  1.00  0.00     0.165 HD
HETATM    3  C3  UNL     1       7.817   7.808  23.228  1.00  0.00     0.335 C 
HETATM    4  O1  UNL     1       7.389   6.839  22.563  1.00  0.00    -0.246 OA
HETATM    5  N2  UNL     1       9.158   8.184  23.123  1.00  0.00    -0.141 N 
ATOM      6  H2  UNL     1       9.398   9.172  23.048  1.00  0.00     0.189 HD
HETATM    7  C4  UNL     1      10.104   7.295  23.118  1.00  0.00     0.685 C 
HETATM    8  N3  UNL     1       9.842   5.912  23.219  1.00  0.00    -0.225 N 
ATOM      9  H3  UNL     1       9.869   5.325  22.385  1.00  0.00     0.177 HD
HETATM   10  N4  UNL     1      11.419   7.854  23.000  1.00  0.00    -0.144 N 
ATOM     11  H4  UNL     1      11.540   8.864  22.932  1.00  0.00     0.188 HD
HETATM   12  C12 UNL     1      12.542   7.006  22.977  1.00  0.00     0.346 C 
HETATM   13  N5  UNL     1      13.846   7.613  22.858  1.00  0.00    -0.039 NA
HETATM   14  O2  UNL     1      12.410   5.771  23.055  1.00  0.00    -0.250 OA
ENDROOT
BRANCH   8  15
HETATM   15  C5  UNL     1       9.537   5.331  24.493  1.00  0.00     0.142 C 
BRANCH  15  16
HETATM   16  C6  UNL     1       9.395   3.851  24.528  1.00  0.00     0.004 C 
HETATM   17  C7  UNL     1       9.763   3.155  23.254  1.00  0.00     0.006 C 
HETATM   18  C8  UNL     1       9.276   1.721  23.222  1.00  0.00     0.000 C 
HETATM   19  C9  UNL     1       9.274   1.194  24.630  1.00  0.00     0.000 C 
HETATM   20  C10 UNL     1       8.297   1.923  25.521  1.00  0.00     0.000 C 
HETATM   21  C11 UNL     1       8.074   3.354  25.054  1.00  0.00     0.006 C 
ENDBRANCH  15  16
ENDBRANCH   8  15
BRANCH   1  22
HETATM   22  C2  UNL     1       5.556   8.203  24.247  1.00  0.00     0.031 C 
HETATM   23  C1  UNL     1       4.781   8.803  23.095  1.00  0.00     0.038 C 
HETATM   24  C13 UNL     1       5.391   6.707  24.178  1.00  0.00     0.031 C 
HETATM   25  C14 UNL     1       4.300   6.157  25.010  1.00  0.00     0.002 C 
HETATM   26  C15 UNL     1       3.149   7.045  25.302  1.00  0.00     0.000 C 
HETATM   27  C16 UNL     1       3.469   8.508  25.392  1.00  0.00     0.002 C 
HETATM   28  C17 UNL     1       4.982   8.632  25.583  1.00  0.00     0.031 C 
ENDBRANCH   1  22
TORSDOF 3
ENDMDL
MODEL 2
REMARK VINA RESULT: -7.879027249      3.774      5.752
REMARK  3 active torsions:
REMARK  status: ('A' for Active; 'I' for Inactive)
REMARK    1  A    between atoms: C2_2  and  N1_3 
REMARK       I    between atoms: N1_3  and  C3_5 
REMARK       I    between atoms: C3_5  and  N2_7 
REMARK       I    between atoms: C4_9  and  N3_10 
REMARK       I    between atoms: C4_9  and  N4_19 
REMARK    2  A    between atoms: N3_10  and  C5_12 
REMARK    3  A    between atoms: C5_12  and  C6_13 
REMARK       I    between atoms: N4_19  and  C12_21 
ROOT
HETATM    1  N1  UNL     1       7.110   3.996  27.850  1.00  0.00    -0.334 N 
ATOM      2  H1  UNL     1       6.310   3.380  27.996  1.00  0.00     0.165 HD
HETATM    3  C3  UNL     1       8.214   3.547  27.042  1.00  0.00     0.335 C 
HETATM    4  O1  UNL     1       9.209   4.276  26.840  1.00  0.00    -0.246 OA
HETATM    5  N2  UNL     1       8.163   2.270  26.479  1.00  0.00    -0.141 N 
ATOM      6  H2  UNL     1       7.837   1.485  27.043  1.00  0.00     0.189 HD
HETATM    7  C4  UNL     1       8.523   2.066  25.249  1.00  0.00     0.685 C 
HETATM    8  N3  UNL     1       8.981   3.107  24.414  1.00  0.00    -0.225 N 
ATOM      9  H3  UNL     1       9.981   3.220  24.240  1.00  0.00     0.177 HD
HETATM   10  N4  UNL     1       8.412   0.698  24.836  1.00  0.00    -0.144 N 
ATOM     11  H4  UNL     1       8.071  -0.007  25.490  1.00  0.00     0.188 HD
HETATM   12  C12 UNL     1       8.773   0.329  23.526  1.00  0.00     0.346 C 
HETATM   13  N5  UNL     1       8.643  -1.059  23.153  1.00  0.00    -0.039 NA
HETATM   14  O2  UNL     1       9.193   1.178  22.719  1.00  0.00    -0.250 OA
ENDROOT
BRANCH   8  15
HETATM   15  C5  UNL     1       8.044   4.007  23.809  1.00  0.00     0.142 C 
BRANCH  15  16
HETATM   16  C6  UNL     1       8.363   5.457  23.906  1.00  0.00     0.004 C 
HETATM   17  C7  UNL     1       7.589   6.333  22.969  1.00  0.00     0.006 C 
HETATM   18  C8  UNL     1       8.187   7.720  22.856  1.00  0.00     0.000 C 
HETATM   19  C9  UNL     1       8.830   8.064  24.171  1.00  0.00     0.000 C 
HETATM   20  C10 UNL     1       9.992   7.159  24.503  1.00  0.00     0.000 C 
HETATM   21  C11 UNL     1       9.832   5.786  23.867  1.00  0.00     0.006 C 
ENDBRANCH  15  16
ENDBRANCH   8  15
BRANCH   1  22
HETATM   22  C2  UNL     1       7.117   5.309  28.458  1.00  0.00     0.031 C 
HETATM   23  C1  UNL     1       7.973   5.269  29.703  1.00  0.00     0.038 C 
HETATM   24  C13 UNL     1       7.732   6.308  27.512  1.00  0.00     0.031 C 
HETATM   25  C14 UNL     1       7.168   7.672  27.587  1.00  0.00     0.002 C 
HETATM   26  C15 UNL     1       6.579   8.098  28.879  1.00  0.00     0.000 C 
HETATM   27  C16 UNL     1       5.955   7.004  29.695  1.00  0.00     0.002 C 
HETATM   28  C17 UNL     1       5.721   5.815  28.761  1.00  0.00     0.031 C 
ENDBRANCH   1  22
TORSDOF 3
ENDMDL
MODEL 3
REMARK VINA RESULT: -7.770238474      3.763      5.735
REMARK  3 active torsions:
REMARK  status: ('A' for Active; 'I' for Inactive)
REMARK    1  A    between atoms: C2_2  and  N1_3 
REMARK       I    between atoms: N1_3  and  C3_5 
REMARK       I    between atoms: C3_5  and  N2_7 
REMARK       I    between atoms: C4_9  and  N3_10 
REMARK       I    between atoms: C4_9  and  N4_19 
REMARK    2  A    between atoms: N3_10  and  C5_12 
REMARK    3  A    between atoms: C5_12  and  C6_13 
REMARK       I    between atoms: N4_19  and  C12_21 
ROOT
HETATM    1  N1  UNL     1       7.093   4.004  27.873  1.00  0.00    -0.334 N 
ATOM      2  H1  UNL     1       6.291   3.389  28.005  1.00  0.00     0.165 HD
HETATM    3  C3  UNL     1       8.202   3.560  27.068  1.00  0.00     0.335 C 
HETATM    4  O1  UNL     1       9.201   4.288  26.882  1.00  0.00    -0.246 OA
HETATM    5  N2  UNL     1       8.151   2.290  26.490  1.00  0.00    -0.141 N 
ATOM      6  H2  UNL     1       7.818   1.500  27.042  1.00  0.00     0.189 HD
HETATM    7  C4  UNL     1       8.520   2.099  25.260  1.00  0.00     0.685 C 
HETATM    8  N3  UNL     1       8.988   3.149  24.441  1.00  0.00    -0.225 N 
ATOM      9  H3  UNL     1       9.989   3.260  24.276  1.00  0.00     0.177 HD
HETATM   10  N4  UNL     1       8.407   0.737  24.830  1.00  0.00    -0.144 N 
ATOM     11  H4  UNL     1       8.059   0.025  25.473  1.00  0.00     0.188 HD
HETATM   12  C12 UNL     1       8.777   0.382  23.518  1.00  0.00     0.346 C 
HETATM   13  N5  UNL     1       8.644  -1.001  23.128  1.00  0.00    -0.039 NA
HETATM   14  O2  UNL     1       9.206   1.238  22.724  1.00  0.00    -0.250 OA
ENDROOT
BRANCH   8  15
HETATM   15  C5  UNL     1       8.059   4.059  23.840  1.00  0.00     0.142 C 
BRANCH  15  16
HETATM   16  C6  UNL     1       8.553   5.440  23.591  1.00  0.00     0.004 C 
HETATM   17  C7  UNL     1       9.932   5.715  24.105  1.00  0.00     0.006 C 
HETATM   18  C8  UNL     1      10.245   7.197  24.143  1.00  0.00     0.000 C 
HETATM   19  C9  UNL     1       9.493   7.865  23.025  1.00  0.00     0.000 C 
HETATM   20  C10 UNL     1       7.996   7.772  23.197  1.00  0.00     0.000 C 
HETATM   21  C11 UNL     1       7.598   6.535  23.987  1.00  0.00     0.006 C 
ENDBRANCH  15  16
ENDBRANCH   8  15
BRANCH   1  22
HETATM   22  C2  UNL     1       7.100   5.309  28.496  1.00  0.00     0.031 C 
HETATM   23  C1  UNL     1       7.903   5.238  29.776  1.00  0.00     0.038 C 
HETATM   24  C13 UNL     1       7.774   6.306  27.589  1.00  0.00     0.031 C 
HETATM   25  C14 UNL     1       7.234   7.681  27.657  1.00  0.00     0.002 C 
HETATM   26  C15 UNL     1       6.599   8.103  28.928  1.00  0.00     0.000 C 
HETATM   27  C16 UNL     1       5.921   7.013  29.705  1.00  0.00     0.002 C 
HETATM   28  C17 UNL     1       5.703   5.840  28.747  1.00  0.00     0.031 C 
ENDBRANCH   1  22
TORSDOF 3
ENDMDL
MODEL 4
REMARK VINA RESULT: -7.768760225      3.996      5.856
REMARK  3 active torsions:
REMARK  status: ('A' for Active; 'I' for Inactive)
REMARK    1  A    between atoms: C2_2  and  N1_3 
REMARK       I    between atoms: N1_3  and  C3_5 
REMARK       I    between atoms: C3_5  and  N2_7 
REMARK       I    between atoms: C4_9  and  N3_10 
REMARK       I    between atoms: C4_9  and  N4_19 
REMARK    2  A    between atoms: N3_10  and  C5_12 
REMARK    3  A    between atoms: C5_12  and  C6_13 
REMARK       I    between atoms: N4_19  and  C12_21 
ROOT
HETATM    1  N1  UNL     1       7.052   4.074  27.921  1.00  0.00    -0.334 N 
ATOM      2  H1  UNL     1       6.271   3.433  28.058  1.00  0.00     0.165 HD
HETATM    3  C3  UNL     1       8.161   3.674  27.094  1.00  0.00     0.335 C 
HETATM    4  O1  UNL     1       9.135   4.434  26.902  1.00  0.00    -0.246 OA
HETATM    5  N2  UNL     1       8.138   2.410  26.500  1.00  0.00    -0.141 N 
ATOM      6  H2  UNL     1       7.838   1.604  27.046  1.00  0.00     0.189 HD
HETATM    7  C4  UNL     1       8.494   2.246  25.262  1.00  0.00     0.685 C 
HETATM    8  N3  UNL     1       8.917   3.320  24.449  1.00  0.00    -0.225 N 
ATOM      9  H3  UNL     1       9.912   3.463  24.271  1.00  0.00     0.177 HD
HETATM   10  N4  UNL     1       8.414   0.887  24.815  1.00  0.00    -0.144 N 
ATOM     11  H4  UNL     1       8.098   0.157  25.454  1.00  0.00     0.188 HD
HETATM   12  C12 UNL     1       8.774   0.561  23.493  1.00  0.00     0.346 C 
HETATM   13  N5  UNL     1       8.677  -0.821  23.087  1.00  0.00    -0.039 NA
HETATM   14  O2  UNL     1       9.165   1.440  22.705  1.00  0.00    -0.250 OA
ENDROOT
BRANCH   8  15
HETATM   15  C5  UNL     1       7.952   4.209  23.875  1.00  0.00     0.142 C 
BRANCH  15  16
HETATM   16  C6  UNL     1       8.281   5.660  23.918  1.00  0.00     0.004 C 
HETATM   17  C7  UNL     1       7.508   6.507  22.956  1.00  0.00     0.006 C 
HETATM   18  C8  UNL     1       8.114   7.885  22.789  1.00  0.00     0.000 C 
HETATM   19  C9  UNL     1       8.768   8.271  24.086  1.00  0.00     0.000 C 
HETATM   20  C10 UNL     1       9.927   7.370  24.443  1.00  0.00     0.000 C 
HETATM   21  C11 UNL     1       9.752   5.977  23.857  1.00  0.00     0.006 C 
ENDBRANCH  15  16
ENDBRANCH   8  15
BRANCH   1  22
HETATM   22  C2  UNL     1       7.030   5.370  28.562  1.00  0.00     0.031 C 
HETATM   23  C1  UNL     1       7.513   6.413  27.579  1.00  0.00     0.038 C 
HETATM   24  C13 UNL     1       5.618   5.726  28.948  1.00  0.00     0.031 C 
HETATM   25  C14 UNL     1       5.488   6.527  30.184  1.00  0.00     0.002 C 
HETATM   26  C15 UNL     1       6.630   7.395  30.559  1.00  0.00     0.000 C 
HETATM   27  C16 UNL     1       7.984   6.890  30.154  1.00  0.00     0.002 C 
HETATM   28  C17 UNL     1       7.840   5.399  29.842  1.00  0.00     0.031 C 
ENDBRANCH   1  22
TORSDOF 3
ENDMDL
MODEL 5
REMARK VINA RESULT: -7.705197562      3.945      5.846
REMARK  3 active torsions:
REMARK  status: ('A' for Active; 'I' for Inactive)
REMARK    1  A    between atoms: C2_2  and  N1_3 
REMARK       I    between atoms: N1_3  and  C3_5 
REMARK       I    between atoms: C3_5  and  N2_7 
REMARK       I    between atoms: C4_9  and  N3_10 
REMARK       I    between atoms: C4_9  and  N4_19 
REMARK    2  A    between atoms: N3_10  and  C5_12 
REMARK    3  A    between atoms: C5_12  and  C6_13 
REMARK       I    between atoms: N4_19  and  C12_21 
ROOT
HETATM    1  N1  UNL     1       6.941   4.056  27.893  1.00  0.00    -0.334 N 
ATOM      2  H1  UNL     1       6.153   3.417  27.996  1.00  0.00     0.165 HD
HETATM    3  C3  UNL     1       8.084   3.653  27.116  1.00  0.00     0.335 C 
HETATM    4  O1  UNL     1       9.067   4.411  26.966  1.00  0.00    -0.246 OA
HETATM    5  N2  UNL     1       8.086   2.388  26.525  1.00  0.00    -0.141 N 
ATOM      6  H2  UNL     1       7.761   1.583  27.060  1.00  0.00     0.189 HD
HETATM    7  C4  UNL     1       8.495   2.220  25.304  1.00  0.00     0.685 C 
HETATM    8  N3  UNL     1       8.956   3.291  24.509  1.00  0.00    -0.225 N 
ATOM      9  H3  UNL     1       9.958   3.432  24.374  1.00  0.00     0.177 HD
HETATM   10  N4  UNL     1       8.434   0.860  24.858  1.00  0.00    -0.144 N 
ATOM     11  H4  UNL     1       8.088   0.132  25.484  1.00  0.00     0.188 HD
HETATM   12  C12 UNL     1       8.851   0.529  23.554  1.00  0.00     0.346 C 
HETATM   13  N5  UNL     1       8.769  -0.853  23.147  1.00  0.00    -0.039 NA
HETATM   14  O2  UNL     1       9.278   1.406  22.781  1.00  0.00    -0.250 OA
ENDROOT
BRANCH   8  15
HETATM   15  C5  UNL     1       8.019   4.180  23.890  1.00  0.00     0.142 C 
BRANCH  15  16
HETATM   16  C6  UNL     1       8.325   5.633  23.982  1.00  0.00     0.004 C 
HETATM   17  C7  UNL     1       7.596   6.492  22.996  1.00  0.00     0.006 C 
HETATM   18  C8  UNL     1       8.192   7.881  22.894  1.00  0.00     0.000 C 
HETATM   19  C9  UNL     1       8.766   8.246  24.234  1.00  0.00     0.000 C 
HETATM   20  C10 UNL     1       9.915   7.352  24.636  1.00  0.00     0.000 C 
HETATM   21  C11 UNL     1       9.793   5.969  24.012  1.00  0.00     0.006 C 
ENDBRANCH  15  16
ENDBRANCH   8  15
BRANCH   1  22
HETATM   22  C2  UNL     1       6.893   5.355  28.529  1.00  0.00     0.031 C 
HETATM   23  C1  UNL     1       5.447   5.769  28.690  1.00  0.00     0.038 C 
HETATM   24  C13 UNL     1       7.501   5.274  29.905  1.00  0.00     0.031 C 
HETATM   25  C14 UNL     1       8.207   6.493  30.351  1.00  0.00     0.002 C 
HETATM   26  C15 UNL     1       7.762   7.787  29.782  1.00  0.00     0.000 C 
HETATM   27  C16 UNL     1       7.225   7.726  28.382  1.00  0.00     0.002 C 
HETATM   28  C17 UNL     1       7.688   6.401  27.774  1.00  0.00     0.031 C 
ENDBRANCH   1  22
TORSDOF 3
ENDMDL
