MODEL 1
REMARK VINA RESULT: -7.582159046      0.000      0.000
REMARK  9 active torsions:
REMARK  status: ('A' for Active; 'I' for Inactive)
REMARK    1  A    between atoms: C2_2  and  C3_3 
REMARK    2  A    between atoms: C2_2  and  N2_14 
REMARK    3  A    between atoms: C3_3  and  N1_4 
REMARK       I    between atoms: N1_4  and  C4_6 
REMARK    4  A    between atoms: C4_6  and  C5_8 
REMARK    5  A    between atoms: N2_14  and  C9_16 
REMARK    6  A    between atoms: C9_16  and  O2_17 
REMARK    7  A    between atoms: C9_16  and  N3_19 
REMARK    8  A    between atoms: N3_19  and  C10_21 
REMARK    9  A    between atoms: C12_23  and  C13_24 
ROOT
HETATM    1  C9  UNL     1       7.566   6.388  22.866  1.00  0.00     0.218 C 
ENDROOT
BRANCH   1   2
HETATM    2  N2  UNL     1       6.899   5.688  23.841  1.00  0.00    -0.350 N 
ATOM      3  H2  UNL     1       6.385   4.833  23.629  1.00  0.00     0.163 HD
BRANCH   2   4
HETATM    4  C2  UNL     1       6.966   6.262  25.279  1.00  0.00     0.098 C 
HETATM    5  C1  UNL     1       5.494   6.251  25.718  1.00  0.00     0.034 C 
BRANCH   4   6
HETATM    6  C3  UNL     1       7.705   5.163  25.974  1.00  0.00     0.147 C 
BRANCH   6   7
HETATM    7  N1  UNL     1       7.555   3.849  25.345  1.00  0.00    -0.354 N 
HETATM    8  C4  UNL     1       8.536   2.909  25.690  1.00  0.00     0.260 C 
HETATM    9  O1  UNL     1       9.408   3.151  26.567  1.00  0.00    -0.267 OA
ATOM     10  H1  UNL     1       6.792   3.634  24.703  1.00  0.00     0.162 HD
BRANCH   8  11
HETATM   11  C5  UNL     1       8.582   1.585  25.000  1.00  0.00     0.094 A 
HETATM   12  S1  UNL     1       8.171   0.081  25.783  1.00  0.00    -0.095 SA
HETATM   13  C6  UNL     1       8.613  -1.004  24.547  1.00  0.00     0.052 A 
HETATM   14  C7  UNL     1       9.063  -0.171  23.570  1.00  0.00     0.032 A 
HETATM   15  C8  UNL     1       9.046   1.166  23.802  1.00  0.00     0.057 A 
HETATM   16 CL1  UNL     1       9.638   2.324  22.553  1.00  0.00    -0.083 Cl
ENDBRANCH   8  11
ENDBRANCH   6   7
ENDBRANCH   4   6
ENDBRANCH   2   4
ENDBRANCH   1   2
BRANCH   1  17
HETATM   17  O2  UNL     1       7.628   5.985  21.626  1.00  0.00    -0.332 OA
ATOM     18  H2  UNL     1       8.425   6.030  21.111  1.00  0.00     0.220 HD
ENDBRANCH   1  17
BRANCH   1  19
HETATM   19  N3  UNL     1       8.281   7.596  22.995  1.00  0.00    -0.307 N 
ATOM     20  H3  UNL     1       7.797   8.488  23.099  1.00  0.00     0.171 HD
BRANCH  19  21
HETATM   21  C10 UNL     1       9.569   7.533  22.975  1.00  0.00     0.124 A 
HETATM   22  C11 UNL     1      10.432   8.561  22.711  1.00  0.00     0.077 A 
HETATM   23  C12 UNL     1      11.731   8.043  22.728  1.00  0.00     0.037 A 
HETATM   24  N4  UNL     1      11.603   6.734  22.988  1.00  0.00    -0.302 N 
HETATM   25  N5  UNL     1      10.329   6.421  23.137  1.00  0.00    -0.285 N 
ATOM     26  H4  UNL     1      12.378   6.074  23.059  1.00  0.00     0.186 HD
ATOM     27  H5  UNL     1       9.972   5.488  23.343  1.00  0.00     0.188 HD
BRANCH  23  28
HETATM   28  C13 UNL     1      13.022   8.759  22.587  1.00  0.00    -0.007 C 
HETATM   29  C14 UNL     1      14.210   7.850  22.745  1.00  0.00     0.021 C 
HETATM   30  C15 UNL     1      13.044   9.319  21.149  1.00  0.00     0.021 C 
HETATM   31  C16 UNL     1      13.046   9.949  23.506  1.00  0.00     0.021 C 
ENDBRANCH  23  28
ENDBRANCH  19  21
ENDBRANCH   1  19
TORSDOF 9
ENDMDL
MODEL 2
REMARK VINA RESULT: -7.434009552      2.864      5.042
REMARK  9 active torsions:
REMARK  status: ('A' for Active; 'I' for Inactive)
REMARK    1  A    between atoms: C2_2  and  C3_3 
REMARK    2  A    between atoms: C2_2  and  N2_14 
REMARK    3  A    between atoms: C3_3  and  N1_4 
REMARK       I    between atoms: N1_4  and  C4_6 
REMARK    4  A    between atoms: C4_6  and  C5_8 
REMARK    5  A    between atoms: N2_14  and  C9_16 
REMARK    6  A    between atoms: C9_16  and  O2_17 
REMARK    7  A    between atoms: C9_16  and  N3_19 
REMARK    8  A    between atoms: N3_19  and  C10_21 
REMARK    9  A    between atoms: C12_23  and  C13_24 
ROOT
HETATM    1  C9  UNL     1      10.160   2.179  23.212  1.00  0.00     0.218 C 
ENDROOT
BRANCH   1   2
HETATM    2  N2  UNL     1       9.926   1.051  23.958  1.00  0.00    -0.350 N 
ATOM      3  H2  UNL     1      10.627   0.314  24.049  1.00  0.00     0.163 HD
BRANCH   2   4
HETATM    4  C2  UNL     1       8.545   0.950  24.654  1.00  0.00     0.098 C 
HETATM    5  C1  UNL     1       8.333  -0.566  24.771  1.00  0.00     0.034 C 
BRANCH   4   6
HETATM    6  C3  UNL     1       8.880   1.514  25.999  1.00  0.00     0.147 C 
BRANCH   6   7
HETATM    7  N1  UNL     1       7.913   2.497  26.493  1.00  0.00    -0.354 N 
HETATM    8  C4  UNL     1       8.458   3.735  26.860  1.00  0.00     0.260 C 
HETATM    9  O1  UNL     1       9.672   4.011  26.663  1.00  0.00    -0.267 OA
ATOM     10  H1  UNL     1       6.916   2.295  26.565  1.00  0.00     0.162 HD
BRANCH   8  11
HETATM   11  C5  UNL     1       7.602   4.766  27.520  1.00  0.00     0.094 A 
HETATM   12  S1  UNL     1       7.565   5.021  29.246  1.00  0.00    -0.095 SA
HETATM   13  C6  UNL     1       6.293   6.148  29.331  1.00  0.00     0.052 A 
HETATM   14  C7  UNL     1       5.937   6.292  28.027  1.00  0.00     0.032 A 
HETATM   15  C8  UNL     1       6.613   5.580  27.090  1.00  0.00     0.057 A 
HETATM   16 CL1  UNL     1       6.186   5.718  25.344  1.00  0.00    -0.083 Cl
ENDBRANCH   8  11
ENDBRANCH   6   7
ENDBRANCH   4   6
ENDBRANCH   2   4
ENDBRANCH   1   2
BRANCH   1  17
HETATM   17  O2  UNL     1      11.350   2.512  22.791  1.00  0.00    -0.332 OA
ATOM     18  H2  UNL     1      11.496   3.212  22.165  1.00  0.00     0.220 HD
ENDBRANCH   1  17
BRANCH   1  19
HETATM   19  N3  UNL     1       9.231   3.149  22.785  1.00  0.00    -0.307 N 
ATOM     20  H3  UNL     1       8.458   2.905  22.165  1.00  0.00     0.171 HD
BRANCH  19  21
HETATM   21  C10 UNL     1       9.394   4.357  23.204  1.00  0.00     0.124 A 
HETATM   22  C11 UNL     1       8.666   5.455  22.833  1.00  0.00     0.077 A 
HETATM   23  C12 UNL     1       9.217   6.570  23.475  1.00  0.00     0.037 A 
HETATM   24  N4  UNL     1      10.252   6.109  24.191  1.00  0.00    -0.302 N 
HETATM   25  N5  UNL     1      10.365   4.802  24.041  1.00  0.00    -0.285 N 
ATOM     26  H4  UNL     1      10.865   6.684  24.770  1.00  0.00     0.186 HD
ATOM     27  H5  UNL     1      11.073   4.217  24.484  1.00  0.00     0.188 HD
BRANCH  23  28
HETATM   28  C13 UNL     1       8.743   7.975  23.473  1.00  0.00    -0.007 C 
HETATM   29  C14 UNL     1       7.364   8.121  22.889  1.00  0.00     0.021 C 
HETATM   30  C15 UNL     1       8.676   8.403  24.955  1.00  0.00     0.021 C 
HETATM   31  C16 UNL     1       9.771   8.857  22.822  1.00  0.00     0.021 C 
ENDBRANCH  23  28
ENDBRANCH  19  21
ENDBRANCH   1  19
TORSDOF 9
ENDMDL
MODEL 3
REMARK VINA RESULT: -7.330645740      3.478      5.352
REMARK  9 active torsions:
REMARK  status: ('A' for Active; 'I' for Inactive)
REMARK    1  A    between atoms: C2_2  and  C3_3 
REMARK    2  A    between atoms: C2_2  and  N2_14 
REMARK    3  A    between atoms: C3_3  and  N1_4 
REMARK       I    between atoms: N1_4  and  C4_6 
REMARK    4  A    between atoms: C4_6  and  C5_8 
REMARK    5  A    between atoms: N2_14  and  C9_16 
REMARK    6  A    between atoms: C9_16  and  O2_17 
REMARK    7  A    between atoms: C9_16  and  N3_19 
REMARK    8  A    between atoms: N3_19  and  C10_21 
REMARK    9  A    between atoms: C12_23  and  C13_24 
ROOT
HETATM    1  C9  UNL     1      10.252   2.538  23.326  1.00  0.00     0.218 C 
ENDROOT
BRANCH   1   2
HETATM    2  N2  UNL     1      10.075   1.349  23.986  1.00  0.00    -0.350 N 
ATOM      3  H2  UNL     1      10.828   0.665  24.068  1.00  0.00     0.163 HD
BRANCH   2   4
HETATM    4  C2  UNL     1       8.675   1.095  24.601  1.00  0.00     0.098 C 
HETATM    5  C1  UNL     1       8.559  -0.436  24.562  1.00  0.00     0.034 C 
BRANCH   4   6
HETATM    6  C3  UNL     1       8.913   1.543  26.008  1.00  0.00     0.147 C 
BRANCH   6   7
HETATM    7  N1  UNL     1       7.919   2.496  26.509  1.00  0.00    -0.354 N 
HETATM    8  C4  UNL     1       8.441   3.712  26.972  1.00  0.00     0.260 C 
HETATM    9  O1  UNL     1       9.662   3.999  26.851  1.00  0.00    -0.267 OA
ATOM     10  H1  UNL     1       6.920   2.289  26.520  1.00  0.00     0.162 HD
BRANCH   8  11
HETATM   11  C5  UNL     1       7.550   4.703  27.646  1.00  0.00     0.094 A 
HETATM   12  S1  UNL     1       6.459   5.756  26.782  1.00  0.00    -0.095 SA
HETATM   13  C6  UNL     1       5.922   6.721  28.077  1.00  0.00     0.052 A 
HETATM   14  C7  UNL     1       6.601   6.200  29.135  1.00  0.00     0.032 A 
HETATM   15  C8  UNL     1       7.441   5.158  28.914  1.00  0.00     0.057 A 
HETATM   16 CL1  UNL     1       8.378   4.428  30.270  1.00  0.00    -0.083 Cl
ENDBRANCH   8  11
ENDBRANCH   6   7
ENDBRANCH   4   6
ENDBRANCH   2   4
ENDBRANCH   1   2
BRANCH   1  17
HETATM   17  O2  UNL     1      11.430   3.065  23.124  1.00  0.00    -0.332 OA
ATOM     18  H2  UNL     1      11.891   3.561  23.790  1.00  0.00     0.220 HD
ENDBRANCH   1  17
BRANCH   1  19
HETATM   19  N3  UNL     1       9.268   3.385  22.776  1.00  0.00    -0.307 N 
ATOM     20  H3  UNL     1       8.672   3.074  22.009  1.00  0.00     0.171 HD
BRANCH  19  21
HETATM   21  C10 UNL     1       9.150   4.567  23.277  1.00  0.00     0.124 A 
HETATM   22  C11 UNL     1       8.304   5.554  22.849  1.00  0.00     0.077 A 
HETATM   23  C12 UNL     1       8.546   6.691  23.627  1.00  0.00     0.037 A 
HETATM   24  N4  UNL     1       9.525   6.355  24.478  1.00  0.00    -0.302 N 
HETATM   25  N5  UNL     1       9.889   5.100  24.282  1.00  0.00    -0.285 N 
ATOM     26  H4  UNL     1       9.932   6.977  25.177  1.00  0.00     0.186 HD
ATOM     27  H5  UNL     1      10.614   4.609  24.805  1.00  0.00     0.188 HD
BRANCH  23  28
HETATM   28  C13 UNL     1       7.837   7.994  23.619  1.00  0.00    -0.007 C 
HETATM   29  C14 UNL     1       8.204   8.847  22.436  1.00  0.00     0.021 C 
HETATM   30  C15 UNL     1       6.334   7.660  23.512  1.00  0.00     0.021 C 
HETATM   31  C16 UNL     1       8.025   8.682  24.942  1.00  0.00     0.021 C 
ENDBRANCH  23  28
ENDBRANCH  19  21
ENDBRANCH   1  19
TORSDOF 9
ENDMDL
MODEL 4
REMARK VINA RESULT: -7.291004382      3.327      4.967
REMARK  9 active torsions:
REMARK  status: ('A' for Active; 'I' for Inactive)
REMARK    1  A    between atoms: C2_2  and  C3_3 
REMARK    2  A    between atoms: C2_2  and  N2_14 
REMARK    3  A    between atoms: C3_3  and  N1_4 
REMARK       I    between atoms: N1_4  and  C4_6 
REMARK    4  A    between atoms: C4_6  and  C5_8 
REMARK    5  A    between atoms: N2_14  and  C9_16 
REMARK    6  A    between atoms: C9_16  and  O2_17 
REMARK    7  A    between atoms: C9_16  and  N3_19 
REMARK    8  A    between atoms: N3_19  and  C10_21 
REMARK    9  A    between atoms: C12_23  and  C13_24 
ROOT
HETATM    1  C9  UNL     1      13.596   7.475  22.558  1.00  0.00     0.218 C 
ENDROOT
BRANCH   1   2
HETATM    2  N2  UNL     1      12.268   7.161  22.416  1.00  0.00    -0.350 N 
ATOM      3  H2  UNL     1      11.960   6.401  21.807  1.00  0.00     0.163 HD
BRANCH   2   4
HETATM    4  C2  UNL     1      11.259   8.015  23.225  1.00  0.00     0.098 C 
HETATM    5  C1  UNL     1      11.031   9.228  22.311  1.00  0.00     0.034 C 
BRANCH   4   6
HETATM    6  C3  UNL     1      10.058   7.124  23.184  1.00  0.00     0.147 C 
BRANCH   6   7
HETATM    7  N1  UNL     1      10.327   5.737  23.567  1.00  0.00    -0.354 N 
HETATM    8  C4  UNL     1       9.215   4.884  23.535  1.00  0.00     0.260 C 
HETATM    9  O1  UNL     1       8.098   5.266  23.093  1.00  0.00    -0.267 OA
ATOM     10  H1  UNL     1      11.256   5.415  23.838  1.00  0.00     0.162 HD
BRANCH   8  11
HETATM   11  C5  UNL     1       9.327   3.486  24.048  1.00  0.00     0.094 A 
HETATM   12  S1  UNL     1       9.595   2.103  23.018  1.00  0.00    -0.095 SA
HETATM   13  C6  UNL     1       9.424   0.862  24.170  1.00  0.00     0.052 A 
HETATM   14  C7  UNL     1       9.164   1.553  25.313  1.00  0.00     0.032 A 
HETATM   15  C8  UNL     1       9.115   2.908  25.252  1.00  0.00     0.057 A 
HETATM   16 CL1  UNL     1       8.767   3.883  26.727  1.00  0.00    -0.083 Cl
ENDBRANCH   8  11
ENDBRANCH   6   7
ENDBRANCH   4   6
ENDBRANCH   2   4
ENDBRANCH   1   2
BRANCH   1  17
HETATM   17  O2  UNL     1      14.538   6.892  21.867  1.00  0.00    -0.332 OA
ATOM     18  H2  UNL     1      14.695   7.082  20.950  1.00  0.00     0.220 HD
ENDBRANCH   1  17
BRANCH   1  19
HETATM   19  N3  UNL     1      14.180   8.421  23.426  1.00  0.00    -0.307 N 
ATOM     20  H3  UNL     1      14.008   8.392  24.431  1.00  0.00     0.171 HD
BRANCH  19  21
HETATM   21  C10 UNL     1      14.939   9.323  22.904  1.00  0.00     0.124 A 
HETATM   22  C11 UNL     1      14.532  10.427  22.207  1.00  0.00     0.077 A 
HETATM   23  C12 UNL     1      15.677  11.099  21.765  1.00  0.00     0.037 A 
HETATM   24  N4  UNL     1      16.719  10.375  22.198  1.00  0.00    -0.302 N 
HETATM   25  N5  UNL     1      16.295   9.324  22.875  1.00  0.00    -0.285 N 
ATOM     26  H4  UNL     1      17.699  10.604  22.029  1.00  0.00     0.186 HD
ATOM     27  H5  UNL     1      16.894   8.621  23.308  1.00  0.00     0.188 HD
BRANCH  23  28
HETATM   28  C13 UNL     1      15.780  12.391  21.044  1.00  0.00    -0.007 C 
HETATM   29  C14 UNL     1      14.921  12.436  19.810  1.00  0.00     0.021 C 
HETATM   30  C15 UNL     1      15.259  13.466  22.021  1.00  0.00     0.021 C 
HETATM   31  C16 UNL     1      17.225  12.715  20.787  1.00  0.00     0.021 C 
ENDBRANCH  23  28
ENDBRANCH  19  21
ENDBRANCH   1  19
TORSDOF 9
ENDMDL
MODEL 5
REMARK VINA RESULT: -7.062137635      3.913      6.355
REMARK  9 active torsions:
REMARK  status: ('A' for Active; 'I' for Inactive)
REMARK    1  A    between atoms: C2_2  and  C3_3 
REMARK    2  A    between atoms: C2_2  and  N2_14 
REMARK    3  A    between atoms: C3_3  and  N1_4 
REMARK       I    between atoms: N1_4  and  C4_6 
REMARK    4  A    between atoms: C4_6  and  C5_8 
REMARK    5  A    between atoms: N2_14  and  C9_16 
REMARK    6  A    between atoms: C9_16  and  O2_17 
REMARK    7  A    between atoms: C9_16  and  N3_19 
REMARK    8  A    between atoms: N3_19  and  C10_21 
REMARK    9  A    between atoms: C12_23  and  C13_24 
ROOT
HETATM    1  C9  UNL     1       9.066   4.440  23.773  1.00  0.00     0.218 C 
ENDROOT
BRANCH   1   2
HETATM    2  N2  UNL     1       9.608   3.293  24.296  1.00  0.00    -0.350 N 
ATOM      3  H2  UNL     1      10.615   3.188  24.428  1.00  0.00     0.163 HD
BRANCH   2   4
HETATM    4  C2  UNL     1       8.616   2.164  24.675  1.00  0.00     0.098 C 
HETATM    5  C1  UNL     1       9.210   0.938  23.967  1.00  0.00     0.034 C 
BRANCH   4   6
HETATM    6  C3  UNL     1       8.869   2.065  26.146  1.00  0.00     0.147 C 
BRANCH   6   7
HETATM    7  N1  UNL     1       7.897   2.784  26.971  1.00  0.00    -0.354 N 
HETATM    8  C4  UNL     1       8.377   3.958  27.570  1.00  0.00     0.260 C 
HETATM    9  O1  UNL     1       9.524   4.412  27.314  1.00  0.00    -0.267 OA
ATOM     10  H1  UNL     1       6.940   2.456  27.101  1.00  0.00     0.162 HD
BRANCH   8  11
HETATM   11  C5  UNL     1       7.532   4.698  28.554  1.00  0.00     0.094 A 
HETATM   12  S1  UNL     1       6.073   5.550  28.117  1.00  0.00    -0.095 SA
HETATM   13  C6  UNL     1       5.735   6.301  29.607  1.00  0.00     0.052 A 
HETATM   14  C7  UNL     1       6.758   5.871  30.394  1.00  0.00     0.032 A 
HETATM   15  C8  UNL     1       7.686   5.042  29.852  1.00  0.00     0.057 A 
HETATM   16 CL1  UNL     1       9.072   4.444  30.837  1.00  0.00    -0.083 Cl
ENDBRANCH   8  11
ENDBRANCH   6   7
ENDBRANCH   4   6
ENDBRANCH   2   4
ENDBRANCH   1   2
BRANCH   1  17
HETATM   17  O2  UNL     1       8.911   4.626  22.490  1.00  0.00    -0.332 OA
ATOM     18  H2  UNL     1       9.630   4.570  21.872  1.00  0.00     0.220 HD
ENDBRANCH   1  17
BRANCH   1  19
HETATM   19  N3  UNL     1       8.608   5.581  24.463  1.00  0.00    -0.307 N 
ATOM     20  H3  UNL     1       9.257   6.205  24.942  1.00  0.00     0.171 HD
BRANCH  19  21
HETATM   21  C10 UNL     1       7.339   5.807  24.467  1.00  0.00     0.124 A 
HETATM   22  C11 UNL     1       6.727   7.025  24.579  1.00  0.00     0.077 A 
HETATM   23  C12 UNL     1       5.345   6.809  24.605  1.00  0.00     0.037 A 
HETATM   24  N4  UNL     1       5.178   5.481  24.520  1.00  0.00    -0.302 N 
HETATM   25  N5  UNL     1       6.349   4.879  24.436  1.00  0.00    -0.285 N 
ATOM     26  H4  UNL     1       4.275   5.005  24.521  1.00  0.00     0.186 HD
ATOM     27  H5  UNL     1       6.489   3.871  24.361  1.00  0.00     0.188 HD
BRANCH  23  28
HETATM   28  C13 UNL     1       4.246   7.804  24.627  1.00  0.00    -0.007 C 
HETATM   29  C14 UNL     1       3.042   7.321  25.389  1.00  0.00     0.021 C 
HETATM   30  C15 UNL     1       4.806   9.040  25.364  1.00  0.00     0.021 C 
HETATM   31  C16 UNL     1       3.935   8.250  23.226  1.00  0.00     0.021 C 
ENDBRANCH  23  28
ENDBRANCH  19  21
ENDBRANCH   1  19
TORSDOF 9
ENDMDL
