MODEL 1
REMARK VINA RESULT: -7.783267855      0.000      0.000
REMARK  7 active torsions:
REMARK  status: ('A' for Active; 'I' for Inactive)
REMARK    1  A    between atoms: C2_2  and  N1_3 
REMARK    2  A    between atoms: N1_3  and  C3_5 
REMARK    3  A    between atoms: C3_5  and  N2_7 
REMARK    4  A    between atoms: N2_7  and  C4_9 
REMARK    5  A    between atoms: C7_12  and  C8_13 
REMARK       I    between atoms: C8_13  and  N3_15 
REMARK    6  A    between atoms: N3_15  and  N4_17 
REMARK       I    between atoms: N4_17  and  C9_19 
REMARK    7  A    between atoms: C9_19  and  C10_21 
ROOT
HETATM    1  C8  UNL     1      12.169   7.186  22.767  1.00  0.00     0.270 C 
HETATM    2  O1  UNL     1      13.130   6.344  22.749  1.00  0.00    -0.266 OA
HETATM    3  N3  UNL     1      10.891   6.837  23.252  1.00  0.00    -0.263 N 
ATOM      4  H3  UNL     1      10.130   7.516  23.260  1.00  0.00     0.190 HD
ENDROOT
BRANCH   1   5
HETATM    5  C7  UNL     1      12.431   8.512  22.273  1.00  0.00     0.033 A 
HETATM    6  C6  UNL     1      12.573   8.760  20.941  1.00  0.00     0.019 A 
HETATM    7  C5  UNL     1      12.834  10.072  20.522  1.00  0.00     0.030 A 
HETATM    8  C4  UNL     1      12.956  11.136  21.362  1.00  0.00     0.034 A 
HETATM    9  C17 UNL     1      12.804  10.836  22.730  1.00  0.00     0.030 A 
HETATM   10  C16 UNL     1      12.550   9.561  23.156  1.00  0.00     0.019 A 
BRANCH   8  11
HETATM   11  N2  UNL     1      13.185  12.475  20.968  1.00  0.00    -0.333 N 
ATOM     12  H2  UNL     1      13.179  13.201  21.685  1.00  0.00     0.168 HD
BRANCH  11  13
HETATM   13  C3  UNL     1      13.421  12.851  19.639  1.00  0.00     0.172 C 
HETATM   14  S1  UNL     1      12.210  13.554  18.764  1.00  0.00    -0.041 SA
BRANCH  13  15
HETATM   15  N1  UNL     1      14.701  12.682  19.028  1.00  0.00    -0.367 N 
ATOM     16  H1  UNL     1      14.870  11.868  18.437  1.00  0.00     0.161 HD
BRANCH  15  17
HETATM   17  C2  UNL     1      15.756  13.639  19.231  1.00  0.00     0.117 C 
HETATM   18  C1  UNL     1      16.350  14.078  17.911  1.00  0.00     0.026 C 
ENDBRANCH  15  17
ENDBRANCH  13  15
ENDBRANCH  11  13
ENDBRANCH   8  11
ENDBRANCH   1   5
BRANCH   3  19
HETATM   19  N4  UNL     1      10.697   5.532  23.720  1.00  0.00    -0.263 N 
HETATM   20  C9  UNL     1       9.537   4.839  23.360  1.00  0.00     0.270 C 
HETATM   21  O2  UNL     1       8.684   5.389  22.625  1.00  0.00    -0.266 OA
ATOM     22  H4  UNL     1      11.395   5.090  24.319  1.00  0.00     0.190 HD
BRANCH  20  23
HETATM   23  C10 UNL     1       9.248   3.468  23.804  1.00  0.00     0.033 A 
HETATM   24  C11 UNL     1       9.517   2.383  22.998  1.00  0.00     0.019 A 
HETATM   25  C12 UNL     1       9.229   1.092  23.448  1.00  0.00     0.025 A 
HETATM   26  C13 UNL     1       8.678   0.847  24.683  1.00  0.00     0.034 A 
HETATM   27 CL1  UNL     1       8.334  -0.793  25.204  1.00  0.00    -0.084 Cl
HETATM   28  C14 UNL     1       8.412   1.936  25.483  1.00  0.00     0.025 A 
HETATM   29  C15 UNL     1       8.696   3.211  25.039  1.00  0.00     0.019 A 
ENDBRANCH  20  23
ENDBRANCH   3  19
TORSDOF 7
ENDMDL
MODEL 2
REMARK VINA RESULT: -7.745455661      0.574      1.171
REMARK  7 active torsions:
REMARK  status: ('A' for Active; 'I' for Inactive)
REMARK    1  A    between atoms: C2_2  and  N1_3 
REMARK    2  A    between atoms: N1_3  and  C3_5 
REMARK    3  A    between atoms: C3_5  and  N2_7 
REMARK    4  A    between atoms: N2_7  and  C4_9 
REMARK    5  A    between atoms: C7_12  and  C8_13 
REMARK       I    between atoms: C8_13  and  N3_15 
REMARK    6  A    between atoms: N3_15  and  N4_17 
REMARK       I    between atoms: N4_17  and  C9_19 
REMARK    7  A    between atoms: C9_19  and  C10_21 
ROOT
HETATM    1  C8  UNL     1      12.104   7.131  22.761  1.00  0.00     0.270 C 
HETATM    2  O1  UNL     1      13.092   6.321  22.743  1.00  0.00    -0.266 OA
HETATM    3  N3  UNL     1      10.827   6.728  23.205  1.00  0.00    -0.263 N 
ATOM      4  H3  UNL     1      10.044   7.383  23.214  1.00  0.00     0.190 HD
ENDROOT
BRANCH   1   5
HETATM    5  C7  UNL     1      12.335   8.478  22.312  1.00  0.00     0.033 A 
HETATM    6  C6  UNL     1      11.304   9.334  22.067  1.00  0.00     0.019 A 
HETATM    7  C5  UNL     1      11.592  10.631  21.624  1.00  0.00     0.030 A 
HETATM    8  C4  UNL     1      12.850  11.111  21.420  1.00  0.00     0.034 A 
HETATM    9  C17 UNL     1      13.887  10.195  21.684  1.00  0.00     0.030 A 
HETATM   10  C16 UNL     1      13.623   8.924  22.115  1.00  0.00     0.019 A 
BRANCH   8  11
HETATM   11  N2  UNL     1      13.174  12.425  21.008  1.00  0.00    -0.333 N 
ATOM     12  H2  UNL     1      13.266  13.149  21.720  1.00  0.00     0.168 HD
BRANCH  11  13
HETATM   13  C3  UNL     1      13.374  12.779  19.667  1.00  0.00     0.172 C 
HETATM   14  S1  UNL     1      12.137  13.453  18.808  1.00  0.00    -0.041 SA
BRANCH  13  15
HETATM   15  N1  UNL     1      14.641  12.610  19.029  1.00  0.00    -0.367 N 
ATOM     16  H1  UNL     1      14.776  11.834  18.381  1.00  0.00     0.161 HD
BRANCH  15  17
HETATM   17  C2  UNL     1      15.730  13.515  19.285  1.00  0.00     0.117 C 
HETATM   18  C1  UNL     1      16.311  14.043  17.991  1.00  0.00     0.026 C 
ENDBRANCH  15  17
ENDBRANCH  13  15
ENDBRANCH  11  13
ENDBRANCH   8  11
ENDBRANCH   1   5
BRANCH   3  19
HETATM   19  N4  UNL     1      10.664   5.404  23.631  1.00  0.00    -0.263 N 
HETATM   20  C9  UNL     1       9.408   4.801  23.527  1.00  0.00     0.270 C 
HETATM   21  O2  UNL     1       8.442   5.445  23.056  1.00  0.00    -0.266 OA
ATOM     22  H4  UNL     1      11.454   4.886  24.014  1.00  0.00     0.190 HD
BRANCH  20  23
HETATM   23  C10 UNL     1       9.142   3.417  23.949  1.00  0.00     0.033 A 
HETATM   24  C11 UNL     1       8.589   3.138  25.180  1.00  0.00     0.019 A 
HETATM   25  C12 UNL     1       8.350   1.813  25.553  1.00  0.00     0.025 A 
HETATM   26  C13 UNL     1       8.648   0.751  24.733  1.00  0.00     0.034 A 
HETATM   27 CL1  UNL     1       8.331  -0.897  25.246  1.00  0.00    -0.084 Cl
HETATM   28  C14 UNL     1       9.202   1.037  23.505  1.00  0.00     0.025 A 
HETATM   29  C15 UNL     1       9.437   2.346  23.136  1.00  0.00     0.019 A 
ENDBRANCH  20  23
ENDBRANCH   3  19
TORSDOF 7
ENDMDL
MODEL 3
REMARK VINA RESULT: -7.715321437      0.956      1.328
REMARK  7 active torsions:
REMARK  status: ('A' for Active; 'I' for Inactive)
REMARK    1  A    between atoms: C2_2  and  N1_3 
REMARK    2  A    between atoms: N1_3  and  C3_5 
REMARK    3  A    between atoms: C3_5  and  N2_7 
REMARK    4  A    between atoms: N2_7  and  C4_9 
REMARK    5  A    between atoms: C7_12  and  C8_13 
REMARK       I    between atoms: C8_13  and  N3_15 
REMARK    6  A    between atoms: N3_15  and  N4_17 
REMARK       I    between atoms: N4_17  and  C9_19 
REMARK    7  A    between atoms: C9_19  and  C10_21 
ROOT
HETATM    1  C8  UNL     1      11.998   7.073  22.844  1.00  0.00     0.270 C 
HETATM    2  O1  UNL     1      12.965   6.239  22.799  1.00  0.00    -0.266 OA
HETATM    3  N3  UNL     1      10.733   6.709  23.353  1.00  0.00    -0.263 N 
ATOM      4  H3  UNL     1       9.967   7.382  23.384  1.00  0.00     0.190 HD
ENDROOT
BRANCH   1   5
HETATM    5  C7  UNL     1      12.238   8.405  22.357  1.00  0.00     0.033 A 
HETATM    6  C6  UNL     1      12.046   9.498  23.146  1.00  0.00     0.019 A 
HETATM    7  C5  UNL     1      12.290  10.770  22.612  1.00  0.00     0.030 A 
HETATM    8  C4  UNL     1      12.716  10.999  21.340  1.00  0.00     0.034 A 
HETATM    9  C17 UNL     1      12.902   9.843  20.557  1.00  0.00     0.030 A 
HETATM   10  C16 UNL     1      12.667   8.594  21.062  1.00  0.00     0.019 A 
BRANCH   8  11
HETATM   11  N2  UNL     1      13.005  12.267  20.783  1.00  0.00    -0.333 N 
ATOM     12  H2  UNL     1      12.269  12.974  20.777  1.00  0.00     0.168 HD
BRANCH  11  13
HETATM   13  C3  UNL     1      14.253  12.600  20.242  1.00  0.00     0.172 C 
HETATM   14  S1  UNL     1      15.604  12.495  21.184  1.00  0.00    -0.041 SA
BRANCH  13  15
HETATM   15  N1  UNL     1      14.397  12.989  18.875  1.00  0.00    -0.367 N 
ATOM     16  H1  UNL     1      14.099  12.351  18.138  1.00  0.00     0.161 HD
BRANCH  15  17
HETATM   17  C2  UNL     1      14.957  14.267  18.520  1.00  0.00     0.117 C 
HETATM   18  C1  UNL     1      16.274  14.098  17.795  1.00  0.00     0.026 C 
ENDBRANCH  15  17
ENDBRANCH  13  15
ENDBRANCH  11  13
ENDBRANCH   8  11
ENDBRANCH   1   5
BRANCH   3  19
HETATM   19  N4  UNL     1      10.560   5.398  23.815  1.00  0.00    -0.263 N 
HETATM   20  C9  UNL     1       9.458   4.658  23.378  1.00  0.00     0.270 C 
HETATM   21  O2  UNL     1       8.637   5.170  22.582  1.00  0.00    -0.266 OA
ATOM     22  H4  UNL     1      11.232   4.988  24.463  1.00  0.00     0.190 HD
BRANCH  20  23
HETATM   23  C10 UNL     1       9.194   3.277  23.809  1.00  0.00     0.033 A 
HETATM   24  C11 UNL     1       9.450   2.207  22.979  1.00  0.00     0.019 A 
HETATM   25  C12 UNL     1       9.187   0.907  23.417  1.00  0.00     0.025 A 
HETATM   26  C13 UNL     1       8.674   0.637  24.663  1.00  0.00     0.034 A 
HETATM   27 CL1  UNL     1       8.360  -1.014  25.168  1.00  0.00    -0.084 Cl
HETATM   28  C14 UNL     1       8.420   1.712  25.487  1.00  0.00     0.025 A 
HETATM   29  C15 UNL     1       8.680   2.996  25.055  1.00  0.00     0.019 A 
ENDBRANCH  20  23
ENDBRANCH   3  19
TORSDOF 7
ENDMDL
MODEL 4
REMARK VINA RESULT: -7.597689908      1.134      1.443
REMARK  7 active torsions:
REMARK  status: ('A' for Active; 'I' for Inactive)
REMARK    1  A    between atoms: C2_2  and  N1_3 
REMARK    2  A    between atoms: N1_3  and  C3_5 
REMARK    3  A    between atoms: C3_5  and  N2_7 
REMARK    4  A    between atoms: N2_7  and  C4_9 
REMARK    5  A    between atoms: C7_12  and  C8_13 
REMARK       I    between atoms: C8_13  and  N3_15 
REMARK    6  A    between atoms: N3_15  and  N4_17 
REMARK       I    between atoms: N4_17  and  C9_19 
REMARK    7  A    between atoms: C9_19  and  C10_21 
ROOT
HETATM    1  C8  UNL     1      12.752   7.465  22.225  1.00  0.00     0.270 C 
HETATM    2  O1  UNL     1      13.623   6.535  22.317  1.00  0.00    -0.266 OA
HETATM    3  N3  UNL     1      11.469   7.336  22.797  1.00  0.00    -0.263 N 
ATOM      4  H3  UNL     1      10.781   8.085  22.717  1.00  0.00     0.190 HD
ENDROOT
BRANCH   1   5
HETATM    5  C7  UNL     1      13.122   8.661  21.514  1.00  0.00     0.033 A 
HETATM    6  C6  UNL     1      14.210   9.396  21.877  1.00  0.00     0.019 A 
HETATM    7  C5  UNL     1      14.516  10.554  21.150  1.00  0.00     0.030 A 
HETATM    8  C4  UNL     1      13.795  11.006  20.087  1.00  0.00     0.034 A 
HETATM    9  C17 UNL     1      12.679  10.218  19.746  1.00  0.00     0.030 A 
HETATM   10  C16 UNL     1      12.365   9.086  20.446  1.00  0.00     0.019 A 
BRANCH   8  11
HETATM   11  N2  UNL     1      14.098  12.151  19.313  1.00  0.00    -0.333 N 
ATOM     12  H2  UNL     1      14.303  12.027  18.322  1.00  0.00     0.168 HD
BRANCH  11  13
HETATM   13  C3  UNL     1      14.128  13.447  19.843  1.00  0.00     0.172 C 
HETATM   14  S1  UNL     1      12.722  14.163  20.329  1.00  0.00    -0.041 SA
BRANCH  13  15
HETATM   15  N1  UNL     1      15.355  14.158  20.017  1.00  0.00    -0.367 N 
ATOM     16  H1  UNL     1      15.380  14.972  20.632  1.00  0.00     0.161 HD
BRANCH  15  17
HETATM   17  C2  UNL     1      16.556  13.746  19.339  1.00  0.00     0.117 C 
HETATM   18  C1  UNL     1      16.525  14.157  17.884  1.00  0.00     0.026 C 
ENDBRANCH  15  17
ENDBRANCH  13  15
ENDBRANCH  11  13
ENDBRANCH   8  11
ENDBRANCH   1   5
BRANCH   3  19
HETATM   19  N4  UNL     1      11.167   6.150  23.478  1.00  0.00    -0.263 N 
HETATM   20  C9  UNL     1       9.954   5.504  23.225  1.00  0.00     0.270 C 
HETATM   21  O2  UNL     1       9.149   5.989  22.396  1.00  0.00    -0.266 OA
ATOM     22  H4  UNL     1      11.827   5.761  24.152  1.00  0.00     0.190 HD
BRANCH  20  23
HETATM   23  C10 UNL     1       9.552   4.257  23.892  1.00  0.00     0.033 A 
HETATM   24  C11 UNL     1       9.429   3.078  23.189  1.00  0.00     0.019 A 
HETATM   25  C12 UNL     1       9.043   1.909  23.851  1.00  0.00     0.025 A 
HETATM   26  C13 UNL     1       8.774   1.879  25.199  1.00  0.00     0.034 A 
HETATM   27 CL1  UNL     1       8.292   0.386  25.986  1.00  0.00    -0.084 Cl
HETATM   28  C14 UNL     1       8.899   3.061  25.894  1.00  0.00     0.025 A 
HETATM   29  C15 UNL     1       9.280   4.216  25.241  1.00  0.00     0.019 A 
ENDBRANCH  20  23
ENDBRANCH   3  19
TORSDOF 7
ENDMDL
MODEL 5
REMARK VINA RESULT: -7.532596400      1.629      2.625
REMARK  7 active torsions:
REMARK  status: ('A' for Active; 'I' for Inactive)
REMARK    1  A    between atoms: C2_2  and  N1_3 
REMARK    2  A    between atoms: N1_3  and  C3_5 
REMARK    3  A    between atoms: C3_5  and  N2_7 
REMARK    4  A    between atoms: N2_7  and  C4_9 
REMARK    5  A    between atoms: C7_12  and  C8_13 
REMARK       I    between atoms: C8_13  and  N3_15 
REMARK    6  A    between atoms: N3_15  and  N4_17 
REMARK       I    between atoms: N4_17  and  C9_19 
REMARK    7  A    between atoms: C9_19  and  C10_21 
ROOT
HETATM    1  C8  UNL     1      11.835   6.956  22.950  1.00  0.00     0.270 C 
HETATM    2  O1  UNL     1      12.851   6.186  22.874  1.00  0.00    -0.266 OA
HETATM    3  N3  UNL     1      10.583   6.485  23.401  1.00  0.00    -0.263 N 
ATOM      4  H3  UNL     1       9.777   7.108  23.456  1.00  0.00     0.190 HD
ENDROOT
BRANCH   1   5
HETATM    5  C7  UNL     1      12.005   8.330  22.559  1.00  0.00     0.033 A 
HETATM    6  C6  UNL     1      11.769   9.352  23.428  1.00  0.00     0.019 A 
HETATM    7  C5  UNL     1      11.946  10.670  22.985  1.00  0.00     0.030 A 
HETATM    8  C4  UNL     1      12.346  11.011  21.730  1.00  0.00     0.034 A 
HETATM    9  C17 UNL     1      12.578   9.926  20.863  1.00  0.00     0.030 A 
HETATM   10  C16 UNL     1      12.409   8.633  21.278  1.00  0.00     0.019 A 
BRANCH   8  11
HETATM   11  N2  UNL     1      12.566  12.329  21.265  1.00  0.00    -0.333 N 
ATOM     12  H2  UNL     1      13.385  12.834  21.606  1.00  0.00     0.168 HD
BRANCH  11  13
HETATM   13  C3  UNL     1      11.715  12.973  20.358  1.00  0.00     0.172 C 
HETATM   14  S1  UNL     1      12.324  13.553  18.938  1.00  0.00    -0.041 SA
BRANCH  13  15
HETATM   15  N1  UNL     1      10.315  13.106  20.610  1.00  0.00    -0.367 N 
ATOM     16  H1  UNL     1       9.983  13.865  21.205  1.00  0.00     0.161 HD
BRANCH  15  17
HETATM   17  C2  UNL     1       9.365  12.189  20.039  1.00  0.00     0.117 C 
HETATM   18  C1  UNL     1       8.755  11.307  21.106  1.00  0.00     0.026 C 
ENDBRANCH  15  17
ENDBRANCH  13  15
ENDBRANCH  11  13
ENDBRANCH   8  11
ENDBRANCH   1   5
BRANCH   3  19
HETATM   19  N4  UNL     1      10.479   5.138  23.769  1.00  0.00    -0.263 N 
HETATM   20  C9  UNL     1       9.272   4.463  23.567  1.00  0.00     0.270 C 
HETATM   21  O2  UNL     1       8.297   5.065  23.061  1.00  0.00    -0.266 OA
ATOM     22  H4  UNL     1      11.277   4.654  24.181  1.00  0.00     0.190 HD
BRANCH  20  23
HETATM   23  C10 UNL     1       9.070   3.051  23.922  1.00  0.00     0.033 A 
HETATM   24  C11 UNL     1       9.333   2.041  23.022  1.00  0.00     0.019 A 
HETATM   25  C12 UNL     1       9.128   0.709  23.390  1.00  0.00     0.025 A 
HETATM   26  C13 UNL     1       8.668   0.349  24.633  1.00  0.00     0.034 A 
HETATM   27 CL1  UNL     1       8.426  -1.339  25.049  1.00  0.00    -0.084 Cl
HETATM   28  C14 UNL     1       8.406   1.363  25.528  1.00  0.00     0.025 A 
HETATM   29  C15 UNL     1       8.608   2.680  25.165  1.00  0.00     0.019 A 
ENDBRANCH  20  23
ENDBRANCH   3  19
TORSDOF 7
ENDMDL
