MODEL 1
REMARK VINA RESULT: -7.589557974      0.000      0.000
REMARK  7 active torsions:
REMARK  status: ('A' for Active; 'I' for Inactive)
REMARK    1  A    between atoms: C2_2  and  N1_4 
REMARK       I    between atoms: N1_4  and  C4_6 
REMARK       I    between atoms: C4_6  and  N2_8 
REMARK       I    between atoms: C5_10  and  N3_11 
REMARK       I    between atoms: C5_10  and  N5_26 
REMARK    2  A    between atoms: N3_11  and  C6_13 
REMARK    3  A    between atoms: C6_13  and  N4_15 
REMARK    4  A    between atoms: N4_15  and  C7_17 
REMARK    5  A    between atoms: C7_17  and  C8_18 
REMARK    6  A    between atoms: C8_18  and  C9_19 
REMARK    7  A    between atoms: N5_26  and  C15_28 
ROOT
HETATM    1  N1  UNL     1       6.360   5.675  27.184  1.00  0.00    -0.339 N 
ATOM      2  H1  UNL     1       5.484   5.152  27.177  1.00  0.00     0.164 HD
HETATM    3  C4  UNL     1       6.571   6.699  26.228  1.00  0.00     0.334 C 
HETATM    4  O1  UNL     1       7.677   7.319  26.280  1.00  0.00    -0.246 OA
HETATM    5  N2  UNL     1       5.661   7.080  25.231  1.00  0.00    -0.141 N 
ATOM      6  H2  UNL     1       4.964   7.772  25.505  1.00  0.00     0.189 HD
HETATM    7  C5  UNL     1       5.597   6.672  24.027  1.00  0.00     0.685 C 
HETATM    8  N3  UNL     1       6.516   5.708  23.536  1.00  0.00    -0.166 N 
ATOM      9  H3  UNL     1       6.276   4.724  23.660  1.00  0.00     0.186 HD
HETATM   10  N5  UNL     1       4.570   7.215  23.200  1.00  0.00    -0.218 N 
ATOM     11  H5  UNL     1       4.354   6.763  22.312  1.00  0.00     0.178 HD
ENDROOT
BRANCH   8  12
HETATM   12  C6  UNL     1       7.739   6.001  22.890  1.00  0.00     0.186 C 
HETATM   13  S1  UNL     1       8.120   7.529  22.541  1.00  0.00    -0.040 SA
BRANCH  12  14
HETATM   14  N4  UNL     1       8.610   4.955  22.533  1.00  0.00    -0.366 N 
ATOM     15  H4  UNL     1       8.883   4.862  21.555  1.00  0.00     0.161 HD
BRANCH  14  16
HETATM   16  C7  UNL     1       9.133   4.010  23.483  1.00  0.00     0.126 C 
BRANCH  16  17
HETATM   17  C8  UNL     1       9.676   2.745  22.877  1.00  0.00     0.058 C 
BRANCH  17  18
HETATM   18  C9  UNL     1       9.171   1.595  23.697  1.00  0.00    -0.057 A 
HETATM   19  C10 UNL     1       9.039   0.335  23.144  1.00  0.00     0.010 A 
HETATM   20  C11 UNL     1       8.575  -0.746  23.865  1.00  0.00     0.043 A 
HETATM   21  C12 UNL     1       8.222  -0.572  25.200  1.00  0.00     0.116 A 
HETATM   22  F1  UNL     1       7.761  -1.586  25.961  1.00  0.00    -0.206 F 
HETATM   23  C13 UNL     1       8.343   0.670  25.779  1.00  0.00     0.043 A 
HETATM   24  C14 UNL     1       8.811   1.724  25.028  1.00  0.00     0.010 A 
ENDBRANCH  17  18
ENDBRANCH  16  17
ENDBRANCH  14  16
ENDBRANCH  12  14
ENDBRANCH   8  12
BRANCH  10  25
HETATM   25  C15 UNL     1       3.831   8.387  23.594  1.00  0.00     0.036 C 
HETATM   26  C16 UNL     1       2.883   8.077  24.744  1.00  0.00     0.038 C 
HETATM   27  C17 UNL     1       4.738   9.546  23.972  1.00  0.00     0.038 C 
HETATM   28  C18 UNL     1       2.967   8.853  22.444  1.00  0.00     0.038 C 
ENDBRANCH  10  25
BRANCH   1  29
HETATM   29  C2  UNL     1       7.369   5.362  28.166  1.00  0.00     0.078 C 
HETATM   30  C1  UNL     1       7.983   4.002  27.938  1.00  0.00     0.032 C 
HETATM   31  C3  UNL     1       6.812   5.492  29.588  1.00  0.00     0.032 C 
ENDBRANCH   1  29
TORSDOF 7
ENDMDL
MODEL 2
REMARK VINA RESULT: -7.009944135      1.356      4.285
REMARK  7 active torsions:
REMARK  status: ('A' for Active; 'I' for Inactive)
REMARK    1  A    between atoms: C2_2  and  N1_4 
REMARK       I    between atoms: N1_4  and  C4_6 
REMARK       I    between atoms: C4_6  and  N2_8 
REMARK       I    between atoms: C5_10  and  N3_11 
REMARK       I    between atoms: C5_10  and  N5_26 
REMARK    2  A    between atoms: N3_11  and  C6_13 
REMARK    3  A    between atoms: C6_13  and  N4_15 
REMARK    4  A    between atoms: N4_15  and  C7_17 
REMARK    5  A    between atoms: C7_17  and  C8_18 
REMARK    6  A    between atoms: C8_18  and  C9_19 
REMARK    7  A    between atoms: N5_26  and  C15_28 
ROOT
HETATM    1  N1  UNL     1       4.722   7.597  25.517  1.00  0.00    -0.339 N 
ATOM      2  H1  UNL     1       4.933   8.373  26.144  1.00  0.00     0.164 HD
HETATM    3  C4  UNL     1       5.531   6.433  25.548  1.00  0.00     0.334 C 
HETATM    4  O1  UNL     1       5.226   5.496  24.748  1.00  0.00    -0.246 OA
HETATM    5  N2  UNL     1       6.638   6.235  26.386  1.00  0.00    -0.141 N 
ATOM      6  H2  UNL     1       6.434   5.861  27.313  1.00  0.00     0.189 HD
HETATM    7  C5  UNL     1       7.864   6.462  26.135  1.00  0.00     0.685 C 
HETATM    8  N3  UNL     1       8.265   6.986  24.877  1.00  0.00    -0.166 N 
ATOM      9  H3  UNL     1       8.274   8.000  24.772  1.00  0.00     0.186 HD
HETATM   10  N5  UNL     1       8.812   6.177  27.161  1.00  0.00    -0.218 N 
ATOM     11  H5  UNL     1       9.762   6.541  27.080  1.00  0.00     0.178 HD
ENDROOT
BRANCH   8  12
HETATM   12  C6  UNL     1       8.652   6.214  23.758  1.00  0.00     0.186 C 
HETATM   13  S1  UNL     1       7.744   6.213  22.425  1.00  0.00    -0.040 SA
BRANCH  12  14
HETATM   14  N4  UNL     1       9.819   5.430  23.820  1.00  0.00    -0.366 N 
ATOM     15  H4  UNL     1      10.703   5.850  23.533  1.00  0.00     0.161 HD
BRANCH  14  16
HETATM   16  C7  UNL     1       9.825   4.064  24.269  1.00  0.00     0.126 C 
BRANCH  16  17
HETATM   17  C8  UNL     1       9.590   3.046  23.187  1.00  0.00     0.058 C 
BRANCH  17  18
HETATM   18  C9  UNL     1       9.127   1.780  23.846  1.00  0.00    -0.057 A 
HETATM   19  C10 UNL     1       9.102   0.586  23.150  1.00  0.00     0.010 A 
HETATM   20  C11 UNL     1       8.680  -0.597  23.720  1.00  0.00     0.043 A 
HETATM   21  C12 UNL     1       8.260  -0.600  25.047  1.00  0.00     0.116 A 
HETATM   22  F1  UNL     1       7.834  -1.721  25.665  1.00  0.00    -0.206 F 
HETATM   23  C13 UNL     1       8.273   0.573  25.767  1.00  0.00     0.043 A 
HETATM   24  C14 UNL     1       8.702   1.732  25.164  1.00  0.00     0.010 A 
ENDBRANCH  17  18
ENDBRANCH  16  17
ENDBRANCH  14  16
ENDBRANCH  12  14
ENDBRANCH   8  12
BRANCH  10  25
HETATM   25  C15 UNL     1       8.457   5.385  28.311  1.00  0.00     0.036 C 
HETATM   26  C16 UNL     1       7.471   6.127  29.204  1.00  0.00     0.038 C 
HETATM   27  C17 UNL     1       7.886   4.030  27.931  1.00  0.00     0.038 C 
HETATM   28  C18 UNL     1       9.686   5.133  29.154  1.00  0.00     0.038 C 
ENDBRANCH  10  25
BRANCH   1  29
HETATM   29  C2  UNL     1       3.605   7.696  24.610  1.00  0.00     0.078 C 
HETATM   30  C1  UNL     1       3.963   8.441  23.347  1.00  0.00     0.032 C 
HETATM   31  C3  UNL     1       2.388   8.322  25.301  1.00  0.00     0.032 C 
ENDBRANCH   1  29
TORSDOF 7
ENDMDL
MODEL 3
REMARK VINA RESULT: -6.920379535      2.314      3.712
REMARK  7 active torsions:
REMARK  status: ('A' for Active; 'I' for Inactive)
REMARK    1  A    between atoms: C2_2  and  N1_4 
REMARK       I    between atoms: N1_4  and  C4_6 
REMARK       I    between atoms: C4_6  and  N2_8 
REMARK       I    between atoms: C5_10  and  N3_11 
REMARK       I    between atoms: C5_10  and  N5_26 
REMARK    2  A    between atoms: N3_11  and  C6_13 
REMARK    3  A    between atoms: C6_13  and  N4_15 
REMARK    4  A    between atoms: N4_15  and  C7_17 
REMARK    5  A    between atoms: C7_17  and  C8_18 
REMARK    6  A    between atoms: C8_18  and  C9_19 
REMARK    7  A    between atoms: N5_26  and  C15_28 
ROOT
HETATM    1  N1  UNL     1       8.877   8.688  23.127  1.00  0.00    -0.339 N 
ATOM      2  H1  UNL     1       8.932   9.518  23.717  1.00  0.00     0.164 HD
HETATM    3  C4  UNL     1       7.608   8.170  22.763  1.00  0.00     0.334 C 
HETATM    4  O1  UNL     1       7.595   7.136  22.027  1.00  0.00    -0.246 OA
HETATM    5  N2  UNL     1       6.371   8.704  23.153  1.00  0.00    -0.141 N 
ATOM      6  H2  UNL     1       6.001   9.448  22.561  1.00  0.00     0.189 HD
HETATM    7  C5  UNL     1       5.652   8.376  24.150  1.00  0.00     0.685 C 
HETATM    8  N3  UNL     1       6.070   7.354  25.044  1.00  0.00    -0.166 N 
ATOM      9  H3  UNL     1       6.661   7.629  25.828  1.00  0.00     0.186 HD
HETATM   10  N5  UNL     1       4.423   9.075  24.336  1.00  0.00    -0.218 N 
ATOM     11  H5  UNL     1       3.932   8.994  25.226  1.00  0.00     0.178 HD
ENDROOT
BRANCH   8  12
HETATM   12  C6  UNL     1       5.732   5.986  24.932  1.00  0.00     0.186 C 
HETATM   13  S1  UNL     1       4.239   5.556  24.504  1.00  0.00    -0.040 SA
BRANCH  12  14
HETATM   14  N4  UNL     1       6.698   5.003  25.218  1.00  0.00    -0.366 N 
ATOM     15  H4  UNL     1       6.758   4.643  26.171  1.00  0.00     0.161 HD
BRANCH  14  16
HETATM   16  C7  UNL     1       7.603   4.480  24.230  1.00  0.00     0.126 C 
BRANCH  16  17
HETATM   17  C8  UNL     1       8.895   3.945  24.783  1.00  0.00     0.058 C 
BRANCH  17  18
HETATM   18  C9  UNL     1       8.842   2.448  24.693  1.00  0.00    -0.057 A 
HETATM   19  C10 UNL     1       8.414   1.688  25.765  1.00  0.00     0.010 A 
HETATM   20  C11 UNL     1       8.355   0.311  25.722  1.00  0.00     0.043 A 
HETATM   21  C12 UNL     1       8.741  -0.350  24.559  1.00  0.00     0.116 A 
HETATM   22  F1  UNL     1       8.708  -1.694  24.450  1.00  0.00    -0.206 F 
HETATM   23  C13 UNL     1       9.172   0.379  23.474  1.00  0.00     0.043 A 
HETATM   24  C14 UNL     1       9.215   1.751  23.556  1.00  0.00     0.010 A 
ENDBRANCH  17  18
ENDBRANCH  16  17
ENDBRANCH  14  16
ENDBRANCH  12  14
ENDBRANCH   8  12
BRANCH  10  25
HETATM   25  C15 UNL     1       3.860   9.893  23.292  1.00  0.00     0.036 C 
HETATM   26  C16 UNL     1       4.932  10.746  22.627  1.00  0.00     0.038 C 
HETATM   27  C17 UNL     1       3.129   9.074  22.242  1.00  0.00     0.038 C 
HETATM   28  C18 UNL     1       2.858  10.856  23.886  1.00  0.00     0.038 C 
ENDBRANCH  10  25
BRANCH   1  29
HETATM   29  C2  UNL     1      10.091   8.056  22.671  1.00  0.00     0.078 C 
HETATM   30  C1  UNL     1      10.612   7.044  23.663  1.00  0.00     0.032 C 
HETATM   31  C3  UNL     1      11.159   9.099  22.324  1.00  0.00     0.032 C 
ENDBRANCH   1  29
TORSDOF 7
ENDMDL
MODEL 4
REMARK VINA RESULT: -6.831401439      2.575      4.323
REMARK  7 active torsions:
REMARK  status: ('A' for Active; 'I' for Inactive)
REMARK    1  A    between atoms: C2_2  and  N1_4 
REMARK       I    between atoms: N1_4  and  C4_6 
REMARK       I    between atoms: C4_6  and  N2_8 
REMARK       I    between atoms: C5_10  and  N3_11 
REMARK       I    between atoms: C5_10  and  N5_26 
REMARK    2  A    between atoms: N3_11  and  C6_13 
REMARK    3  A    between atoms: C6_13  and  N4_15 
REMARK    4  A    between atoms: N4_15  and  C7_17 
REMARK    5  A    between atoms: C7_17  and  C8_18 
REMARK    6  A    between atoms: C8_18  and  C9_19 
REMARK    7  A    between atoms: N5_26  and  C15_28 
ROOT
HETATM    1  N1  UNL     1       7.375   9.663  22.660  1.00  0.00    -0.339 N 
ATOM      2  H1  UNL     1       7.018  10.343  23.331  1.00  0.00     0.164 HD
HETATM    3  C4  UNL     1       7.127   8.282  22.862  1.00  0.00     0.334 C 
HETATM    4  O1  UNL     1       7.593   7.479  21.997  1.00  0.00    -0.246 OA
HETATM    5  N2  UNL     1       6.413   7.734  23.937  1.00  0.00    -0.141 N 
ATOM      6  H2  UNL     1       5.402   7.682  23.821  1.00  0.00     0.189 HD
HETATM    7  C5  UNL     1       6.870   7.292  25.040  1.00  0.00     0.685 C 
HETATM    8  N3  UNL     1       8.263   7.317  25.313  1.00  0.00    -0.166 N 
ATOM      9  H3  UNL     1       8.643   8.163  25.738  1.00  0.00     0.186 HD
HETATM   10  N5  UNL     1       5.932   6.781  25.985  1.00  0.00    -0.218 N 
ATOM     11  H5  UNL     1       6.229   6.621  26.947  1.00  0.00     0.178 HD
ENDROOT
BRANCH   8  12
HETATM   12  C6  UNL     1       9.165   6.263  25.044  1.00  0.00     0.186 C 
HETATM   13  S1  UNL     1      10.262   6.420  23.872  1.00  0.00    -0.040 SA
BRANCH  12  14
HETATM   14  N4  UNL     1       9.089   5.070  25.787  1.00  0.00    -0.366 N 
ATOM     15  H4  UNL     1       9.484   5.057  26.727  1.00  0.00     0.161 HD
BRANCH  14  16
HETATM   16  C7  UNL     1       8.478   3.869  25.283  1.00  0.00     0.126 C 
BRANCH  16  17
HETATM   17  C8  UNL     1       8.718   2.644  26.122  1.00  0.00     0.058 C 
BRANCH  17  18
HETATM   18  C9  UNL     1       8.719   1.457  25.204  1.00  0.00    -0.057 A 
HETATM   19  C10 UNL     1       8.343   0.208  25.660  1.00  0.00     0.010 A 
HETATM   20  C11 UNL     1       8.334  -0.907  24.847  1.00  0.00     0.043 A 
HETATM   21  C12 UNL     1       8.718  -0.780  23.516  1.00  0.00     0.116 A 
HETATM   22  F1  UNL     1       8.733  -1.829  22.667  1.00  0.00    -0.206 F 
HETATM   23  C13 UNL     1       9.097   0.451  23.031  1.00  0.00     0.043 A 
HETATM   24  C14 UNL     1       9.092   1.540  23.872  1.00  0.00     0.010 A 
ENDBRANCH  17  18
ENDBRANCH  16  17
ENDBRANCH  14  16
ENDBRANCH  12  14
ENDBRANCH   8  12
BRANCH  10  25
HETATM   25  C15 UNL     1       4.573   6.485  25.608  1.00  0.00     0.036 C 
HETATM   26  C16 UNL     1       3.815   7.756  25.250  1.00  0.00     0.038 C 
HETATM   27  C17 UNL     1       4.491   5.495  24.458  1.00  0.00     0.038 C 
HETATM   28  C18 UNL     1       3.843   5.871  26.780  1.00  0.00     0.038 C 
ENDBRANCH  10  25
BRANCH   1  29
HETATM   29  C2  UNL     1       8.127  10.119  21.516  1.00  0.00     0.078 C 
HETATM   30  C1  UNL     1       9.469  10.689  21.908  1.00  0.00     0.032 C 
HETATM   31  C3  UNL     1       7.315  11.120  20.687  1.00  0.00     0.032 C 
ENDBRANCH   1  29
TORSDOF 7
ENDMDL
MODEL 5
REMARK VINA RESULT: -6.780730670      2.346      4.932
REMARK  7 active torsions:
REMARK  status: ('A' for Active; 'I' for Inactive)
REMARK    1  A    between atoms: C2_2  and  N1_4 
REMARK       I    between atoms: N1_4  and  C4_6 
REMARK       I    between atoms: C4_6  and  N2_8 
REMARK       I    between atoms: C5_10  and  N3_11 
REMARK       I    between atoms: C5_10  and  N5_26 
REMARK    2  A    between atoms: N3_11  and  C6_13 
REMARK    3  A    between atoms: C6_13  and  N4_15 
REMARK    4  A    between atoms: N4_15  and  C7_17 
REMARK    5  A    between atoms: C7_17  and  C8_18 
REMARK    6  A    between atoms: C8_18  and  C9_19 
REMARK    7  A    between atoms: N5_26  and  C15_28 
ROOT
HETATM    1  N1  UNL     1       5.186   9.749  22.572  1.00  0.00    -0.339 N 
ATOM      2  H1  UNL     1       5.541   9.797  21.618  1.00  0.00     0.164 HD
HETATM    3  C4  UNL     1       5.969   9.133  23.581  1.00  0.00     0.334 C 
HETATM    4  O1  UNL     1       5.481   9.101  24.752  1.00  0.00    -0.246 OA
HETATM    5  N2  UNL     1       7.233   8.557  23.389  1.00  0.00    -0.141 N 
ATOM      6  H2  UNL     1       8.027   9.192  23.457  1.00  0.00     0.189 HD
HETATM    7  C5  UNL     1       7.512   7.340  23.142  1.00  0.00     0.685 C 
HETATM    8  N3  UNL     1       6.485   6.367  23.023  1.00  0.00    -0.166 N 
ATOM      9  H3  UNL     1       6.066   6.237  22.103  1.00  0.00     0.186 HD
HETATM   10  N5  UNL     1       8.888   6.998  22.986  1.00  0.00    -0.218 N 
ATOM     11  H5  UNL     1       9.135   6.095  22.581  1.00  0.00     0.178 HD
ENDROOT
BRANCH   8  12
HETATM   12  C6  UNL     1       5.997   5.564  24.079  1.00  0.00     0.186 C 
HETATM   13  S1  UNL     1       4.478   5.741  24.592  1.00  0.00    -0.040 SA
BRANCH  12  14
HETATM   14  N4  UNL     1       6.847   4.625  24.694  1.00  0.00    -0.366 N 
ATOM     15  H4  UNL     1       6.844   3.666  24.346  1.00  0.00     0.161 HD
BRANCH  14  16
HETATM   16  C7  UNL     1       7.719   4.954  25.788  1.00  0.00     0.126 C 
BRANCH  16  17
HETATM   17  C8  UNL     1       9.149   4.525  25.603  1.00  0.00     0.058 C 
BRANCH  17  18
HETATM   18  C9  UNL     1       9.140   3.078  25.206  1.00  0.00    -0.057 A 
HETATM   19  C10 UNL     1       8.649   2.111  26.063  1.00  0.00     0.010 A 
HETATM   20  C11 UNL     1       8.628   0.771  25.735  1.00  0.00     0.043 A 
HETATM   21  C12 UNL     1       9.119   0.366  24.498  1.00  0.00     0.116 A 
HETATM   22  F1  UNL     1       9.129  -0.928  24.115  1.00  0.00    -0.206 F 
HETATM   23  C13 UNL     1       9.615   1.305  23.622  1.00  0.00     0.043 A 
HETATM   24  C14 UNL     1       9.617   2.632  23.985  1.00  0.00     0.010 A 
ENDBRANCH  17  18
ENDBRANCH  16  17
ENDBRANCH  14  16
ENDBRANCH  12  14
ENDBRANCH   8  12
BRANCH  10  25
HETATM   25  C15 UNL     1       9.936   7.901  23.388  1.00  0.00     0.036 C 
HETATM   26  C16 UNL     1       9.989   9.119  22.476  1.00  0.00     0.038 C 
HETATM   27  C17 UNL     1       9.798   8.346  24.834  1.00  0.00     0.038 C 
HETATM   28  C18 UNL     1      11.276   7.214  23.257  1.00  0.00     0.038 C 
ENDBRANCH  10  25
BRANCH   1  29
HETATM   29  C2  UNL     1       3.893  10.310  22.880  1.00  0.00     0.078 C 
HETATM   30  C1  UNL     1       2.775   9.322  22.648  1.00  0.00     0.032 C 
HETATM   31  C3  UNL     1       3.658  11.611  22.105  1.00  0.00     0.032 C 
ENDBRANCH   1  29
TORSDOF 7
ENDMDL
