MODEL 1
REMARK VINA RESULT: -8.322886971      0.000      0.000
REMARK  4 active torsions:
REMARK  status: ('A' for Active; 'I' for Inactive)
REMARK    1  A    between atoms: C2_2  and  C3_3 
REMARK    2  A    between atoms: C6_8  and  C7_9 
REMARK    3  A    between atoms: C7_9  and  N2_10 
REMARK       I    between atoms: N2_10  and  C8_12 
REMARK       I    between atoms: C8_12  and  N3_14 
REMARK    4  A    between atoms: N3_14  and  C9_16 
ROOT
HETATM    1  C9  UNL     1      14.839  -4.039  29.551  1.00  0.00     0.132 A 
HETATM    2  N4  UNL     1      15.332  -2.854  29.903  1.00  0.00    -0.285 N 
ATOM      3  H4  UNL     1      15.531  -2.097  29.249  1.00  0.00     0.188 HD
HETATM    4  N5  UNL     1      15.532  -2.781  31.216  1.00  0.00    -0.302 N 
ATOM      5  H5  UNL     1      15.903  -1.971  31.714  1.00  0.00     0.186 HD
HETATM    6  C10 UNL     1      15.162  -3.957  31.789  1.00  0.00     0.044 A 
HETATM    7  C11 UNL     1      14.729  -4.745  30.751  1.00  0.00     0.013 A 
HETATM    8  C12 UNL     1      14.258  -6.112  31.102  1.00  0.00     0.053 C 
HETATM    9  C13 UNL     1      13.405  -6.004  32.348  1.00  0.00    -0.043 C 
HETATM   10  C14 UNL     1      12.174  -5.188  32.063  1.00  0.00     0.015 C 
HETATM   11  C15 UNL     1      12.953  -7.406  32.704  1.00  0.00     0.015 C 
HETATM   12  C16 UNL     1      14.141  -5.440  33.509  1.00  0.00     0.024 C 
HETATM   13  C17 UNL     1      15.168  -4.414  33.214  1.00  0.00    -0.002 C 
HETATM   14  C18 UNL     1      16.533  -5.010  33.492  1.00  0.00     0.021 C 
HETATM   15  C19 UNL     1      15.053  -3.189  34.099  1.00  0.00     0.021 C 
ENDROOT
BRANCH   1  16
HETATM   16  N3  UNL     1      14.494  -4.534  28.410  1.00  0.00    -0.293 N 
HETATM   17  C8  UNL     1      15.255  -4.585  27.256  1.00  0.00     0.322 C 
HETATM   18  N2  UNL     1      14.690  -5.016  26.026  1.00  0.00    -0.339 N 
HETATM   19  O1  UNL     1      16.459  -4.256  27.262  1.00  0.00    -0.247 OA
ATOM     20  H2  UNL     1      13.713  -5.305  25.983  1.00  0.00     0.164 HD
ATOM     21  H3  UNL     1      13.557  -4.931  28.353  1.00  0.00     0.172 HD
BRANCH  18  22
HETATM   22  C7  UNL     1      15.515  -5.041  24.831  1.00  0.00     0.165 C 
BRANCH  22  23
HETATM   23  C6  UNL     1      15.962  -6.441  24.614  1.00  0.00    -0.017 A 
HETATM   24  C3  UNL     1      15.481  -7.218  23.600  1.00  0.00     0.016 A 
HETATM   25  N1  UNL     1      16.105  -8.404  23.652  1.00  0.00    -0.369 N 
HETATM   26  C4  UNL     1      16.966  -8.400  24.672  1.00  0.00     0.089 A 
ATOM     27  H1  UNL     1      15.946  -9.185  23.014  1.00  0.00     0.165 HD
HETATM   28  C5  UNL     1      16.908  -7.185  25.303  1.00  0.00     0.027 A 
BRANCH  24  29
HETATM   29  C2  UNL     1      14.426  -6.800  22.605  1.00  0.00     0.053 C 
HETATM   30  C1  UNL     1      13.047  -6.864  23.169  1.00  0.00     0.011 C 
ENDBRANCH  24  29
ENDBRANCH  22  23
ENDBRANCH  18  22
ENDBRANCH   1  16
TORSDOF 4
ENDMDL
MODEL 2
REMARK VINA RESULT: -7.834204080      1.373      1.684
REMARK  4 active torsions:
REMARK  status: ('A' for Active; 'I' for Inactive)
REMARK    1  A    between atoms: C2_2  and  C3_3 
REMARK    2  A    between atoms: C6_8  and  C7_9 
REMARK    3  A    between atoms: C7_9  and  N2_10 
REMARK       I    between atoms: N2_10  and  C8_12 
REMARK       I    between atoms: C8_12  and  N3_14 
REMARK    4  A    between atoms: N3_14  and  C9_16 
ROOT
HETATM    1  C9  UNL     1      14.616  -4.780  30.567  1.00  0.00     0.132 A 
HETATM    2  N4  UNL     1      14.686  -3.741  31.396  1.00  0.00    -0.285 N 
ATOM      3  H4  UNL     1      14.468  -2.780  31.133  1.00  0.00     0.188 HD
HETATM    4  N5  UNL     1      15.075  -4.115  32.612  1.00  0.00    -0.302 N 
ATOM      5  H5  UNL     1      15.200  -3.493  33.410  1.00  0.00     0.186 HD
HETATM    6  C10 UNL     1      15.280  -5.459  32.621  1.00  0.00     0.044 A 
HETATM    7  C11 UNL     1      14.994  -5.878  31.344  1.00  0.00     0.013 A 
HETATM    8  C12 UNL     1      15.139  -7.332  31.070  1.00  0.00     0.053 C 
HETATM    9  C13 UNL     1      14.544  -8.087  32.240  1.00  0.00    -0.043 C 
HETATM   10  C14 UNL     1      13.068  -7.814  32.336  1.00  0.00     0.015 C 
HETATM   11  C15 UNL     1      14.720  -9.565  31.955  1.00  0.00     0.015 C 
HETATM   12  C16 UNL     1      15.211  -7.776  33.531  1.00  0.00     0.024 C 
HETATM   13  C17 UNL     1      15.710  -6.392  33.709  1.00  0.00    -0.002 C 
HETATM   14  C18 UNL     1      17.225  -6.426  33.702  1.00  0.00     0.021 C 
HETATM   15  C19 UNL     1      15.307  -5.783  35.036  1.00  0.00     0.021 C 
ENDROOT
BRANCH   1  16
HETATM   16  N3  UNL     1      14.283  -4.880  29.324  1.00  0.00    -0.293 N 
HETATM   17  C8  UNL     1      15.108  -4.734  28.223  1.00  0.00     0.322 C 
HETATM   18  N2  UNL     1      14.573  -4.714  26.907  1.00  0.00    -0.339 N 
HETATM   19  O1  UNL     1      16.343  -4.617  28.353  1.00  0.00    -0.247 OA
ATOM     20  H2  UNL     1      13.570  -4.819  26.758  1.00  0.00     0.164 HD
ATOM     21  H3  UNL     1      13.304  -5.090  29.132  1.00  0.00     0.172 HD
BRANCH  18  22
HETATM   22  C7  UNL     1      15.468  -4.542  25.776  1.00  0.00     0.165 C 
BRANCH  22  23
HETATM   23  C6  UNL     1      15.841  -5.892  25.280  1.00  0.00    -0.017 A 
HETATM   24  C3  UNL     1      15.044  -6.613  24.438  1.00  0.00     0.016 A 
HETATM   25  N1  UNL     1      15.675  -7.760  24.148  1.00  0.00    -0.369 N 
HETATM   26  C4  UNL     1      16.849  -7.786  24.784  1.00  0.00     0.089 A 
ATOM     27  H1  UNL     1      15.316  -8.496  23.539  1.00  0.00     0.165 HD
HETATM   28  C5  UNL     1      16.993  -6.630  25.507  1.00  0.00     0.027 A 
BRANCH  24  29
HETATM   29  C2  UNL     1      13.688  -6.181  23.935  1.00  0.00     0.053 C 
HETATM   30  C1  UNL     1      13.269  -6.917  22.708  1.00  0.00     0.011 C 
ENDBRANCH  24  29
ENDBRANCH  22  23
ENDBRANCH  18  22
ENDBRANCH   1  16
TORSDOF 4
ENDMDL
MODEL 3
REMARK VINA RESULT: -7.763395542      2.214      2.781
REMARK  4 active torsions:
REMARK  status: ('A' for Active; 'I' for Inactive)
REMARK    1  A    between atoms: C2_2  and  C3_3 
REMARK    2  A    between atoms: C6_8  and  C7_9 
REMARK    3  A    between atoms: C7_9  and  N2_10 
REMARK       I    between atoms: N2_10  and  C8_12 
REMARK       I    between atoms: C8_12  and  N3_14 
REMARK    4  A    between atoms: N3_14  and  C9_16 
ROOT
HETATM    1  C9  UNL     1      16.449  -3.124  29.290  1.00  0.00     0.132 A 
HETATM    2  N4  UNL     1      15.960  -2.330  30.240  1.00  0.00    -0.285 N 
ATOM      3  H4  UNL     1      15.281  -1.587  30.076  1.00  0.00     0.188 HD
HETATM    4  N5  UNL     1      16.468  -2.629  31.433  1.00  0.00    -0.302 N 
ATOM      5  H5  UNL     1      16.242  -2.156  32.308  1.00  0.00     0.186 HD
HETATM    6  C10 UNL     1      17.337  -3.666  31.300  1.00  0.00     0.044 A 
HETATM    7  C11 UNL     1      17.327  -3.978  29.962  1.00  0.00     0.013 A 
HETATM    8  C12 UNL     1      18.206  -5.098  29.531  1.00  0.00     0.053 C 
HETATM    9  C13 UNL     1      18.068  -6.213  30.545  1.00  0.00    -0.043 C 
HETATM   10  C14 UNL     1      16.662  -6.746  30.541  1.00  0.00     0.015 C 
HETATM   11  C15 UNL     1      18.985  -7.336  30.103  1.00  0.00     0.015 C 
HETATM   12  C16 UNL     1      18.459  -5.802  31.918  1.00  0.00     0.024 C 
HETATM   13  C17 UNL     1      18.171  -4.400  32.303  1.00  0.00    -0.002 C 
HETATM   14  C18 UNL     1      19.486  -3.657  32.427  1.00  0.00     0.021 C 
HETATM   15  C19 UNL     1      17.491  -4.284  33.652  1.00  0.00     0.021 C 
ENDROOT
BRANCH   1  16
HETATM   16  N3  UNL     1      16.234  -3.195  28.020  1.00  0.00    -0.293 N 
HETATM   17  C8  UNL     1      15.448  -4.119  27.355  1.00  0.00     0.322 C 
HETATM   18  N2  UNL     1      15.429  -4.175  25.936  1.00  0.00    -0.339 N 
HETATM   19  O1  UNL     1      14.734  -4.928  27.981  1.00  0.00    -0.247 OA
ATOM     20  H2  UNL     1      15.990  -3.523  25.388  1.00  0.00     0.164 HD
ATOM     21  H3  UNL     1      16.695  -2.492  27.442  1.00  0.00     0.172 HD
BRANCH  18  22
HETATM   22  C7  UNL     1      14.605  -5.169  25.272  1.00  0.00     0.165 C 
BRANCH  22  23
HETATM   23  C6  UNL     1      15.479  -6.308  24.891  1.00  0.00    -0.017 A 
HETATM   24  C3  UNL     1      15.365  -6.955  23.694  1.00  0.00     0.016 A 
HETATM   25  N1  UNL     1      16.314  -7.901  23.640  1.00  0.00    -0.369 N 
HETATM   26  C4  UNL     1      17.025  -7.871  24.770  1.00  0.00     0.089 A 
ATOM     27  H1  UNL     1      16.468  -8.541  22.861  1.00  0.00     0.165 HD
HETATM   28  C5  UNL     1      16.533  -6.884  25.584  1.00  0.00     0.027 A 
BRANCH  24  29
HETATM   29  C2  UNL     1      14.339  -6.650  22.630  1.00  0.00     0.053 C 
HETATM   30  C1  UNL     1      12.942  -6.878  23.098  1.00  0.00     0.011 C 
ENDBRANCH  24  29
ENDBRANCH  22  23
ENDBRANCH  18  22
ENDBRANCH   1  16
TORSDOF 4
ENDMDL
MODEL 4
REMARK VINA RESULT: -7.560521378      4.090      5.710
REMARK  4 active torsions:
REMARK  status: ('A' for Active; 'I' for Inactive)
REMARK    1  A    between atoms: C2_2  and  C3_3 
REMARK    2  A    between atoms: C6_8  and  C7_9 
REMARK    3  A    between atoms: C7_9  and  N2_10 
REMARK       I    between atoms: N2_10  and  C8_12 
REMARK       I    between atoms: C8_12  and  N3_14 
REMARK    4  A    between atoms: N3_14  and  C9_16 
ROOT
HETATM    1  C9  UNL     1      15.549  -1.100  31.277  1.00  0.00     0.132 A 
HETATM    2  N4  UNL     1      14.904  -1.605  32.326  1.00  0.00    -0.285 N 
ATOM      3  H4  UNL     1      14.700  -2.597  32.452  1.00  0.00     0.188 HD
HETATM    4  N5  UNL     1      14.558  -0.653  33.189  1.00  0.00    -0.302 N 
ATOM      5  H5  UNL     1      14.056  -0.803  34.064  1.00  0.00     0.186 HD
HETATM    6  C10 UNL     1      14.982   0.549  32.719  1.00  0.00     0.044 A 
HETATM    7  C11 UNL     1      15.601   0.274  31.524  1.00  0.00     0.013 A 
HETATM    8  C12 UNL     1      16.168   1.433  30.784  1.00  0.00     0.053 C 
HETATM    9  C13 UNL     1      16.868   2.327  31.784  1.00  0.00    -0.043 C 
HETATM   10  C14 UNL     1      18.032   1.603  32.401  1.00  0.00     0.015 C 
HETATM   11  C15 UNL     1      17.418   3.512  31.017  1.00  0.00     0.015 C 
HETATM   12  C16 UNL     1      15.958   2.837  32.844  1.00  0.00     0.024 C 
HETATM   13  C17 UNL     1      14.870   1.932  33.281  1.00  0.00    -0.002 C 
HETATM   14  C18 UNL     1      13.550   2.506  32.807  1.00  0.00     0.021 C 
HETATM   15  C19 UNL     1      14.764   1.818  34.788  1.00  0.00     0.021 C 
ENDROOT
BRANCH   1  16
HETATM   16  N3  UNL     1      16.062  -1.645  30.226  1.00  0.00    -0.293 N 
HETATM   17  C8  UNL     1      15.579  -2.738  29.530  1.00  0.00     0.322 C 
HETATM   18  N2  UNL     1      16.335  -3.330  28.483  1.00  0.00    -0.339 N 
HETATM   19  O1  UNL     1      14.468  -3.237  29.802  1.00  0.00    -0.247 OA
ATOM     20  H2  UNL     1      17.242  -2.945  28.223  1.00  0.00     0.164 HD
ATOM     21  H3  UNL     1      16.919  -1.222  29.869  1.00  0.00     0.172 HD
BRANCH  18  22
HETATM   22  C7  UNL     1      15.803  -4.488  27.785  1.00  0.00     0.165 C 
BRANCH  22  23
HETATM   23  C6  UNL     1      16.738  -5.621  28.002  1.00  0.00    -0.017 A 
HETATM   24  C3  UNL     1      16.962  -6.581  27.058  1.00  0.00     0.016 A 
HETATM   25  N1  UNL     1      17.878  -7.435  27.540  1.00  0.00    -0.369 N 
HETATM   26  C4  UNL     1      18.239  -7.041  28.764  1.00  0.00     0.089 A 
ATOM     27  H1  UNL     1      18.240  -8.253  27.051  1.00  0.00     0.165 HD
HETATM   28  C5  UNL     1      17.546  -5.905  29.093  1.00  0.00     0.027 A 
BRANCH  24  29
HETATM   29  C2  UNL     1      16.283  -6.658  25.713  1.00  0.00     0.053 C 
HETATM   30  C1  UNL     1      16.822  -7.755  24.858  1.00  0.00     0.011 C 
ENDBRANCH  24  29
ENDBRANCH  22  23
ENDBRANCH  18  22
ENDBRANCH   1  16
TORSDOF 4
ENDMDL
MODEL 5
REMARK VINA RESULT: -7.508374437      1.144      2.050
REMARK  4 active torsions:
REMARK  status: ('A' for Active; 'I' for Inactive)
REMARK    1  A    between atoms: C2_2  and  C3_3 
REMARK    2  A    between atoms: C6_8  and  C7_9 
REMARK    3  A    between atoms: C7_9  and  N2_10 
REMARK       I    between atoms: N2_10  and  C8_12 
REMARK       I    between atoms: C8_12  and  N3_14 
REMARK    4  A    between atoms: N3_14  and  C9_16 
ROOT
HETATM    1  C9  UNL     1      14.550  -4.032  30.368  1.00  0.00     0.132 A 
HETATM    2  N4  UNL     1      14.971  -2.816  30.710  1.00  0.00    -0.285 N 
ATOM      3  H4  UNL     1      15.223  -2.086  30.043  1.00  0.00     0.188 HD
HETATM    4  N5  UNL     1      15.022  -2.673  32.032  1.00  0.00    -0.302 N 
ATOM      5  H5  UNL     1      15.315  -1.829  32.524  1.00  0.00     0.186 HD
HETATM    6  C10 UNL     1      14.620  -3.830  32.621  1.00  0.00     0.044 A 
HETATM    7  C11 UNL     1      14.325  -4.681  31.584  1.00  0.00     0.013 A 
HETATM    8  C12 UNL     1      13.852  -6.043  31.952  1.00  0.00     0.053 C 
HETATM    9  C13 UNL     1      12.863  -5.900  33.089  1.00  0.00    -0.043 C 
HETATM   10  C14 UNL     1      11.652  -5.137  32.629  1.00  0.00     0.015 C 
HETATM   11  C15 UNL     1      12.410  -7.296  33.466  1.00  0.00     0.015 C 
HETATM   12  C16 UNL     1      13.451  -5.258  34.293  1.00  0.00     0.024 C 
HETATM   13  C17 UNL     1      14.479  -4.216  34.060  1.00  0.00    -0.002 C 
HETATM   14  C18 UNL     1      15.819  -4.756  34.516  1.00  0.00     0.021 C 
HETATM   15  C19 UNL     1      14.236  -2.954  34.862  1.00  0.00     0.021 C 
ENDROOT
BRANCH   1  16
HETATM   16  N3  UNL     1      14.347  -4.592  29.224  1.00  0.00    -0.293 N 
HETATM   17  C8  UNL     1      15.029  -4.356  28.044  1.00  0.00     0.322 C 
HETATM   18  N2  UNL     1      14.593  -4.930  26.820  1.00  0.00    -0.339 N 
HETATM   19  O1  UNL     1      16.046  -3.633  28.020  1.00  0.00    -0.247 OA
ATOM     20  H2  UNL     1      13.773  -5.536  26.799  1.00  0.00     0.164 HD
ATOM     21  H3  UNL     1      13.600  -5.286  29.185  1.00  0.00     0.172 HD
BRANCH  18  22
HETATM   22  C7  UNL     1      15.324  -4.647  25.598  1.00  0.00     0.165 C 
BRANCH  22  23
HETATM   23  C6  UNL     1      15.823  -5.936  25.054  1.00  0.00    -0.017 A 
HETATM   24  C3  UNL     1      16.926  -6.567  25.553  1.00  0.00     0.016 A 
HETATM   25  N1  UNL     1      17.090  -7.715  24.879  1.00  0.00    -0.369 N 
HETATM   26  C4  UNL     1      16.121  -7.828  23.967  1.00  0.00     0.089 A 
ATOM     27  H1  UNL     1      17.835  -8.393  25.038  1.00  0.00     0.165 HD
HETATM   28  C5  UNL     1      15.303  -6.730  24.044  1.00  0.00     0.027 A 
BRANCH  24  29
HETATM   29  C2  UNL     1      17.803  -6.045  26.666  1.00  0.00     0.053 C 
HETATM   30  C1  UNL     1      17.699  -6.862  27.909  1.00  0.00     0.011 C 
ENDBRANCH  24  29
ENDBRANCH  22  23
ENDBRANCH  18  22
ENDBRANCH   1  16
TORSDOF 4
ENDMDL
