MODEL 1
REMARK VINA RESULT: -6.496753781      0.000      0.000
REMARK  3 active torsions:
REMARK  status: ('A' for Active; 'I' for Inactive)
REMARK    1  A    between atoms: C2_2  and  N1_5 
REMARK       I    between atoms: N1_5  and  C4_7 
REMARK       I    between atoms: C4_7  and  N5_20 
REMARK       I    between atoms: N2_8  and  C5_10 
REMARK       I    between atoms: C5_10  and  N3_12 
REMARK    2  A    between atoms: N3_12  and  C6_14 
REMARK    3  A    between atoms: N5_20  and  C10_22 
ROOT
HETATM    1  N1  UNL     1      16.653  -7.122  30.205  1.00  0.00    -0.195 N 
ATOM      2  H1  UNL     1      17.012  -7.655  29.412  1.00  0.00     0.184 HD
HETATM    3  C4  UNL     1      16.254  -5.780  30.020  1.00  0.00     0.682 C 
HETATM    4  N2  UNL     1      16.016  -5.040  31.044  1.00  0.00    -0.141 N 
ATOM      5  H2  UNL     1      16.124  -5.448  31.973  1.00  0.00     0.189 HD
HETATM    6  C5  UNL     1      15.608  -3.675  30.947  1.00  0.00     0.340 C 
HETATM    7  O1  UNL     1      14.400  -3.409  31.161  1.00  0.00    -0.246 OA
HETATM    8  N3  UNL     1      16.498  -2.637  30.627  1.00  0.00    -0.294 N 
ATOM      9  H3  UNL     1      17.470  -2.896  30.462  1.00  0.00     0.172 HD
HETATM   10  N5  UNL     1      16.113  -5.243  28.722  1.00  0.00    -0.221 N 
ATOM     11  H5  UNL     1      16.229  -4.237  28.596  1.00  0.00     0.178 HD
ENDROOT
BRANCH   1  12
HETATM   12  C2  UNL     1      16.560  -7.744  31.491  1.00  0.00     0.029 C 
HETATM   13  C1  UNL     1      15.225  -8.169  32.034  1.00  0.00     0.069 C 
HETATM   14  C3  UNL     1      17.635  -7.949  32.210  1.00  0.00     0.081 C 
HETATM   15 BR1  UNL     1      19.328  -7.422  31.545  1.00  0.00    -0.062 Br
ENDBRANCH   1  12
BRANCH  10  16
HETATM   16  C10 UNL     1      15.811  -6.060  27.554  1.00  0.00     0.099 C 
HETATM   17  C11 UNL     1      17.059  -6.437  26.842  1.00  0.00     0.026 C 
HETATM   18  C12 UNL     1      16.956  -6.647  25.377  1.00  0.00     0.002 C 
HETATM   19  C13 UNL     1      15.941  -5.791  24.678  1.00  0.00     0.000 C 
HETATM   20  C14 UNL     1      15.525  -4.651  25.591  1.00  0.00     0.002 C 
HETATM   21  C15 UNL     1      14.804  -5.327  26.740  1.00  0.00     0.026 C 
ENDBRANCH  10  16
BRANCH   8  22
HETATM   22  C6  UNL     1      16.170  -1.265  30.514  1.00  0.00     0.108 A 
HETATM   23  C7  UNL     1      16.533  -0.176  31.251  1.00  0.00     0.050 A 
HETATM   24  C8  UNL     1      15.941   0.986  30.739  1.00  0.00     0.021 A 
HETATM   25  C9  UNL     1      15.210   0.542  29.666  1.00  0.00     0.090 A 
HETATM   26  N4  UNL     1      15.347  -0.780  29.537  1.00  0.00    -0.352 N 
ATOM     27  H4  UNL     1      14.902  -1.346  28.814  1.00  0.00     0.166 HD
ENDBRANCH   8  22
TORSDOF 3
ENDMDL
MODEL 2
REMARK VINA RESULT: -6.481618073      2.615      4.800
REMARK  3 active torsions:
REMARK  status: ('A' for Active; 'I' for Inactive)
REMARK    1  A    between atoms: C2_2  and  N1_5 
REMARK       I    between atoms: N1_5  and  C4_7 
REMARK       I    between atoms: C4_7  and  N5_20 
REMARK       I    between atoms: N2_8  and  C5_10 
REMARK       I    between atoms: C5_10  and  N3_12 
REMARK    2  A    between atoms: N3_12  and  C6_14 
REMARK    3  A    between atoms: N5_20  and  C10_22 
ROOT
HETATM    1  N1  UNL     1      15.534  -5.855  28.456  1.00  0.00    -0.195 N 
ATOM      2  H1  UNL     1      14.769  -6.530  28.443  1.00  0.00     0.184 HD
HETATM    3  C4  UNL     1      15.440  -4.710  29.278  1.00  0.00     0.682 C 
HETATM    4  N2  UNL     1      16.286  -3.752  29.133  1.00  0.00    -0.141 N 
ATOM      5  H2  UNL     1      17.009  -3.848  28.420  1.00  0.00     0.189 HD
HETATM    6  C5  UNL     1      16.264  -2.561  29.920  1.00  0.00     0.340 C 
HETATM    7  O1  UNL     1      17.121  -2.446  30.831  1.00  0.00    -0.246 OA
HETATM    8  N3  UNL     1      15.333  -1.531  29.714  1.00  0.00    -0.294 N 
ATOM      9  H3  UNL     1      14.655  -1.665  28.964  1.00  0.00     0.172 HD
HETATM   10  N5  UNL     1      14.428  -4.607  30.256  1.00  0.00    -0.221 N 
ATOM     11  H5  UNL     1      14.119  -3.677  30.539  1.00  0.00     0.178 HD
ENDROOT
BRANCH   1  12
HETATM   12  C2  UNL     1      16.689  -6.080  27.641  1.00  0.00     0.029 C 
HETATM   13  C1  UNL     1      17.957  -6.608  28.251  1.00  0.00     0.069 C 
HETATM   14  C3  UNL     1      16.657  -5.829  26.357  1.00  0.00     0.081 C 
HETATM   15 BR1  UNL     1      15.069  -5.164  25.567  1.00  0.00    -0.062 Br
ENDBRANCH   1  12
BRANCH  10  16
HETATM   16  C10 UNL     1      13.804  -5.767  30.878  1.00  0.00     0.099 C 
HETATM   17  C11 UNL     1      12.456  -5.420  31.396  1.00  0.00     0.026 C 
HETATM   18  C12 UNL     1      11.978  -6.180  32.578  1.00  0.00     0.002 C 
HETATM   19  C13 UNL     1      13.048  -6.605  33.541  1.00  0.00     0.000 C 
HETATM   20  C14 UNL     1      14.323  -5.830  33.255  1.00  0.00     0.002 C 
HETATM   21  C15 UNL     1      14.759  -6.307  31.883  1.00  0.00     0.026 C 
ENDBRANCH  10  16
BRANCH   8  22
HETATM   22  C6  UNL     1      15.248  -0.325  30.450  1.00  0.00     0.108 A 
HETATM   23  C7  UNL     1      14.834   0.927  30.103  1.00  0.00     0.050 A 
HETATM   24  C8  UNL     1      14.938   1.800  31.195  1.00  0.00     0.021 A 
HETATM   25  C9  UNL     1      15.432   1.013  32.204  1.00  0.00     0.090 A 
HETATM   26  N4  UNL     1      15.613  -0.234  31.763  1.00  0.00    -0.352 N 
ATOM     27  H4  UNL     1      15.971  -1.007  32.325  1.00  0.00     0.166 HD
ENDBRANCH   8  22
TORSDOF 3
ENDMDL
MODEL 3
REMARK VINA RESULT: -6.430094745      2.806      5.935
REMARK  3 active torsions:
REMARK  status: ('A' for Active; 'I' for Inactive)
REMARK    1  A    between atoms: C2_2  and  N1_5 
REMARK       I    between atoms: N1_5  and  C4_7 
REMARK       I    between atoms: C4_7  and  N5_20 
REMARK       I    between atoms: N2_8  and  C5_10 
REMARK       I    between atoms: C5_10  and  N3_12 
REMARK    2  A    between atoms: N3_12  and  C6_14 
REMARK    3  A    between atoms: N5_20  and  C10_22 
ROOT
HETATM    1  N1  UNL     1      17.369  -4.599  32.097  1.00  0.00    -0.195 N 
ATOM      2  H1  UNL     1      17.120  -5.151  32.918  1.00  0.00     0.184 HD
HETATM    3  C4  UNL     1      16.713  -4.838  30.869  1.00  0.00     0.682 C 
HETATM    4  N2  UNL     1      17.172  -4.312  29.789  1.00  0.00    -0.141 N 
ATOM      5  H2  UNL     1      18.007  -3.729  29.851  1.00  0.00     0.189 HD
HETATM    6  C5  UNL     1      16.571  -4.502  28.508  1.00  0.00     0.340 C 
HETATM    7  O1  UNL     1      15.897  -3.555  28.032  1.00  0.00    -0.246 OA
HETATM    8  N3  UNL     1      16.707  -5.690  27.774  1.00  0.00    -0.294 N 
ATOM      9  H3  UNL     1      17.263  -6.434  28.196  1.00  0.00     0.172 HD
HETATM   10  N5  UNL     1      15.560  -5.650  30.816  1.00  0.00    -0.221 N 
ATOM     11  H5  UNL     1      15.346  -6.135  29.944  1.00  0.00     0.178 HD
ENDROOT
BRANCH   1  12
HETATM   12  C2  UNL     1      18.380  -3.591  32.203  1.00  0.00     0.029 C 
HETATM   13  C1  UNL     1      19.826  -3.940  31.984  1.00  0.00     0.069 C 
HETATM   14  C3  UNL     1      18.060  -2.355  32.491  1.00  0.00     0.081 C 
HETATM   15 BR1  UNL     1      16.245  -1.893  32.770  1.00  0.00    -0.062 Br
ENDBRANCH   1  12
BRANCH  10  16
HETATM   16  C10 UNL     1      14.661  -5.828  31.949  1.00  0.00     0.099 C 
HETATM   17  C11 UNL     1      14.155  -7.224  32.000  1.00  0.00     0.026 C 
HETATM   18  C12 UNL     1      12.808  -7.425  32.591  1.00  0.00     0.002 C 
HETATM   19  C13 UNL     1      11.840  -6.298  32.374  1.00  0.00     0.000 C 
HETATM   20  C14 UNL     1      12.364  -5.384  31.281  1.00  0.00     0.002 C 
HETATM   21  C15 UNL     1      13.620  -4.769  31.869  1.00  0.00     0.026 C 
ENDBRANCH  10  16
BRANCH   8  22
HETATM   22  C6  UNL     1      16.144  -5.953  26.502  1.00  0.00     0.108 A 
HETATM   23  C7  UNL     1      16.535  -6.771  25.483  1.00  0.00     0.050 A 
HETATM   24  C8  UNL     1      15.637  -6.685  24.410  1.00  0.00     0.021 A 
HETATM   25  C9  UNL     1      14.696  -5.781  24.835  1.00  0.00     0.090 A 
HETATM   26  N4  UNL     1      14.997  -5.354  26.064  1.00  0.00    -0.352 N 
ATOM     27  H4  UNL     1      14.451  -4.677  26.597  1.00  0.00     0.166 HD
ENDBRANCH   8  22
TORSDOF 3
ENDMDL
MODEL 4
REMARK VINA RESULT: -6.402220287      2.266      6.451
REMARK  3 active torsions:
REMARK  status: ('A' for Active; 'I' for Inactive)
REMARK    1  A    between atoms: C2_2  and  N1_5 
REMARK       I    between atoms: N1_5  and  C4_7 
REMARK       I    between atoms: C4_7  and  N5_20 
REMARK       I    between atoms: N2_8  and  C5_10 
REMARK       I    between atoms: C5_10  and  N3_12 
REMARK    2  A    between atoms: N3_12  and  C6_14 
REMARK    3  A    between atoms: N5_20  and  C10_22 
ROOT
HETATM    1  N1  UNL     1      16.922  -2.798  30.529  1.00  0.00    -0.195 N 
ATOM      2  H1  UNL     1      17.700  -2.819  31.189  1.00  0.00     0.184 HD
HETATM    3  C4  UNL     1      16.746  -3.869  29.625  1.00  0.00     0.682 C 
HETATM    4  N2  UNL     1      15.916  -3.750  28.650  1.00  0.00    -0.141 N 
ATOM      5  H2  UNL     1      15.402  -2.873  28.556  1.00  0.00     0.189 HD
HETATM    6  C5  UNL     1      15.677  -4.781  27.693  1.00  0.00     0.340 C 
HETATM    7  O1  UNL     1      14.613  -5.440  27.796  1.00  0.00    -0.246 OA
HETATM    8  N3  UNL     1      16.576  -5.079  26.656  1.00  0.00    -0.294 N 
ATOM      9  H3  UNL     1      17.427  -4.519  26.608  1.00  0.00     0.172 HD
HETATM   10  N5  UNL     1      17.472  -5.069  29.781  1.00  0.00    -0.221 N 
ATOM     11  H5  UNL     1      17.651  -5.640  28.955  1.00  0.00     0.178 HD
ENDROOT
BRANCH   1  12
HETATM   12  C2  UNL     1      16.023  -1.684  30.529  1.00  0.00     0.029 C 
HETATM   13  C1  UNL     1      16.064  -0.676  29.415  1.00  0.00     0.069 C 
HETATM   14  C3  UNL     1      15.155  -1.529  31.496  1.00  0.00     0.081 C 
HETATM   15 BR1  UNL     1      15.085  -2.787  32.909  1.00  0.00    -0.062 Br
ENDBRANCH   1  12
BRANCH  10  16
HETATM   16  C10 UNL     1      17.978  -5.529  31.068  1.00  0.00     0.099 C 
HETATM   17  C11 UNL     1      19.110  -6.472  30.877  1.00  0.00     0.026 C 
HETATM   18  C12 UNL     1      19.297  -7.511  31.921  1.00  0.00     0.002 C 
HETATM   19  C13 UNL     1      18.036  -7.998  32.572  1.00  0.00     0.000 C 
HETATM   20  C14 UNL     1      16.839  -7.572  31.740  1.00  0.00     0.002 C 
HETATM   21  C15 UNL     1      16.824  -6.060  31.843  1.00  0.00     0.026 C 
ENDBRANCH  10  16
BRANCH   8  22
HETATM   22  C6  UNL     1      16.410  -6.082  25.672  1.00  0.00     0.108 A 
HETATM   23  C7  UNL     1      15.617  -6.150  24.564  1.00  0.00     0.050 A 
HETATM   24  C8  UNL     1      15.808  -7.368  23.896  1.00  0.00     0.021 A 
HETATM   25  C9  UNL     1      16.747  -8.020  24.655  1.00  0.00     0.090 A 
HETATM   26  N4  UNL     1      17.098  -7.262  25.697  1.00  0.00    -0.352 N 
ATOM     27  H4  UNL     1      17.780  -7.526  26.408  1.00  0.00     0.166 HD
ENDBRANCH   8  22
TORSDOF 3
ENDMDL
MODEL 5
REMARK VINA RESULT: -6.331064515      2.847      4.921
REMARK  3 active torsions:
REMARK  status: ('A' for Active; 'I' for Inactive)
REMARK    1  A    between atoms: C2_2  and  N1_5 
REMARK       I    between atoms: N1_5  and  C4_7 
REMARK       I    between atoms: C4_7  and  N5_20 
REMARK       I    between atoms: N2_8  and  C5_10 
REMARK       I    between atoms: C5_10  and  N3_12 
REMARK    2  A    between atoms: N3_12  and  C6_14 
REMARK    3  A    between atoms: N5_20  and  C10_22 
ROOT
HETATM    1  N1  UNL     1      15.351  -5.656  29.163  1.00  0.00    -0.195 N 
ATOM      2  H1  UNL     1      14.570  -6.304  29.266  1.00  0.00     0.184 HD
HETATM    3  C4  UNL     1      15.310  -4.404  29.816  1.00  0.00     0.682 C 
HETATM    4  N2  UNL     1      16.174  -3.500  29.516  1.00  0.00    -0.141 N 
ATOM      5  H2  UNL     1      16.873  -3.716  28.805  1.00  0.00     0.189 HD
HETATM    6  C5  UNL     1      16.203  -2.210  30.126  1.00  0.00     0.340 C 
HETATM    7  O1  UNL     1      17.089  -1.992  30.989  1.00  0.00    -0.246 OA
HETATM    8  N3  UNL     1      15.292  -1.194  29.800  1.00  0.00    -0.294 N 
ATOM      9  H3  UNL     1      14.589  -1.413  29.094  1.00  0.00     0.172 HD
HETATM   10  N5  UNL     1      14.329  -4.135  30.795  1.00  0.00    -0.221 N 
ATOM     11  H5  UNL     1      14.051  -3.166  30.952  1.00  0.00     0.178 HD
ENDROOT
BRANCH   1  12
HETATM   12  C2  UNL     1      16.476  -6.026  28.359  1.00  0.00     0.029 C 
HETATM   13  C1  UNL     1      17.683  -6.662  28.989  1.00  0.00     0.069 C 
HETATM   14  C3  UNL     1      16.469  -5.816  27.067  1.00  0.00     0.081 C 
HETATM   15 BR1  UNL     1      14.958  -5.017  26.252  1.00  0.00    -0.062 Br
ENDBRANCH   1  12
BRANCH  10  16
HETATM   16  C10 UNL     1      13.696  -5.178  31.592  1.00  0.00     0.099 C 
HETATM   17  C11 UNL     1      12.263  -5.319  31.224  1.00  0.00     0.026 C 
HETATM   18  C12 UNL     1      11.342  -5.781  32.291  1.00  0.00     0.002 C 
HETATM   19  C13 UNL     1      11.705  -5.347  33.682  1.00  0.00     0.000 C 
HETATM   20  C14 UNL     1      12.728  -4.227  33.611  1.00  0.00     0.002 C 
HETATM   21  C15 UNL     1      13.965  -4.879  33.024  1.00  0.00     0.026 C 
ENDBRANCH  10  16
BRANCH   8  22
HETATM   22  C6  UNL     1      15.258   0.106  30.359  1.00  0.00     0.108 A 
HETATM   23  C7  UNL     1      14.225   0.890  30.783  1.00  0.00     0.050 A 
HETATM   24  C8  UNL     1      14.703   2.116  31.266  1.00  0.00     0.021 A 
HETATM   25  C9  UNL     1      16.063   2.027  31.111  1.00  0.00     0.090 A 
HETATM   26  N4  UNL     1      16.385   0.845  30.578  1.00  0.00    -0.352 N 
ATOM     27  H4  UNL     1      17.335   0.540  30.366  1.00  0.00     0.166 HD
ENDBRANCH   8  22
TORSDOF 3
ENDMDL
