MODEL 1
REMARK VINA RESULT: -7.668819484      0.000      0.000
REMARK  5 active torsions:
REMARK  status: ('A' for Active; 'I' for Inactive)
REMARK    1  A    between atoms: C2_2  and  N1_5 
REMARK       I    between atoms: N1_5  and  C5_7 
REMARK       I    between atoms: C5_7  and  N2_9 
REMARK    2  A    between atoms: N2_9  and  C6_11 
REMARK    3  A    between atoms: C6_11  and  C7_12 
REMARK    4  A    between atoms: C15_21  and  C16_22 
REMARK    5  A    between atoms: C16_22  and  N4_26 
ROOT
HETATM    1  C7  UNL     1      15.810  -4.161  31.005  1.00  0.00    -0.004 C 
HETATM    2  C8  UNL     1      17.227  -3.531  31.077  1.00  0.00     0.016 C 
HETATM    3  C9  UNL     1      17.974  -3.975  29.883  1.00  0.00     0.015 C 
HETATM    4  C10 UNL     1      17.464  -5.212  29.247  1.00  0.00     0.007 C 
HETATM    5  C11 UNL     1      18.493  -5.867  28.382  1.00  0.00     0.020 C 
HETATM    6  C12 UNL     1      16.822  -6.197  30.150  1.00  0.00     0.114 C 
HETATM    7  F1  UNL     1      17.522  -7.314  30.493  1.00  0.00    -0.242 F 
HETATM    8  C13 UNL     1      15.967  -5.602  31.265  1.00  0.00     0.059 C 
HETATM    9  C14 UNL     1      15.829  -6.429  28.985  1.00  0.00     0.062 C 
HETATM   10  C15 UNL     1      16.099  -4.980  28.637  1.00  0.00     0.032 C 
HETATM   11  C18 UNL     1      15.364  -4.013  29.536  1.00  0.00     0.033 C 
ENDROOT
BRANCH   1  12
HETATM   12  C6  UNL     1      14.900  -3.353  31.848  1.00  0.00     0.075 C 
BRANCH  12  13
HETATM   13  N2  UNL     1      15.246  -2.085  32.318  1.00  0.00    -0.322 N 
HETATM   14  C5  UNL     1      15.211  -0.830  31.681  1.00  0.00     0.320 C 
HETATM   15  N1  UNL     1      15.680   0.338  32.387  1.00  0.00    -0.335 N 
HETATM   16  O1  UNL     1      14.801  -0.608  30.523  1.00  0.00    -0.247 OA
ATOM     17  H1  UNL     1      16.030   0.230  33.340  1.00  0.00     0.165 HD
ATOM     18  H2  UNL     1      15.579  -2.065  33.282  1.00  0.00     0.169 HD
BRANCH  15  19
HETATM   19  C2  UNL     1      15.673   1.660  31.794  1.00  0.00     0.023 C 
HETATM   20  C1  UNL     1      16.584   1.675  30.590  1.00  0.00     0.037 C 
HETATM   21  C3  UNL     1      14.257   2.053  31.409  1.00  0.00     0.037 C 
HETATM   22  C4  UNL     1      16.185   2.702  32.773  1.00  0.00     0.037 C 
ENDBRANCH  15  19
ENDBRANCH  12  13
ENDBRANCH   1  12
BRANCH  10  23
HETATM   23  C16 UNL     1      16.079  -4.652  27.214  1.00  0.00     0.086 C 
HETATM   24  N3  UNL     1      15.743  -3.515  26.722  1.00  0.00    -0.388 N 
ATOM     25  H32 UNL     1      15.472  -2.788  27.385  1.00  0.00     0.157 HD
ATOM     26  H31 UNL     1      15.729  -3.286  25.729  1.00  0.00     0.157 HD
BRANCH  23  27
HETATM   27  N4  UNL     1      16.457  -5.666  26.290  1.00  0.00    -0.322 N 
HETATM   28  C17 UNL     1      15.636  -6.098  25.393  1.00  0.00     0.202 C 
HETATM   29  N5  UNL     1      16.110  -7.111  24.516  1.00  0.00    -0.066 NA
HETATM   30  N6  UNL     1      14.315  -5.611  25.254  1.00  0.00    -0.066 NA
ATOM     31  H4  UNL     1      17.397  -6.060  26.337  1.00  0.00     0.169 HD
ENDBRANCH  23  27
ENDBRANCH  10  23
TORSDOF 5
ENDMDL
MODEL 2
REMARK VINA RESULT: -7.662848551      3.260      4.553
REMARK  5 active torsions:
REMARK  status: ('A' for Active; 'I' for Inactive)
REMARK    1  A    between atoms: C2_2  and  N1_5 
REMARK       I    between atoms: N1_5  and  C5_7 
REMARK       I    between atoms: C5_7  and  N2_9 
REMARK    2  A    between atoms: N2_9  and  C6_11 
REMARK    3  A    between atoms: C6_11  and  C7_12 
REMARK    4  A    between atoms: C15_21  and  C16_22 
REMARK    5  A    between atoms: C16_22  and  N4_26 
ROOT
HETATM    1  C7  UNL     1      14.650  -4.948  30.925  1.00  0.00    -0.004 C 
HETATM    2  C8  UNL     1      15.510  -3.745  31.394  1.00  0.00     0.016 C 
HETATM    3  C9  UNL     1      16.620  -3.589  30.432  1.00  0.00     0.015 C 
HETATM    4  C10 UNL     1      16.946  -4.802  29.647  1.00  0.00     0.007 C 
HETATM    5  C11 UNL     1      18.326  -4.747  29.072  1.00  0.00     0.020 C 
HETATM    6  C12 UNL     1      16.699  -6.102  30.315  1.00  0.00     0.114 C 
HETATM    7  F1  UNL     1      17.767  -6.794  30.801  1.00  0.00    -0.242 F 
HETATM    8  C13 UNL     1      15.441  -6.165  31.176  1.00  0.00     0.059 C 
HETATM    9  C14 UNL     1      16.236  -6.588  28.919  1.00  0.00     0.062 C 
HETATM   10  C15 UNL     1      15.820  -5.149  28.699  1.00  0.00     0.032 C 
HETATM   11  C18 UNL     1      14.524  -4.800  29.395  1.00  0.00     0.033 C 
ENDROOT
BRANCH   1  12
HETATM   12  C6  UNL     1      13.299  -4.811  31.516  1.00  0.00     0.075 C 
BRANCH  12  13
HETATM   13  N2  UNL     1      13.089  -4.759  32.894  1.00  0.00    -0.322 N 
HETATM   14  C5  UNL     1      11.904  -4.871  33.646  1.00  0.00     0.320 C 
HETATM   15  N1  UNL     1      11.957  -4.727  35.082  1.00  0.00    -0.335 N 
HETATM   16  O1  UNL     1      10.763  -5.091  33.187  1.00  0.00    -0.247 OA
ATOM     17  H1  UNL     1      12.858  -4.547  35.524  1.00  0.00     0.165 HD
ATOM     18  H2  UNL     1      13.933  -4.616  33.448  1.00  0.00     0.169 HD
BRANCH  15  19
HETATM   19  C2  UNL     1      10.777  -4.831  35.917  1.00  0.00     0.023 C 
HETATM   20  C1  UNL     1       9.860  -3.665  35.638  1.00  0.00     0.037 C 
HETATM   21  C3  UNL     1      10.070  -6.151  35.663  1.00  0.00     0.037 C 
HETATM   22  C4  UNL     1      11.145  -4.787  37.389  1.00  0.00     0.037 C 
ENDBRANCH  15  19
ENDBRANCH  12  13
ENDBRANCH   1  12
BRANCH  10  23
HETATM   23  C16 UNL     1      15.952  -4.649  27.333  1.00  0.00     0.086 C 
HETATM   24  N3  UNL     1      15.722  -3.442  26.962  1.00  0.00    -0.388 N 
ATOM     25  H32 UNL     1      15.425  -2.786  27.685  1.00  0.00     0.157 HD
ATOM     26  H31 UNL     1      15.814  -3.093  26.008  1.00  0.00     0.157 HD
BRANCH  23  27
HETATM   27  N4  UNL     1      16.366  -5.565  26.325  1.00  0.00    -0.322 N 
HETATM   28  C17 UNL     1      15.560  -5.944  25.390  1.00  0.00     0.202 C 
HETATM   29  N5  UNL     1      16.069  -6.859  24.430  1.00  0.00    -0.066 NA
HETATM   30  N6  UNL     1      14.223  -5.491  25.290  1.00  0.00    -0.066 NA
ATOM     31  H4  UNL     1      17.318  -5.928  26.341  1.00  0.00     0.169 HD
ENDBRANCH  23  27
ENDBRANCH  10  23
TORSDOF 5
ENDMDL
MODEL 3
REMARK VINA RESULT: -7.465335896      3.273      5.071
REMARK  5 active torsions:
REMARK  status: ('A' for Active; 'I' for Inactive)
REMARK    1  A    between atoms: C2_2  and  N1_5 
REMARK       I    between atoms: N1_5  and  C5_7 
REMARK       I    between atoms: C5_7  and  N2_9 
REMARK    2  A    between atoms: N2_9  and  C6_11 
REMARK    3  A    between atoms: C6_11  and  C7_12 
REMARK    4  A    between atoms: C15_21  and  C16_22 
REMARK    5  A    between atoms: C16_22  and  N4_26 
ROOT
HETATM    1  C7  UNL     1      15.078  -4.981  30.515  1.00  0.00    -0.004 C 
HETATM    2  C8  UNL     1      16.061  -3.824  30.834  1.00  0.00     0.016 C 
HETATM    3  C9  UNL     1      17.057  -3.773  29.744  1.00  0.00     0.015 C 
HETATM    4  C10 UNL     1      17.210  -5.028  28.973  1.00  0.00     0.007 C 
HETATM    5  C11 UNL     1      18.512  -5.084  28.239  1.00  0.00     0.020 C 
HETATM    6  C12 UNL     1      16.963  -6.287  29.715  1.00  0.00     0.114 C 
HETATM    7  F1  UNL     1      18.035  -7.034  30.099  1.00  0.00    -0.242 F 
HETATM    8  C13 UNL     1      15.815  -6.240  30.718  1.00  0.00     0.059 C 
HETATM    9  C14 UNL     1      16.307  -6.783  28.402  1.00  0.00     0.062 C 
HETATM   10  C15 UNL     1      15.959  -5.327  28.178  1.00  0.00     0.032 C 
HETATM   11  C18 UNL     1      14.780  -4.871  29.006  1.00  0.00     0.033 C 
ENDROOT
BRANCH   1  12
HETATM   12  C6  UNL     1      13.818  -4.735  31.254  1.00  0.00     0.075 C 
BRANCH  12  13
HETATM   13  N2  UNL     1      13.628  -5.164  32.568  1.00  0.00    -0.322 N 
HETATM   14  C5  UNL     1      12.720  -6.096  33.107  1.00  0.00     0.320 C 
HETATM   15  N1  UNL     1      12.696  -6.322  34.532  1.00  0.00    -0.335 N 
HETATM   16  O1  UNL     1      11.899  -6.777  32.458  1.00  0.00    -0.247 OA
ATOM     17  H1  UNL     1      13.342  -5.799  35.124  1.00  0.00     0.165 HD
ATOM     18  H2  UNL     1      14.249  -4.731  33.251  1.00  0.00     0.169 HD
BRANCH  15  19
HETATM   19  C2  UNL     1      11.789  -7.266  35.154  1.00  0.00     0.023 C 
HETATM   20  C1  UNL     1      10.367  -6.804  34.951  1.00  0.00     0.037 C 
HETATM   21  C3  UNL     1      11.998  -8.654  34.573  1.00  0.00     0.037 C 
HETATM   22  C4  UNL     1      12.036  -7.357  36.649  1.00  0.00     0.037 C 
ENDBRANCH  15  19
ENDBRANCH  12  13
ENDBRANCH   1  12
BRANCH  10  23
HETATM   23  C16 UNL     1      15.959  -4.880  26.787  1.00  0.00     0.086 C 
HETATM   24  N3  UNL     1      15.636  -3.702  26.390  1.00  0.00    -0.388 N 
ATOM     25  H32 UNL     1      15.360  -3.032  27.109  1.00  0.00     0.157 HD
ATOM     26  H31 UNL     1      15.635  -3.390  25.420  1.00  0.00     0.157 HD
BRANCH  23  27
HETATM   27  N4  UNL     1      16.344  -5.814  25.785  1.00  0.00    -0.322 N 
HETATM   28  C17 UNL     1      15.497  -6.255  24.917  1.00  0.00     0.202 C 
HETATM   29  N5  UNL     1      15.980  -7.184  23.957  1.00  0.00    -0.066 NA
HETATM   30  N6  UNL     1      14.140  -5.857  24.888  1.00  0.00    -0.066 NA
ATOM     31  H4  UNL     1      17.309  -6.141  25.752  1.00  0.00     0.169 HD
ENDBRANCH  23  27
ENDBRANCH  10  23
TORSDOF 5
ENDMDL
MODEL 4
REMARK VINA RESULT: -7.188754856      3.420      7.948
REMARK  5 active torsions:
REMARK  status: ('A' for Active; 'I' for Inactive)
REMARK    1  A    between atoms: C2_2  and  N1_5 
REMARK       I    between atoms: N1_5  and  C5_7 
REMARK       I    between atoms: C5_7  and  N2_9 
REMARK    2  A    between atoms: N2_9  and  C6_11 
REMARK    3  A    between atoms: C6_11  and  C7_12 
REMARK    4  A    between atoms: C15_21  and  C16_22 
REMARK    5  A    between atoms: C16_22  and  N4_26 
ROOT
HETATM    1  C7  UNL     1      15.661   0.337  31.035  1.00  0.00    -0.004 C 
HETATM    2  C8  UNL     1      14.572   1.421  31.251  1.00  0.00     0.016 C 
HETATM    3  C9  UNL     1      15.257   2.666  31.657  1.00  0.00     0.015 C 
HETATM    4  C10 UNL     1      16.608   2.480  32.237  1.00  0.00     0.007 C 
HETATM    5  C11 UNL     1      17.040   3.659  33.048  1.00  0.00     0.020 C 
HETATM    6  C12 UNL     1      16.836   1.214  32.972  1.00  0.00     0.114 C 
HETATM    7  F1  UNL     1      16.854   1.250  34.334  1.00  0.00    -0.242 F 
HETATM    8  C13 UNL     1      16.178  -0.022  32.367  1.00  0.00     0.059 C 
HETATM    9  C14 UNL     1      18.249   1.248  32.339  1.00  0.00     0.062 C 
HETATM   10  C15 UNL     1      17.576   1.971  31.192  1.00  0.00     0.032 C 
HETATM   11  C18 UNL     1      16.807   1.042  30.281  1.00  0.00     0.033 C 
ENDROOT
BRANCH   1  12
HETATM   12  C6  UNL     1      15.102  -0.712  30.152  1.00  0.00     0.075 C 
BRANCH  12  13
HETATM   13  N2  UNL     1      15.908  -1.646  29.500  1.00  0.00    -0.322 N 
HETATM   14  C5  UNL     1      15.685  -3.006  29.211  1.00  0.00     0.320 C 
HETATM   15  N1  UNL     1      16.721  -3.772  28.559  1.00  0.00    -0.335 N 
HETATM   16  O1  UNL     1      14.645  -3.648  29.465  1.00  0.00    -0.247 OA
ATOM     17  H1  UNL     1      17.599  -3.310  28.321  1.00  0.00     0.165 HD
ATOM     18  H2  UNL     1      16.806  -1.284  29.181  1.00  0.00     0.169 HD
BRANCH  15  19
HETATM   19  C2  UNL     1      16.560  -5.175  28.231  1.00  0.00     0.023 C 
HETATM   20  C1  UNL     1      16.244  -5.951  29.486  1.00  0.00     0.037 C 
HETATM   21  C3  UNL     1      15.463  -5.347  27.194  1.00  0.00     0.037 C 
HETATM   22  C4  UNL     1      17.837  -5.748  27.643  1.00  0.00     0.037 C 
ENDBRANCH  15  19
ENDBRANCH  12  13
ENDBRANCH   1  12
BRANCH  10  23
HETATM   23  C16 UNL     1      18.383   2.984  30.517  1.00  0.00     0.086 C 
HETATM   24  N3  UNL     1      17.919   3.932  29.786  1.00  0.00    -0.388 N 
ATOM     25  H32 UNL     1      16.906   3.975  29.675  1.00  0.00     0.157 HD
ATOM     26  H31 UNL     1      18.482   4.639  29.314  1.00  0.00     0.157 HD
BRANCH  23  27
HETATM   27  N4  UNL     1      19.797   2.924  30.672  1.00  0.00    -0.322 N 
HETATM   28  C17 UNL     1      20.578   2.765  29.657  1.00  0.00     0.202 C 
HETATM   29  N5  UNL     1      21.974   2.719  29.916  1.00  0.00    -0.066 NA
HETATM   30  N6  UNL     1      20.105   2.638  28.329  1.00  0.00    -0.066 NA
ATOM     31  H4  UNL     1      20.200   3.009  31.604  1.00  0.00     0.169 HD
ENDBRANCH  23  27
ENDBRANCH  10  23
TORSDOF 5
ENDMDL
MODEL 5
REMARK VINA RESULT: -7.180630728      3.325      8.328
REMARK  5 active torsions:
REMARK  status: ('A' for Active; 'I' for Inactive)
REMARK    1  A    between atoms: C2_2  and  N1_5 
REMARK       I    between atoms: N1_5  and  C5_7 
REMARK       I    between atoms: C5_7  and  N2_9 
REMARK    2  A    between atoms: N2_9  and  C6_11 
REMARK    3  A    between atoms: C6_11  and  C7_12 
REMARK    4  A    between atoms: C15_21  and  C16_22 
REMARK    5  A    between atoms: C16_22  and  N4_26 
ROOT
HETATM    1  C7  UNL     1      15.873  -0.003  30.674  1.00  0.00    -0.004 C 
HETATM    2  C8  UNL     1      16.875  -0.390  31.794  1.00  0.00     0.016 C 
HETATM    3  C9  UNL     1      16.585   0.462  32.965  1.00  0.00     0.015 C 
HETATM    4  C10 UNL     1      15.863   1.719  32.665  1.00  0.00     0.007 C 
HETATM    5  C11 UNL     1      16.019   2.733  33.753  1.00  0.00     0.020 C 
HETATM    6  C12 UNL     1      16.120   2.321  31.335  1.00  0.00     0.114 C 
HETATM    7  F1  UNL     1      16.933   3.412  31.264  1.00  0.00    -0.242 F 
HETATM    8  C13 UNL     1      16.268   1.329  30.186  1.00  0.00     0.059 C 
HETATM    9  C14 UNL     1      14.614   2.679  31.345  1.00  0.00     0.062 C 
HETATM   10  C15 UNL     1      14.456   1.432  32.189  1.00  0.00     0.032 C 
HETATM   11  C18 UNL     1      14.508   0.160  31.375  1.00  0.00     0.033 C 
ENDROOT
BRANCH   1  12
HETATM   12  C6  UNL     1      15.774  -1.137  29.727  1.00  0.00     0.075 C 
BRANCH  12  13
HETATM   13  N2  UNL     1      16.515  -2.309  29.887  1.00  0.00    -0.322 N 
HETATM   14  C5  UNL     1      16.486  -3.517  29.165  1.00  0.00     0.320 C 
HETATM   15  N1  UNL     1      17.335  -4.611  29.575  1.00  0.00    -0.335 N 
HETATM   16  O1  UNL     1      15.777  -3.757  28.165  1.00  0.00    -0.247 OA
ATOM     17  H1  UNL     1      17.942  -4.484  30.386  1.00  0.00     0.165 HD
ATOM     18  H2  UNL     1      17.188  -2.286  30.653  1.00  0.00     0.169 HD
BRANCH  15  19
HETATM   19  C2  UNL     1      17.357  -5.881  28.879  1.00  0.00     0.023 C 
HETATM   20  C1  UNL     1      16.017  -6.559  29.028  1.00  0.00     0.037 C 
HETATM   21  C3  UNL     1      17.699  -5.669  27.414  1.00  0.00     0.037 C 
HETATM   22  C4  UNL     1      18.410  -6.806  29.463  1.00  0.00     0.037 C 
ENDBRANCH  15  19
ENDBRANCH  12  13
ENDBRANCH   1  12
BRANCH  10  23
HETATM   23  C16 UNL     1      13.411   1.481  33.208  1.00  0.00     0.086 C 
HETATM   24  N3  UNL     1      12.749   2.530  33.539  1.00  0.00    -0.388 N 
ATOM     25  H32 UNL     1      12.977   3.394  33.045  1.00  0.00     0.157 HD
ATOM     26  H31 UNL     1      12.020   2.564  34.251  1.00  0.00     0.157 HD
BRANCH  23  27
HETATM   27  N4  UNL     1      13.094   0.276  33.897  1.00  0.00    -0.322 N 
HETATM   28  C17 UNL     1      13.351   0.133  35.154  1.00  0.00     0.202 C 
HETATM   29  N5  UNL     1      12.995  -1.106  35.750  1.00  0.00    -0.066 NA
HETATM   30  N6  UNL     1      13.960   1.141  35.939  1.00  0.00    -0.066 NA
ATOM     31  H4  UNL     1      12.653  -0.489  33.387  1.00  0.00     0.169 HD
ENDBRANCH  23  27
ENDBRANCH  10  23
TORSDOF 5
ENDMDL
