MODEL 1
REMARK VINA RESULT: -8.556432793      0.000      0.000
REMARK  4 active torsions:
REMARK  status: ('A' for Active; 'I' for Inactive)
REMARK    1  A    between atoms: C2_2  and  C3_3 
REMARK    2  A    between atoms: C2_2  and  N1_5 
REMARK    3  A    between atoms: C11_13  and  N2_14 
REMARK       I    between atoms: N2_14  and  C12_16 
REMARK       I    between atoms: C12_16  and  N3_18 
REMARK    4  A    between atoms: N3_18  and  C13_20 
ROOT
HETATM    1  N2  UNL     1      16.776  -6.312  28.793  1.00  0.00    -0.322 N 
ATOM      2  H2  UNL     1      16.908  -7.305  28.991  1.00  0.00     0.166 HD
HETATM    3  C12 UNL     1      17.142  -5.843  27.498  1.00  0.00     0.323 C 
HETATM    4  O1  UNL     1      16.972  -4.617  27.276  1.00  0.00    -0.247 OA
HETATM    5  N3  UNL     1      17.669  -6.634  26.474  1.00  0.00    -0.292 N 
ATOM      6  H3  UNL     1      18.637  -6.936  26.577  1.00  0.00     0.172 HD
ENDROOT
BRANCH   1   7
HETATM    7  C11 UNL     1      16.243  -5.506  29.823  1.00  0.00     0.184 C 
HETATM    8  N1  UNL     1      16.888  -5.326  31.036  1.00  0.00    -0.383 N 
HETATM    9  C4  UNL     1      16.201  -4.374  31.839  1.00  0.00     0.082 C 
HETATM   10  C5  UNL     1      15.569  -4.895  33.084  1.00  0.00     0.025 C 
HETATM   11  C9  UNL     1      15.090  -3.623  31.096  1.00  0.00     0.029 C 
HETATM   12  C6  UNL     1      14.337  -5.733  32.849  1.00  0.00     0.002 C 
HETATM   13  C7  UNL     1      13.370  -5.133  31.879  1.00  0.00     0.005 C 
HETATM   14  C8  UNL     1      14.111  -4.639  30.628  1.00  0.00    -0.009 C 
HETATM   15  C10 UNL     1      14.754  -5.847  30.021  1.00  0.00     0.051 C 
BRANCH   8  16
HETATM   16  C2  UNL     1      17.629  -6.250  31.729  1.00  0.00     0.091 C 
HETATM   17  C1  UNL     1      17.269  -7.687  31.714  1.00  0.00     0.033 C 
BRANCH  16  18
HETATM   18  C3  UNL     1      19.086  -6.203  31.223  1.00  0.00     0.139 C 
HETATM   19 CL1  UNL     1      19.518  -4.496  30.927  1.00  0.00    -0.128 Cl
ENDBRANCH  16  18
ENDBRANCH   8  16
ENDBRANCH   1   7
BRANCH   5  20
HETATM   20  C13 UNL     1      17.050  -7.016  25.418  1.00  0.00     0.153 A 
HETATM   21  N4  UNL     1      17.535  -7.910  24.546  1.00  0.00    -0.283 N 
HETATM   22  N5  UNL     1      16.660  -8.086  23.571  1.00  0.00    -0.297 N 
ATOM     23  H4  UNL     1      18.437  -8.380  24.622  1.00  0.00     0.188 HD
HETATM   24  C14 UNL     1      15.570  -7.323  23.758  1.00  0.00     0.080 A 
ATOM     25  H5  UNL     1      16.795  -8.718  22.781  1.00  0.00     0.187 HD
HETATM   26  C15 UNL     1      14.336  -6.957  23.259  1.00  0.00     0.050 A 
HETATM   27  C17 UNL     1      15.816  -6.631  24.946  1.00  0.00     0.106 A 
HETATM   28  C16 UNL     1      13.845  -6.034  24.168  1.00  0.00     0.091 A 
HETATM   29  N6  UNL     1      14.733  -5.852  25.160  1.00  0.00    -0.361 N 
ATOM     30  H6  UNL     1      14.608  -5.223  25.953  1.00  0.00     0.165 HD
ENDBRANCH   5  20
TORSDOF 4
ENDMDL
MODEL 2
REMARK VINA RESULT: -8.357616859      1.681      2.205
REMARK  4 active torsions:
REMARK  status: ('A' for Active; 'I' for Inactive)
REMARK    1  A    between atoms: C2_2  and  C3_3 
REMARK    2  A    between atoms: C2_2  and  N1_5 
REMARK    3  A    between atoms: C11_13  and  N2_14 
REMARK       I    between atoms: N2_14  and  C12_16 
REMARK       I    between atoms: C12_16  and  N3_18 
REMARK    4  A    between atoms: N3_18  and  C13_20 
ROOT
HETATM    1  N2  UNL     1      16.008  -5.956  28.779  1.00  0.00    -0.322 N 
ATOM      2  H2  UNL     1      16.749  -6.633  28.964  1.00  0.00     0.166 HD
HETATM    3  C12 UNL     1      15.945  -5.388  27.474  1.00  0.00     0.323 C 
HETATM    4  O1  UNL     1      15.025  -4.556  27.268  1.00  0.00    -0.247 OA
HETATM    5  N3  UNL     1      16.818  -5.683  26.424  1.00  0.00    -0.292 N 
ATOM      6  H3  UNL     1      17.760  -5.297  26.485  1.00  0.00     0.172 HD
ENDROOT
BRANCH   1   7
HETATM    7  C11 UNL     1      15.122  -5.653  29.836  1.00  0.00     0.184 C 
HETATM    8  N1  UNL     1      15.112  -4.421  30.469  1.00  0.00    -0.383 N 
HETATM    9  C4  UNL     1      14.045  -4.341  31.406  1.00  0.00     0.082 C 
HETATM   10  C5  UNL     1      14.433  -4.258  32.843  1.00  0.00     0.025 C 
HETATM   11  C9  UNL     1      13.052  -5.505  31.315  1.00  0.00     0.029 C 
HETATM   12  C6  UNL     1      14.969  -5.546  33.414  1.00  0.00     0.002 C 
HETATM   13  C7  UNL     1      14.151  -6.751  33.073  1.00  0.00     0.005 C 
HETATM   14  C8  UNL     1      13.814  -6.755  31.574  1.00  0.00    -0.009 C 
HETATM   15  C10 UNL     1      15.125  -6.811  30.853  1.00  0.00     0.051 C 
BRANCH   8  16
HETATM   16  C2  UNL     1      16.191  -3.617  30.742  1.00  0.00     0.091 C 
HETATM   17  C1  UNL     1      17.574  -4.140  30.660  1.00  0.00     0.033 C 
BRANCH  16  18
HETATM   18  C3  UNL     1      16.167  -2.410  29.781  1.00  0.00     0.139 C 
HETATM   19 CL1  UNL     1      15.426  -1.030  30.638  1.00  0.00    -0.128 Cl
ENDBRANCH  16  18
ENDBRANCH   8  16
ENDBRANCH   1   7
BRANCH   5  20
HETATM   20  C13 UNL     1      16.548  -6.392  25.391  1.00  0.00     0.153 A 
HETATM   21  N4  UNL     1      17.405  -7.252  24.825  1.00  0.00    -0.283 N 
HETATM   22  N5  UNL     1      16.826  -7.823  23.783  1.00  0.00    -0.297 N 
ATOM     23  H4  UNL     1      18.355  -7.437  25.147  1.00  0.00     0.188 HD
HETATM   24  C14 UNL     1      15.572  -7.368  23.620  1.00  0.00     0.080 A 
ATOM     25  H5  UNL     1      17.271  -8.518  23.183  1.00  0.00     0.187 HD
HETATM   26  C15 UNL     1      14.422  -7.445  22.860  1.00  0.00     0.050 A 
HETATM   27  C17 UNL     1      15.387  -6.446  24.652  1.00  0.00     0.106 A 
HETATM   28  C16 UNL     1      13.544  -6.553  23.454  1.00  0.00     0.091 A 
HETATM   29  N6  UNL     1      14.131  -5.970  24.512  1.00  0.00    -0.361 N 
ATOM     30  H6  UNL     1      13.694  -5.275  25.118  1.00  0.00     0.165 HD
ENDBRANCH   5  20
TORSDOF 4
ENDMDL
MODEL 3
REMARK VINA RESULT: -7.970125498      1.737      3.267
REMARK  4 active torsions:
REMARK  status: ('A' for Active; 'I' for Inactive)
REMARK    1  A    between atoms: C2_2  and  C3_3 
REMARK    2  A    between atoms: C2_2  and  N1_5 
REMARK    3  A    between atoms: C11_13  and  N2_14 
REMARK       I    between atoms: N2_14  and  C12_16 
REMARK       I    between atoms: C12_16  and  N3_18 
REMARK    4  A    between atoms: N3_18  and  C13_20 
ROOT
HETATM    1  N2  UNL     1      18.010  -6.680  28.807  1.00  0.00    -0.322 N 
ATOM      2  H2  UNL     1      18.940  -6.523  28.419  1.00  0.00     0.166 HD
HETATM    3  C12 UNL     1      16.889  -6.370  27.983  1.00  0.00     0.323 C 
HETATM    4  O1  UNL     1      15.753  -6.571  28.482  1.00  0.00    -0.247 OA
HETATM    5  N3  UNL     1      16.962  -5.866  26.682  1.00  0.00    -0.292 N 
ATOM      6  H3  UNL     1      17.235  -4.889  26.581  1.00  0.00     0.172 HD
ENDROOT
BRANCH   1   7
HETATM    7  C11 UNL     1      17.929  -7.190  30.122  1.00  0.00     0.184 C 
HETATM    8  N1  UNL     1      17.524  -6.415  31.197  1.00  0.00    -0.383 N 
HETATM    9  C4  UNL     1      17.412  -7.203  32.376  1.00  0.00     0.082 C 
HETATM   10  C5  UNL     1      18.385  -6.902  33.465  1.00  0.00     0.025 C 
HETATM   11  C9  UNL     1      17.526  -8.711  32.126  1.00  0.00     0.029 C 
HETATM   12  C6  UNL     1      19.794  -7.355  33.177  1.00  0.00     0.002 C 
HETATM   13  C7  UNL     1      19.889  -8.748  32.643  1.00  0.00     0.005 C 
HETATM   14  C8  UNL     1      18.861  -8.957  31.520  1.00  0.00    -0.009 C 
HETATM   15  C10 UNL     1      19.214  -7.976  30.445  1.00  0.00     0.051 C 
BRANCH   8  16
HETATM   16  C2  UNL     1      17.780  -5.083  31.406  1.00  0.00     0.091 C 
HETATM   17  C1  UNL     1      18.871  -4.391  30.682  1.00  0.00     0.033 C 
BRANCH  16  18
HETATM   18  C3  UNL     1      16.509  -4.274  31.072  1.00  0.00     0.139 C 
HETATM   19 CL1  UNL     1      16.867  -3.226  29.671  1.00  0.00    -0.128 Cl
ENDBRANCH  16  18
ENDBRANCH   8  16
ENDBRANCH   1   7
BRANCH   5  20
HETATM   20  C13 UNL     1      16.717  -6.515  25.604  1.00  0.00     0.153 A 
HETATM   21  N4  UNL     1      17.580  -7.359  25.022  1.00  0.00    -0.283 N 
HETATM   22  N5  UNL     1      17.029  -7.863  23.932  1.00  0.00    -0.297 N 
ATOM     23  H4  UNL     1      18.515  -7.577  25.366  1.00  0.00     0.188 HD
HETATM   24  C14 UNL     1      15.788  -7.379  23.751  1.00  0.00     0.080 A 
ATOM     25  H5  UNL     1      17.485  -8.532  23.311  1.00  0.00     0.187 HD
HETATM   26  C15 UNL     1      14.665  -7.395  22.949  1.00  0.00     0.050 A 
HETATM   27  C17 UNL     1      15.582  -6.510  24.824  1.00  0.00     0.106 A 
HETATM   28  C16 UNL     1      13.781  -6.520  23.559  1.00  0.00     0.091 A 
HETATM   29  N6  UNL     1      14.339  -6.005  24.667  1.00  0.00    -0.361 N 
ATOM     30  H6  UNL     1      13.892  -5.336  25.294  1.00  0.00     0.165 HD
ENDBRANCH   5  20
TORSDOF 4
ENDMDL
MODEL 4
REMARK VINA RESULT: -7.953218310      1.693      2.000
REMARK  4 active torsions:
REMARK  status: ('A' for Active; 'I' for Inactive)
REMARK    1  A    between atoms: C2_2  and  C3_3 
REMARK    2  A    between atoms: C2_2  and  N1_5 
REMARK    3  A    between atoms: C11_13  and  N2_14 
REMARK       I    between atoms: N2_14  and  C12_16 
REMARK       I    between atoms: C12_16  and  N3_18 
REMARK    4  A    between atoms: N3_18  and  C13_20 
ROOT
HETATM    1  N2  UNL     1      17.076  -6.314  29.011  1.00  0.00    -0.322 N 
ATOM      2  H2  UNL     1      16.572  -7.172  29.241  1.00  0.00     0.166 HD
HETATM    3  C12 UNL     1      17.733  -6.253  27.748  1.00  0.00     0.323 C 
HETATM    4  O1  UNL     1      18.348  -5.188  27.486  1.00  0.00    -0.247 OA
HETATM    5  N3  UNL     1      17.743  -7.275  26.795  1.00  0.00    -0.292 N 
ATOM      6  H3  UNL     1      18.327  -8.087  26.996  1.00  0.00     0.172 HD
ENDROOT
BRANCH   1   7
HETATM    7  C11 UNL     1      17.070  -5.277  29.970  1.00  0.00     0.184 C 
HETATM    8  N1  UNL     1      16.956  -5.520  31.329  1.00  0.00    -0.383 N 
HETATM    9  C4  UNL     1      17.103  -4.316  32.073  1.00  0.00     0.082 C 
HETATM   10  C5  UNL     1      15.893  -3.838  32.799  1.00  0.00     0.025 C 
HETATM   11  C9  UNL     1      17.578  -3.124  31.234  1.00  0.00     0.029 C 
HETATM   12  C6  UNL     1      14.818  -3.271  31.906  1.00  0.00     0.002 C 
HETATM   13  C7  UNL     1      15.327  -2.316  30.874  1.00  0.00     0.005 C 
HETATM   14  C8  UNL     1      16.562  -2.901  30.172  1.00  0.00    -0.009 C 
HETATM   15  C10 UNL     1      16.107  -4.165  29.512  1.00  0.00     0.051 C 
BRANCH   8  16
HETATM   16  C2  UNL     1      16.213  -6.498  31.940  1.00  0.00     0.091 C 
HETATM   17  C1  UNL     1      15.011  -7.066  31.287  1.00  0.00     0.033 C 
BRANCH  16  18
HETATM   18  C3  UNL     1      17.122  -7.713  32.220  1.00  0.00     0.139 C 
HETATM   19 CL1  UNL     1      16.092  -9.167  32.329  1.00  0.00    -0.128 Cl
ENDBRANCH  16  18
ENDBRANCH   8  16
ENDBRANCH   1   7
BRANCH   5  20
HETATM   20  C13 UNL     1      17.088  -7.289  25.693  1.00  0.00     0.153 A 
HETATM   21  N4  UNL     1      17.439  -8.010  24.620  1.00  0.00    -0.283 N 
HETATM   22  N5  UNL     1      16.563  -7.806  23.652  1.00  0.00    -0.297 N 
ATOM     23  H4  UNL     1      18.254  -8.621  24.560  1.00  0.00     0.188 HD
HETATM   24  C14 UNL     1      15.604  -6.949  24.043  1.00  0.00     0.080 A 
ATOM     25  H5  UNL     1      16.608  -8.242  22.731  1.00  0.00     0.187 HD
HETATM   26  C15 UNL     1      14.452  -6.284  23.675  1.00  0.00     0.050 A 
HETATM   27  C17 UNL     1      15.938  -6.612  25.356  1.00  0.00     0.106 A 
HETATM   28  C16 UNL     1      14.099  -5.542  24.791  1.00  0.00     0.091 A 
HETATM   29  N6  UNL     1      14.989  -5.747  25.777  1.00  0.00    -0.361 N 
ATOM     30  H6  UNL     1      14.953  -5.316  26.700  1.00  0.00     0.165 HD
ENDBRANCH   5  20
TORSDOF 4
ENDMDL
MODEL 5
REMARK VINA RESULT: -7.890128388      1.244      1.296
REMARK  4 active torsions:
REMARK  status: ('A' for Active; 'I' for Inactive)
REMARK    1  A    between atoms: C2_2  and  C3_3 
REMARK    2  A    between atoms: C2_2  and  N1_5 
REMARK    3  A    between atoms: C11_13  and  N2_14 
REMARK       I    between atoms: N2_14  and  C12_16 
REMARK       I    between atoms: C12_16  and  N3_18 
REMARK    4  A    between atoms: N3_18  and  C13_20 
ROOT
HETATM    1  N2  UNL     1      16.902  -7.052  29.065  1.00  0.00    -0.322 N 
ATOM      2  H2  UNL     1      17.150  -8.042  29.098  1.00  0.00     0.166 HD
HETATM    3  C12 UNL     1      17.160  -6.346  27.854  1.00  0.00     0.323 C 
HETATM    4  O1  UNL     1      16.847  -5.129  27.837  1.00  0.00    -0.247 OA
HETATM    5  N3  UNL     1      17.727  -6.901  26.704  1.00  0.00    -0.292 N 
ATOM      6  H3  UNL     1      18.726  -7.102  26.734  1.00  0.00     0.172 HD
ENDROOT
BRANCH   1   7
HETATM    7  C11 UNL     1      16.328  -6.485  30.224  1.00  0.00     0.184 C 
HETATM    8  N1  UNL     1      17.011  -6.397  31.426  1.00  0.00    -0.383 N 
HETATM    9  C4  UNL     1      16.253  -5.675  32.389  1.00  0.00     0.082 C 
HETATM   10  C5  UNL     1      15.764  -6.452  33.562  1.00  0.00     0.025 C 
HETATM   11  C9  UNL     1      15.014  -4.982  31.808  1.00  0.00     0.029 C 
HETATM   12  C6  UNL     1      14.639  -7.406  33.247  1.00  0.00     0.002 C 
HETATM   13  C7  UNL     1      13.550  -6.809  32.415  1.00  0.00     0.005 C 
HETATM   14  C8  UNL     1      14.150  -6.042  31.227  1.00  0.00    -0.009 C 
HETATM   15  C10 UNL     1      14.909  -7.051  30.421  1.00  0.00     0.051 C 
BRANCH   8  16
HETATM   16  C2  UNL     1      17.903  -7.303  31.945  1.00  0.00     0.091 C 
HETATM   17  C1  UNL     1      17.718  -8.759  31.745  1.00  0.00     0.033 C 
BRANCH  16  18
HETATM   18  C3  UNL     1      19.306  -7.001  31.378  1.00  0.00     0.139 C 
HETATM   19 CL1  UNL     1      20.245  -8.519  31.375  1.00  0.00    -0.128 Cl
ENDBRANCH  16  18
ENDBRANCH   8  16
ENDBRANCH   1   7
BRANCH   5  20
HETATM   20  C13 UNL     1      17.110  -7.181  25.616  1.00  0.00     0.153 A 
HETATM   21  N4  UNL     1      17.561  -8.048  24.698  1.00  0.00    -0.283 N 
HETATM   22  N5  UNL     1      16.699  -8.111  23.699  1.00  0.00    -0.297 N 
ATOM     23  H4  UNL     1      18.431  -8.575  24.762  1.00  0.00     0.188 HD
HETATM   24  C14 UNL     1      15.651  -7.297  23.913  1.00  0.00     0.080 A 
ATOM     25  H5  UNL     1      16.813  -8.701  22.874  1.00  0.00     0.187 HD
HETATM   26  C15 UNL     1      14.452  -6.828  23.414  1.00  0.00     0.050 A 
HETATM   27  C17 UNL     1      15.911  -6.694  25.145  1.00  0.00     0.106 A 
HETATM   28  C16 UNL     1      13.997  -5.934  24.369  1.00  0.00     0.091 A 
HETATM   29  N6  UNL     1      14.871  -5.866  25.387  1.00  0.00    -0.361 N 
ATOM     30  H6  UNL     1      14.767  -5.280  26.215  1.00  0.00     0.165 HD
ENDBRANCH   5  20
TORSDOF 4
ENDMDL
