MODEL 1
REMARK VINA RESULT: -8.473043872      0.000      0.000
REMARK  4 active torsions:
REMARK  status: ('A' for Active; 'I' for Inactive)
REMARK    1  A    between atoms: C2_2  and  C3_3 
REMARK    2  A    between atoms: C3_3  and  N1_4 
REMARK       I    between atoms: N1_4  and  C4_5 
REMARK    3  A    between atoms: N1_4  and  C11_24 
REMARK       I    between atoms: C4_5  and  N2_7 
REMARK    4  A    between atoms: N2_7  and  C5_9 
ROOT
HETATM    1  N1  UNL     1      16.085  -2.882  30.452  1.00  0.00    -0.325 N 
HETATM    2  C4  UNL     1      15.279  -4.026  30.111  1.00  0.00     0.324 C 
HETATM    3  O1  UNL     1      14.054  -3.844  29.925  1.00  0.00    -0.247 OA
HETATM    4  N2  UNL     1      15.798  -5.335  29.979  1.00  0.00    -0.294 N 
ATOM      5  H2  UNL     1      15.923  -5.916  30.807  1.00  0.00     0.172 HD
ENDROOT
BRANCH   4   6
HETATM    6  C5  UNL     1      16.116  -5.799  28.814  1.00  0.00     0.111 A 
HETATM    7  C6  UNL     1      15.488  -5.368  27.666  1.00  0.00     0.080 A 
HETATM    8  C7  UNL     1      15.807  -5.845  26.414  1.00  0.00     0.067 A 
HETATM    9  N3  UNL     1      15.338  -5.579  25.166  1.00  0.00    -0.298 N 
HETATM   10  C9  UNL     1      16.806  -6.802  26.324  1.00  0.00     0.052 A 
HETATM   11  N4  UNL     1      16.009  -6.333  24.315  1.00  0.00    -0.285 N 
ATOM     12  H3  UNL     1      14.599  -4.916  24.930  1.00  0.00     0.187 HD
HETATM   13  C8  UNL     1      16.909  -7.090  24.984  1.00  0.00     0.127 A 
ATOM     14  H4  UNL     1      15.870  -6.343  23.305  1.00  0.00     0.188 HD
HETATM   15  N5  UNL     1      17.715  -7.926  24.450  1.00  0.00    -0.384 N 
ATOM     16  H52 UNL     1      17.791  -8.140  23.456  1.00  0.00     0.157 HD
ATOM     17  H51 UNL     1      18.393  -8.497  24.955  1.00  0.00     0.157 HD
HETATM   18  C10 UNL     1      17.428  -7.227  27.479  1.00  0.00     0.107 A 
HETATM   19  N6  UNL     1      17.080  -6.729  28.687  1.00  0.00    -0.351 N 
ATOM     20  H6  UNL     1      17.560  -7.066  29.521  1.00  0.00     0.166 HD
ENDBRANCH   4   6
BRANCH   1  21
HETATM   21  C3  UNL     1      17.479  -3.158  30.654  1.00  0.00     0.154 C 
BRANCH  21  22
HETATM   22  C2  UNL     1      17.859  -3.580  32.016  1.00  0.00    -0.017 C 
HETATM   23  C1  UNL     1      18.646  -2.824  32.763  1.00  0.00     0.008 C 
ENDBRANCH  21  22
ENDBRANCH   1  21
BRANCH   1  24
HETATM   24  C11 UNL     1      15.441  -1.613  30.510  1.00  0.00     0.093 C 
HETATM   25  C12 UNL     1      15.893  -0.685  29.378  1.00  0.00     0.026 C 
HETATM   26  C13 UNL     1      15.115   0.567  29.730  1.00  0.00     0.012 C 
HETATM   27  C14 UNL     1      15.203   0.594  31.227  1.00  0.00    -0.035 A 
HETATM   28  C15 UNL     1      16.014   1.728  31.775  1.00  0.00     0.010 A 
HETATM   29  C17 UNL     1      13.968   1.099  31.856  1.00  0.00     0.010 A 
HETATM   30  C18 UNL     1      15.730  -0.741  31.688  1.00  0.00     0.013 C 
HETATM   31  C16 UNL     1      14.755   2.258  32.439  1.00  0.00     0.002 A 
HETATM   32  C19 UNL     1      15.035  -1.247  32.920  1.00  0.00     0.012 C 
ENDBRANCH   1  24
TORSDOF 4
ENDMDL
MODEL 2
REMARK VINA RESULT: -8.301972967      1.728      2.993
REMARK  4 active torsions:
REMARK  status: ('A' for Active; 'I' for Inactive)
REMARK    1  A    between atoms: C2_2  and  C3_3 
REMARK    2  A    between atoms: C3_3  and  N1_4 
REMARK       I    between atoms: N1_4  and  C4_5 
REMARK    3  A    between atoms: N1_4  and  C11_24 
REMARK       I    between atoms: C4_5  and  N2_7 
REMARK    4  A    between atoms: N2_7  and  C5_9 
ROOT
HETATM    1  N1  UNL     1      15.788  -3.899  30.440  1.00  0.00    -0.325 N 
HETATM    2  C4  UNL     1      15.510  -3.519  29.079  1.00  0.00     0.324 C 
HETATM    3  O1  UNL     1      16.012  -2.452  28.656  1.00  0.00    -0.247 OA
HETATM    4  N2  UNL     1      14.704  -4.283  28.204  1.00  0.00    -0.294 N 
ATOM      5  H2  UNL     1      13.689  -4.183  28.233  1.00  0.00     0.172 HD
ENDROOT
BRANCH   4   6
HETATM    6  C5  UNL     1      15.244  -5.110  27.368  1.00  0.00     0.111 A 
HETATM    7  C6  UNL     1      14.778  -5.246  26.078  1.00  0.00     0.080 A 
HETATM    8  C7  UNL     1      15.334  -6.117  25.169  1.00  0.00     0.067 A 
HETATM    9  N3  UNL     1      15.054  -6.418  23.873  1.00  0.00    -0.298 N 
HETATM   10  C9  UNL     1      16.410  -6.884  25.587  1.00  0.00     0.052 A 
HETATM   11  N4  UNL     1      15.915  -7.339  23.480  1.00  0.00    -0.285 N 
ATOM     12  H3  UNL     1      14.312  -6.007  23.307  1.00  0.00     0.187 HD
HETATM   13  C8  UNL     1      16.754  -7.647  24.496  1.00  0.00     0.127 A 
ATOM     14  H4  UNL     1      15.944  -7.755  22.549  1.00  0.00     0.188 HD
HETATM   15  N5  UNL     1      17.702  -8.502  24.440  1.00  0.00    -0.384 N 
ATOM     16  H52 UNL     1      17.957  -9.068  23.630  1.00  0.00     0.157 HD
ATOM     17  H51 UNL     1      18.334  -8.734  25.206  1.00  0.00     0.157 HD
HETATM   18  C10 UNL     1      16.870  -6.742  26.879  1.00  0.00     0.107 A 
HETATM   19  N6  UNL     1      16.290  -5.872  27.737  1.00  0.00    -0.351 N 
ATOM     20  H6  UNL     1      16.654  -5.792  28.687  1.00  0.00     0.166 HD
ENDBRANCH   4   6
BRANCH   1  21
HETATM   21  C3  UNL     1      15.183  -5.130  30.864  1.00  0.00     0.154 C 
BRANCH  21  22
HETATM   22  C2  UNL     1      13.981  -4.996  31.709  1.00  0.00    -0.017 C 
HETATM   23  C1  UNL     1      12.797  -5.384  31.266  1.00  0.00     0.008 C 
ENDBRANCH  21  22
ENDBRANCH   1  21
BRANCH   1  24
HETATM   24  C11 UNL     1      16.653  -3.059  31.198  1.00  0.00     0.093 C 
HETATM   25  C12 UNL     1      17.766  -3.851  31.890  1.00  0.00     0.026 C 
HETATM   26  C13 UNL     1      18.459  -2.736  32.646  1.00  0.00     0.012 C 
HETATM   27  C14 UNL     1      17.308  -1.892  33.109  1.00  0.00    -0.035 A 
HETATM   28  C15 UNL     1      17.103  -1.892  34.593  1.00  0.00     0.010 A 
HETATM   29  C17 UNL     1      17.623  -0.451  33.095  1.00  0.00     0.010 A 
HETATM   30  C18 UNL     1      16.071  -2.348  32.376  1.00  0.00     0.013 C 
HETATM   31  C16 UNL     1      17.414  -0.405  34.597  1.00  0.00     0.002 A 
HETATM   32  C19 UNL     1      15.197  -1.206  31.944  1.00  0.00     0.012 C 
ENDBRANCH   1  24
TORSDOF 4
ENDMDL
MODEL 3
REMARK VINA RESULT: -8.290342946      2.398      3.831
REMARK  4 active torsions:
REMARK  status: ('A' for Active; 'I' for Inactive)
REMARK    1  A    between atoms: C2_2  and  C3_3 
REMARK    2  A    between atoms: C3_3  and  N1_4 
REMARK       I    between atoms: N1_4  and  C4_5 
REMARK    3  A    between atoms: N1_4  and  C11_24 
REMARK       I    between atoms: C4_5  and  N2_7 
REMARK    4  A    between atoms: N2_7  and  C5_9 
ROOT
HETATM    1  N1  UNL     1      16.090  -4.413  30.433  1.00  0.00    -0.325 N 
HETATM    2  C4  UNL     1      15.654  -3.761  29.225  1.00  0.00     0.324 C 
HETATM    3  O1  UNL     1      16.188  -2.669  28.925  1.00  0.00    -0.247 OA
HETATM    4  N2  UNL     1      14.660  -4.289  28.368  1.00  0.00    -0.294 N 
ATOM      5  H2  UNL     1      13.675  -4.128  28.577  1.00  0.00     0.172 HD
ENDROOT
BRANCH   4   6
HETATM    6  C5  UNL     1      14.993  -4.974  27.322  1.00  0.00     0.111 A 
HETATM    7  C6  UNL     1      16.061  -5.844  27.335  1.00  0.00     0.080 A 
HETATM    8  C7  UNL     1      16.435  -6.585  26.237  1.00  0.00     0.067 A 
HETATM    9  N3  UNL     1      17.428  -7.487  26.013  1.00  0.00    -0.298 N 
HETATM   10  C9  UNL     1      15.694  -6.436  25.075  1.00  0.00     0.052 A 
HETATM   11  N4  UNL     1      17.325  -7.896  24.762  1.00  0.00    -0.285 N 
ATOM     12  H3  UNL     1      18.128  -7.792  26.691  1.00  0.00     0.187 HD
HETATM   13  C8  UNL     1      16.283  -7.278  24.161  1.00  0.00     0.127 A 
ATOM     14  H4  UNL     1      17.940  -8.577  24.316  1.00  0.00     0.188 HD
HETATM   15  N5  UNL     1      15.916  -7.454  22.950  1.00  0.00    -0.384 N 
ATOM     16  H52 UNL     1      16.352  -8.079  22.272  1.00  0.00     0.157 HD
ATOM     17  H51 UNL     1      15.130  -6.987  22.497  1.00  0.00     0.157 HD
HETATM   18  C10 UNL     1      14.627  -5.562  25.072  1.00  0.00     0.107 A 
HETATM   19  N6  UNL     1      14.297  -4.855  26.176  1.00  0.00    -0.351 N 
ATOM     20  H6  UNL     1      13.503  -4.217  26.140  1.00  0.00     0.166 HD
ENDBRANCH   4   6
BRANCH   1  21
HETATM   21  C3  UNL     1      15.439  -5.659  30.721  1.00  0.00     0.154 C 
BRANCH  21  22
HETATM   22  C2  UNL     1      14.358  -5.602  31.724  1.00  0.00    -0.017 C 
HETATM   23  C1  UNL     1      13.103  -5.412  31.355  1.00  0.00     0.008 C 
ENDBRANCH  21  22
ENDBRANCH   1  21
BRANCH   1  24
HETATM   24  C11 UNL     1      17.131  -3.793  31.181  1.00  0.00     0.093 C 
HETATM   25  C12 UNL     1      18.393  -4.660  31.242  1.00  0.00     0.026 C 
HETATM   26  C13 UNL     1      19.269  -3.797  32.127  1.00  0.00     0.012 C 
HETATM   27  C14 UNL     1      18.292  -3.268  33.135  1.00  0.00    -0.035 A 
HETATM   28  C15 UNL     1      18.507  -3.778  34.528  1.00  0.00     0.010 A 
HETATM   29  C17 UNL     1      18.591  -1.881  33.537  1.00  0.00     0.010 A 
HETATM   30  C18 UNL     1      16.900  -3.571  32.641  1.00  0.00     0.013 C 
HETATM   31  C16 UNL     1      18.807  -2.355  34.963  1.00  0.00     0.002 A 
HETATM   32  C19 UNL     1      15.941  -2.439  32.872  1.00  0.00     0.012 C 
ENDBRANCH   1  24
TORSDOF 4
ENDMDL
MODEL 4
REMARK VINA RESULT: -8.256905324      4.052      5.943
REMARK  4 active torsions:
REMARK  status: ('A' for Active; 'I' for Inactive)
REMARK    1  A    between atoms: C2_2  and  C3_3 
REMARK    2  A    between atoms: C3_3  and  N1_4 
REMARK       I    between atoms: N1_4  and  C4_5 
REMARK    3  A    between atoms: N1_4  and  C11_24 
REMARK       I    between atoms: C4_5  and  N2_7 
REMARK    4  A    between atoms: N2_7  and  C5_9 
ROOT
HETATM    1  N1  UNL     1      17.444  -5.707  30.391  1.00  0.00    -0.325 N 
HETATM    2  C4  UNL     1      17.857  -5.006  29.202  1.00  0.00     0.324 C 
HETATM    3  O1  UNL     1      19.079  -4.986  28.930  1.00  0.00    -0.247 OA
HETATM    4  N2  UNL     1      16.957  -4.345  28.334  1.00  0.00    -0.294 N 
ATOM      5  H2  UNL     1      16.650  -3.397  28.550  1.00  0.00     0.172 HD
ENDROOT
BRANCH   4   6
HETATM    6  C5  UNL     1      16.519  -4.935  27.269  1.00  0.00     0.111 A 
HETATM    7  C6  UNL     1      17.247  -5.919  26.635  1.00  0.00     0.080 A 
HETATM    8  C7  UNL     1      16.805  -6.563  25.502  1.00  0.00     0.067 A 
HETATM    9  N3  UNL     1      17.333  -7.541  24.718  1.00  0.00    -0.298 N 
HETATM   10  C9  UNL     1      15.572  -6.193  24.989  1.00  0.00     0.052 A 
HETATM   11  N4  UNL     1      16.472  -7.785  23.746  1.00  0.00    -0.285 N 
ATOM     12  H3  UNL     1      18.232  -8.003  24.856  1.00  0.00     0.187 HD
HETATM   13  C8  UNL     1      15.391  -6.983  23.878  1.00  0.00     0.127 A 
ATOM     14  H4  UNL     1      16.604  -8.475  23.006  1.00  0.00     0.188 HD
HETATM   15  N5  UNL     1      14.379  -6.971  23.099  1.00  0.00    -0.384 N 
ATOM     16  H52 UNL     1      14.245  -7.557  22.275  1.00  0.00     0.157 HD
ATOM     17  H51 UNL     1      13.564  -6.366  23.198  1.00  0.00     0.157 HD
HETATM   18  C10 UNL     1      14.851  -5.206  25.630  1.00  0.00     0.107 A 
HETATM   19  N6  UNL     1      15.327  -4.602  26.741  1.00  0.00    -0.351 N 
ATOM     20  H6  UNL     1      14.770  -3.876  27.191  1.00  0.00     0.166 HD
ENDBRANCH   4   6
BRANCH   1  21
HETATM   21  C3  UNL     1      16.032  -5.692  30.647  1.00  0.00     0.154 C 
BRANCH  21  22
HETATM   22  C2  UNL     1      15.298  -6.915  30.268  1.00  0.00    -0.017 C 
HETATM   23  C1  UNL     1      14.920  -7.788  31.186  1.00  0.00     0.008 C 
ENDBRANCH  21  22
ENDBRANCH   1  21
BRANCH   1  24
HETATM   24  C11 UNL     1      18.451  -6.367  31.152  1.00  0.00     0.093 C 
HETATM   25  C12 UNL     1      18.762  -7.765  30.608  1.00  0.00     0.026 C 
HETATM   26  C13 UNL     1      19.785  -8.228  31.626  1.00  0.00     0.012 C 
HETATM   27  C14 UNL     1      19.232  -7.685  32.911  1.00  0.00    -0.035 A 
HETATM   28  C15 UNL     1      18.761  -8.736  33.870  1.00  0.00     0.010 A 
HETATM   29  C17 UNL     1      20.291  -7.237  33.835  1.00  0.00     0.010 A 
HETATM   30  C18 UNL     1      18.135  -6.708  32.572  1.00  0.00     0.013 C 
HETATM   31  C16 UNL     1      19.837  -8.280  34.840  1.00  0.00     0.002 A 
HETATM   32  C19 UNL     1      18.157  -5.484  33.442  1.00  0.00     0.012 C 
ENDBRANCH   1  24
TORSDOF 4
ENDMDL
MODEL 5
REMARK VINA RESULT: -8.217997968      2.284      3.964
REMARK  4 active torsions:
REMARK  status: ('A' for Active; 'I' for Inactive)
REMARK    1  A    between atoms: C2_2  and  C3_3 
REMARK    2  A    between atoms: C3_3  and  N1_4 
REMARK       I    between atoms: N1_4  and  C4_5 
REMARK    3  A    between atoms: N1_4  and  C11_24 
REMARK       I    between atoms: C4_5  and  N2_7 
REMARK    4  A    between atoms: N2_7  and  C5_9 
ROOT
HETATM    1  N1  UNL     1      15.396  -4.398  30.241  1.00  0.00    -0.325 N 
HETATM    2  C4  UNL     1      16.344  -5.301  29.642  1.00  0.00     0.324 C 
HETATM    3  O1  UNL     1      16.563  -6.388  30.223  1.00  0.00    -0.247 OA
HETATM    4  N2  UNL     1      17.036  -5.023  28.440  1.00  0.00    -0.294 N 
ATOM      5  H2  UNL     1      17.885  -4.459  28.464  1.00  0.00     0.172 HD
ENDROOT
BRANCH   4   6
HETATM    6  C5  UNL     1      16.598  -5.479  27.311  1.00  0.00     0.111 A 
HETATM    7  C6  UNL     1      17.275  -6.454  26.611  1.00  0.00     0.080 A 
HETATM    8  C7  UNL     1      16.832  -6.956  25.409  1.00  0.00     0.067 A 
HETATM    9  N3  UNL     1      17.317  -7.896  24.554  1.00  0.00    -0.298 N 
HETATM   10  C9  UNL     1      15.650  -6.448  24.894  1.00  0.00     0.052 A 
HETATM   11  N4  UNL     1      16.479  -7.984  23.537  1.00  0.00    -0.285 N 
ATOM     12  H3  UNL     1      18.173  -8.436  24.677  1.00  0.00     0.187 HD
HETATM   13  C8  UNL     1      15.455  -7.117  23.710  1.00  0.00     0.127 A 
ATOM     14  H4  UNL     1      16.588  -8.612  22.741  1.00  0.00     0.188 HD
HETATM   15  N5  UNL     1      14.477  -6.958  22.903  1.00  0.00    -0.384 N 
ATOM     16  H52 UNL     1      14.332  -7.455  22.024  1.00  0.00     0.157 HD
ATOM     17  H51 UNL     1      13.705  -6.304  23.033  1.00  0.00     0.157 HD
HETATM   18  C10 UNL     1      14.979  -5.472  25.602  1.00  0.00     0.107 A 
HETATM   19  N6  UNL     1      15.455  -5.009  26.780  1.00  0.00    -0.351 N 
ATOM     20  H6  UNL     1      14.934  -4.286  27.277  1.00  0.00     0.166 HD
ENDBRANCH   4   6
BRANCH   1  21
HETATM   21  C3  UNL     1      15.191  -3.169  29.527  1.00  0.00     0.154 C 
BRANCH  21  22
HETATM   22  C2  UNL     1      16.104  -2.064  29.877  1.00  0.00    -0.017 C 
HETATM   23  C1  UNL     1      15.636  -0.934  30.380  1.00  0.00     0.008 C 
ENDBRANCH  21  22
ENDBRANCH   1  21
BRANCH   1  24
HETATM   24  C11 UNL     1      14.738  -4.822  31.430  1.00  0.00     0.093 C 
HETATM   25  C12 UNL     1      13.246  -5.083  31.203  1.00  0.00     0.026 C 
HETATM   26  C13 UNL     1      12.818  -5.443  32.611  1.00  0.00     0.012 C 
HETATM   27  C14 UNL     1      13.616  -4.486  33.448  1.00  0.00    -0.035 A 
HETATM   28  C15 UNL     1      12.792  -3.455  34.158  1.00  0.00     0.010 A 
HETATM   29  C17 UNL     1      14.063  -5.086  34.719  1.00  0.00     0.010 A 
HETATM   30  C18 UNL     1      14.660  -3.852  32.565  1.00  0.00     0.013 C 
HETATM   31  C16 UNL     1      13.250  -4.052  35.477  1.00  0.00     0.002 A 
HETATM   32  C19 UNL     1      15.990  -3.709  33.247  1.00  0.00     0.012 C 
ENDBRANCH   1  24
TORSDOF 4
ENDMDL
