MODEL 1
REMARK VINA RESULT: -8.981055160      0.000      0.000
REMARK  6 active torsions:
REMARK  status: ('A' for Active; 'I' for Inactive)
REMARK    1  A    between atoms: C2_2  and  C4_4 
REMARK    2  A    between atoms: C6_6  and  N1_7 
REMARK       I    between atoms: N1_7  and  C7_9 
REMARK       I    between atoms: C7_9  and  N2_11 
REMARK    3  A    between atoms: N2_11  and  C8_13 
REMARK    4  A    between atoms: C11_16  and  N3_17 
REMARK       I    between atoms: N3_17  and  C12_19 
REMARK    5  A    between atoms: C12_19  and  O3_21 
REMARK    6  A    between atoms: O3_21  and  C13_22 
ROOT
HETATM    1  C8  UNL     1      18.313 -13.531  20.398  1.00  0.00     0.106 C 
HETATM    2  C9  UNL     1      18.294 -14.760  19.515  1.00  0.00     0.084 C 
HETATM    3  C10 UNL     1      19.100 -15.813  20.255  1.00  0.00     0.037 C 
HETATM    4  C11 UNL     1      20.490 -15.339  20.546  1.00  0.00     0.087 C 
HETATM    5  C17 UNL     1      20.700 -13.863  20.468  1.00  0.00     0.037 C 
HETATM    6  C18 UNL     1      19.593 -13.157  19.699  1.00  0.00     0.084 C 
HETATM    7  C19 UNL     1      19.133 -13.980  18.513  1.00  0.00     0.255 C 
HETATM    8  F1  UNL     1      18.350 -13.298  17.643  1.00  0.00    -0.205 F 
HETATM    9  F2  UNL     1      20.140 -14.738  17.934  1.00  0.00    -0.205 F 
ENDROOT
BRANCH   1  10
HETATM   10  N2  UNL     1      17.174 -12.701  20.189  1.00  0.00    -0.337 N 
HETATM   11  C7  UNL     1      16.141 -12.686  21.200  1.00  0.00     0.316 C 
HETATM   12  N1  UNL     1      14.987 -11.887  21.058  1.00  0.00    -0.338 N 
HETATM   13  O1  UNL     1      16.282 -13.400  22.223  1.00  0.00    -0.247 OA
ATOM     14  H1  UNL     1      14.932 -11.333  20.203  1.00  0.00     0.164 HD
ATOM     15  H2  UNL     1      17.089 -12.132  19.347  1.00  0.00     0.164 HD
BRANCH  12  16
HETATM   16  C6  UNL     1      13.890 -11.756  21.953  1.00  0.00     0.087 C 
HETATM   17  C5  UNL     1      13.464 -10.309  22.112  1.00  0.00     0.034 C 
HETATM   18  C4  UNL     1      12.031 -10.802  22.092  1.00  0.00     0.017 C 
HETATM   19  C20 UNL     1      12.504 -12.034  21.407  1.00  0.00     0.034 C 
BRANCH  18  20
HETATM   20  C2  UNL     1      11.441 -10.894  23.430  1.00  0.00    -0.089 C 
HETATM   21  C1  UNL     1      10.868 -11.941  23.981  1.00  0.00     0.014 C 
HETATM   22  C3  UNL     1      11.518  -9.609  24.240  1.00  0.00     0.043 C 
ENDBRANCH  18  20
ENDBRANCH  12  16
ENDBRANCH   1  10
BRANCH   4  23
HETATM   23  N3  UNL     1      20.815 -15.789  21.886  1.00  0.00    -0.332 N 
HETATM   24  C12 UNL     1      20.291 -15.135  23.029  1.00  0.00     0.361 C 
HETATM   25  O2  UNL     1      19.513 -14.127  22.924  1.00  0.00    -0.238 OA
ATOM     26  H3  UNL     1      21.432 -16.591  22.009  1.00  0.00     0.165 HD
BRANCH  24  27
HETATM   27  O3  UNL     1      20.580 -15.538  24.321  1.00  0.00    -0.294 OA
BRANCH  27  28
HETATM   28  C13 UNL     1      21.489 -14.890  25.158  1.00  0.00     0.061 C 
HETATM   29  C14 UNL     1      21.897 -15.907  26.230  1.00  0.00     0.046 C 
HETATM   30  C15 UNL     1      22.781 -14.507  24.460  1.00  0.00     0.046 C 
HETATM   31  C16 UNL     1      20.924 -13.705  25.884  1.00  0.00     0.046 C 
ENDBRANCH  27  28
ENDBRANCH  24  27
ENDBRANCH   4  23
TORSDOF 6
ENDMDL
MODEL 2
REMARK VINA RESULT: -8.970819678      6.753     10.584
REMARK  6 active torsions:
REMARK  status: ('A' for Active; 'I' for Inactive)
REMARK    1  A    between atoms: C2_2  and  C4_4 
REMARK    2  A    between atoms: C6_6  and  N1_7 
REMARK       I    between atoms: N1_7  and  C7_9 
REMARK       I    between atoms: C7_9  and  N2_11 
REMARK    3  A    between atoms: N2_11  and  C8_13 
REMARK    4  A    between atoms: C11_16  and  N3_17 
REMARK       I    between atoms: N3_17  and  C12_19 
REMARK    5  A    between atoms: C12_19  and  O3_21 
REMARK    6  A    between atoms: O3_21  and  C13_22 
ROOT
HETATM    1  C8  UNL     1      18.908 -12.675  14.194  1.00  0.00     0.106 C 
HETATM    2  C9  UNL     1      18.953 -11.183  13.941  1.00  0.00     0.084 C 
HETATM    3  C10 UNL     1      17.591 -10.819  13.374  1.00  0.00     0.037 C 
HETATM    4  C11 UNL     1      17.283 -11.601  12.135  1.00  0.00     0.087 C 
HETATM    5  C17 UNL     1      18.100 -12.834  11.928  1.00  0.00     0.037 C 
HETATM    6  C18 UNL     1      19.367 -12.841  12.770  1.00  0.00     0.084 C 
HETATM    7  C19 UNL     1      19.983 -11.459  12.854  1.00  0.00     0.255 C 
HETATM    8  F1  UNL     1      21.241 -11.449  13.357  1.00  0.00    -0.205 F 
HETATM    9  F2  UNL     1      19.794 -10.694  11.713  1.00  0.00    -0.205 F 
ENDROOT
BRANCH   1  10
HETATM   10  N2  UNL     1      19.800 -13.071  15.232  1.00  0.00    -0.337 N 
HETATM   11  C7  UNL     1      19.309 -13.087  16.591  1.00  0.00     0.316 C 
HETATM   12  N1  UNL     1      20.137 -13.468  17.666  1.00  0.00    -0.338 N 
HETATM   13  O1  UNL     1      18.118 -12.753  16.810  1.00  0.00    -0.247 OA
ATOM     14  H1  UNL     1      21.094 -13.726  17.422  1.00  0.00     0.164 HD
ATOM     15  H2  UNL     1      20.762 -13.337  15.021  1.00  0.00     0.164 HD
BRANCH  12  16
HETATM   16  C6  UNL     1      19.811 -13.541  19.048  1.00  0.00     0.087 C 
HETATM   17  C5  UNL     1      20.040 -14.932  19.609  1.00  0.00     0.034 C 
HETATM   18  C4  UNL     1      20.592 -14.263  20.852  1.00  0.00     0.017 C 
HETATM   19  C20 UNL     1      20.845 -13.044  20.040  1.00  0.00     0.034 C 
BRANCH  18  20
HETATM   20  C2  UNL     1      19.627 -14.218  21.952  1.00  0.00    -0.089 C 
HETATM   21  C1  UNL     1      18.357 -13.885  21.889  1.00  0.00     0.014 C 
HETATM   22  C3  UNL     1      20.200 -14.606  23.307  1.00  0.00     0.043 C 
ENDBRANCH  18  20
ENDBRANCH  12  16
ENDBRANCH   1  10
BRANCH   4  23
HETATM   23  N3  UNL     1      15.884 -11.973  12.211  1.00  0.00    -0.332 N 
HETATM   24  C12 UNL     1      15.084 -12.072  11.046  1.00  0.00     0.361 C 
HETATM   25  O2  UNL     1      15.563 -11.839   9.885  1.00  0.00    -0.238 OA
ATOM     26  H3  UNL     1      15.467 -12.167  13.121  1.00  0.00     0.165 HD
BRANCH  24  27
HETATM   27  O3  UNL     1      13.746 -12.425  11.083  1.00  0.00    -0.294 OA
BRANCH  27  28
HETATM   28  C13 UNL     1      13.221 -13.567  10.477  1.00  0.00     0.061 C 
HETATM   29  C14 UNL     1      11.894 -13.866  11.186  1.00  0.00     0.046 C 
HETATM   30  C15 UNL     1      12.855 -13.360   9.019  1.00  0.00     0.046 C 
HETATM   31  C16 UNL     1      14.072 -14.793  10.627  1.00  0.00     0.046 C 
ENDBRANCH  27  28
ENDBRANCH  24  27
ENDBRANCH   4  23
TORSDOF 6
ENDMDL
MODEL 3
REMARK VINA RESULT: -8.920381462      1.031      1.161
REMARK  6 active torsions:
REMARK  status: ('A' for Active; 'I' for Inactive)
REMARK    1  A    between atoms: C2_2  and  C4_4 
REMARK    2  A    between atoms: C6_6  and  N1_7 
REMARK       I    between atoms: N1_7  and  C7_9 
REMARK       I    between atoms: C7_9  and  N2_11 
REMARK    3  A    between atoms: N2_11  and  C8_13 
REMARK    4  A    between atoms: C11_16  and  N3_17 
REMARK       I    between atoms: N3_17  and  C12_19 
REMARK    5  A    between atoms: C12_19  and  O3_21 
REMARK    6  A    between atoms: O3_21  and  C13_22 
ROOT
HETATM    1  C8  UNL     1      18.468 -13.331  20.580  1.00  0.00     0.106 C 
HETATM    2  C9  UNL     1      18.516 -14.806  20.243  1.00  0.00     0.084 C 
HETATM    3  C10 UNL     1      19.529 -15.415  21.197  1.00  0.00     0.037 C 
HETATM    4  C11 UNL     1      20.868 -14.756  21.073  1.00  0.00     0.087 C 
HETATM    5  C17 UNL     1      20.872 -13.418  20.409  1.00  0.00     0.037 C 
HETATM    6  C18 UNL     1      19.605 -13.162  19.606  1.00  0.00     0.084 C 
HETATM    7  C19 UNL     1      19.132 -14.420  18.905  1.00  0.00     0.255 C 
HETATM    8  F1  UNL     1      18.176 -14.200  17.970  1.00  0.00    -0.205 F 
HETATM    9  F2  UNL     1      20.162 -15.261  18.513  1.00  0.00    -0.205 F 
ENDROOT
BRANCH   1  10
HETATM   10  N2  UNL     1      17.213 -12.744  20.246  1.00  0.00    -0.337 N 
HETATM   11  C7  UNL     1      16.181 -12.711  21.256  1.00  0.00     0.316 C 
HETATM   12  N1  UNL     1      14.916 -12.145  20.994  1.00  0.00    -0.338 N 
HETATM   13  O1  UNL     1      16.423 -13.198  22.388  1.00  0.00    -0.247 OA
ATOM     14  H1  UNL     1      14.783 -11.769  20.055  1.00  0.00     0.164 HD
ATOM     15  H2  UNL     1      17.049 -12.356  19.317  1.00  0.00     0.164 HD
BRANCH  12  16
HETATM   16  C6  UNL     1      13.803 -12.031  21.871  1.00  0.00     0.087 C 
HETATM   17  C5  UNL     1      13.443 -10.581  22.138  1.00  0.00     0.034 C 
HETATM   18  C4  UNL     1      11.989 -10.998  22.044  1.00  0.00     0.017 C 
HETATM   19  C20 UNL     1      12.419 -12.193  21.272  1.00  0.00     0.034 C 
BRANCH  18  20
HETATM   20  C2  UNL     1      11.358 -11.168  23.355  1.00  0.00    -0.089 C 
HETATM   21  C1  UNL     1      10.780 -12.248  23.830  1.00  0.00     0.014 C 
HETATM   22  C3  UNL     1      11.396  -9.927  24.235  1.00  0.00     0.043 C 
ENDBRANCH  18  20
ENDBRANCH  12  16
ENDBRANCH   1  10
BRANCH   4  23
HETATM   23  N3  UNL     1      21.392 -14.614  22.417  1.00  0.00    -0.332 N 
HETATM   24  C12 UNL     1      21.834 -15.738  23.157  1.00  0.00     0.361 C 
HETATM   25  O2  UNL     1      21.789 -16.918  22.670  1.00  0.00    -0.238 OA
ATOM     26  H3  UNL     1      21.443 -13.687  22.838  1.00  0.00     0.165 HD
BRANCH  24  27
HETATM   27  O3  UNL     1      22.339 -15.638  24.442  1.00  0.00    -0.294 OA
BRANCH  27  28
HETATM   28  C13 UNL     1      21.551 -15.495  25.584  1.00  0.00     0.061 C 
HETATM   29  C14 UNL     1      22.132 -16.444  26.638  1.00  0.00     0.046 C 
HETATM   30  C15 UNL     1      21.636 -14.112  26.204  1.00  0.00     0.046 C 
HETATM   31  C16 UNL     1      20.115 -15.889  25.398  1.00  0.00     0.046 C 
ENDBRANCH  27  28
ENDBRANCH  24  27
ENDBRANCH   4  23
TORSDOF 6
ENDMDL
MODEL 4
REMARK VINA RESULT: -8.859794962      6.746     10.565
REMARK  6 active torsions:
REMARK  status: ('A' for Active; 'I' for Inactive)
REMARK    1  A    between atoms: C2_2  and  C4_4 
REMARK    2  A    between atoms: C6_6  and  N1_7 
REMARK       I    between atoms: N1_7  and  C7_9 
REMARK       I    between atoms: C7_9  and  N2_11 
REMARK    3  A    between atoms: N2_11  and  C8_13 
REMARK    4  A    between atoms: C11_16  and  N3_17 
REMARK       I    between atoms: N3_17  and  C12_19 
REMARK    5  A    between atoms: C12_19  and  O3_21 
REMARK    6  A    between atoms: O3_21  and  C13_22 
ROOT
HETATM    1  C8  UNL     1      18.856 -12.911  14.150  1.00  0.00     0.106 C 
HETATM    2  C9  UNL     1      18.613 -11.443  13.871  1.00  0.00     0.084 C 
HETATM    3  C10 UNL     1      17.214 -11.359  13.286  1.00  0.00     0.037 C 
HETATM    4  C11 UNL     1      17.079 -12.205  12.058  1.00  0.00     0.087 C 
HETATM    5  C17 UNL     1      18.123 -13.258  11.879  1.00  0.00     0.037 C 
HETATM    6  C18 UNL     1      19.357 -13.006  12.733  1.00  0.00     0.084 C 
HETATM    7  C19 UNL     1      19.691 -11.529  12.799  1.00  0.00     0.255 C 
HETATM    8  F1  UNL     1      20.917 -11.266  13.313  1.00  0.00    -0.205 F 
HETATM    9  F2  UNL     1      19.371 -10.833  11.644  1.00  0.00    -0.205 F 
ENDROOT
BRANCH   1  10
HETATM   10  N2  UNL     1      19.796 -13.110  15.202  1.00  0.00    -0.337 N 
HETATM   11  C7  UNL     1      19.303 -13.179  16.558  1.00  0.00     0.316 C 
HETATM   12  N1  UNL     1      20.176 -13.375  17.648  1.00  0.00    -0.338 N 
HETATM   13  O1  UNL     1      18.069 -13.063  16.763  1.00  0.00    -0.247 OA
ATOM     14  H1  UNL     1      21.166 -13.460  17.415  1.00  0.00     0.164 HD
ATOM     15  H2  UNL     1      20.792 -13.202  15.003  1.00  0.00     0.164 HD
BRANCH  12  16
HETATM   16  C6  UNL     1      19.856 -13.469  19.030  1.00  0.00     0.087 C 
HETATM   17  C5  UNL     1      20.085 -14.870  19.567  1.00  0.00     0.034 C 
HETATM   18  C4  UNL     1      20.643 -14.222  20.818  1.00  0.00     0.017 C 
HETATM   19  C20 UNL     1      20.894 -12.991  20.025  1.00  0.00     0.034 C 
BRANCH  18  20
HETATM   20  C2  UNL     1      19.682 -14.193  21.923  1.00  0.00    -0.089 C 
HETATM   21  C1  UNL     1      18.405 -13.888  21.864  1.00  0.00     0.014 C 
HETATM   22  C3  UNL     1      20.270 -14.563  23.277  1.00  0.00     0.043 C 
ENDBRANCH  18  20
ENDBRANCH  12  16
ENDBRANCH   1  10
BRANCH   4  23
HETATM   23  N3  UNL     1      15.778 -12.841  12.127  1.00  0.00    -0.332 N 
HETATM   24  C12 UNL     1      14.904 -12.853  11.013  1.00  0.00     0.361 C 
HETATM   25  O2  UNL     1      15.228 -12.306   9.905  1.00  0.00    -0.238 OA
ATOM     26  H3  UNL     1      15.486 -13.288  12.996  1.00  0.00     0.165 HD
BRANCH  24  27
HETATM   27  O3  UNL     1      13.656 -13.451  11.045  1.00  0.00    -0.294 OA
BRANCH  27  28
HETATM   28  C13 UNL     1      12.451 -12.748  11.020  1.00  0.00     0.061 C 
HETATM   29  C14 UNL     1      11.471 -13.531  11.901  1.00  0.00     0.046 C 
HETATM   30  C15 UNL     1      12.544 -11.372  11.655  1.00  0.00     0.046 C 
HETATM   31  C16 UNL     1      11.821 -12.648   9.662  1.00  0.00     0.046 C 
ENDBRANCH  27  28
ENDBRANCH  24  27
ENDBRANCH   4  23
TORSDOF 6
ENDMDL
MODEL 5
REMARK VINA RESULT: -8.636098120      4.222      8.479
REMARK  6 active torsions:
REMARK  status: ('A' for Active; 'I' for Inactive)
REMARK    1  A    between atoms: C2_2  and  C4_4 
REMARK    2  A    between atoms: C6_6  and  N1_7 
REMARK       I    between atoms: N1_7  and  C7_9 
REMARK       I    between atoms: C7_9  and  N2_11 
REMARK    3  A    between atoms: N2_11  and  C8_13 
REMARK    4  A    between atoms: C11_16  and  N3_17 
REMARK       I    between atoms: N3_17  and  C12_19 
REMARK    5  A    between atoms: C12_19  and  O3_21 
REMARK    6  A    between atoms: O3_21  and  C13_22 
ROOT
HETATM    1  C8  UNL     1      16.952 -14.109  18.909  1.00  0.00     0.106 C 
HETATM    2  C9  UNL     1      15.707 -14.629  18.224  1.00  0.00     0.084 C 
HETATM    3  C10 UNL     1      15.988 -14.543  16.734  1.00  0.00     0.037 C 
HETATM    4  C11 UNL     1      16.329 -13.146  16.317  1.00  0.00     0.087 C 
HETATM    5  C17 UNL     1      16.744 -12.225  17.418  1.00  0.00     0.037 C 
HETATM    6  C18 UNL     1      16.337 -12.739  18.791  1.00  0.00     0.084 C 
HETATM    7  C19 UNL     1      14.976 -13.402  18.751  1.00  0.00     0.255 C 
HETATM    8  F1  UNL     1      14.445 -13.637  19.976  1.00  0.00    -0.205 F 
HETATM    9  F2  UNL     1      14.108 -12.842  17.827  1.00  0.00    -0.205 F 
ENDROOT
BRANCH   1  10
HETATM   10  N2  UNL     1      17.115 -14.655  20.215  1.00  0.00    -0.337 N 
HETATM   11  C7  UNL     1      18.224 -14.194  21.018  1.00  0.00     0.316 C 
HETATM   12  N1  UNL     1      18.445 -14.692  22.319  1.00  0.00    -0.338 N 
HETATM   13  O1  UNL     1      19.003 -13.332  20.541  1.00  0.00    -0.247 OA
ATOM     14  H1  UNL     1      17.779 -15.392  22.646  1.00  0.00     0.164 HD
ATOM     15  H2  UNL     1      16.465 -15.354  20.573  1.00  0.00     0.164 HD
BRANCH  12  16
HETATM   16  C6  UNL     1      19.477 -14.344  23.233  1.00  0.00     0.087 C 
HETATM   17  C5  UNL     1      19.207 -14.892  24.622  1.00  0.00     0.034 C 
HETATM   18  C4  UNL     1      20.686 -15.214  24.704  1.00  0.00     0.017 C 
HETATM   19  C20 UNL     1      20.738 -15.185  23.219  1.00  0.00     0.034 C 
BRANCH  18  20
HETATM   20  C2  UNL     1      21.443 -14.228  25.479  1.00  0.00    -0.089 C 
HETATM   21  C1  UNL     1      20.985 -13.418  26.407  1.00  0.00     0.014 C 
HETATM   22  C3  UNL     1      22.924 -14.166  25.139  1.00  0.00     0.043 C 
ENDBRANCH  18  20
ENDBRANCH  12  16
ENDBRANCH   1  10
BRANCH   4  23
HETATM   23  N3  UNL     1      17.411 -13.246  15.357  1.00  0.00    -0.332 N 
HETATM   24  C12 UNL     1      17.196 -13.004  13.978  1.00  0.00     0.361 C 
HETATM   25  O2  UNL     1      16.043 -12.687  13.527  1.00  0.00    -0.238 OA
ATOM     26  H3  UNL     1      18.345 -13.497  15.680  1.00  0.00     0.165 HD
BRANCH  24  27
HETATM   27  O3  UNL     1      18.205 -13.091  13.035  1.00  0.00    -0.294 OA
BRANCH  27  28
HETATM   28  C13 UNL     1      19.178 -12.110  12.837  1.00  0.00     0.061 C 
HETATM   29  C14 UNL     1      19.618 -12.221  11.373  1.00  0.00     0.046 C 
HETATM   30  C15 UNL     1      18.646 -10.697  12.987  1.00  0.00     0.046 C 
HETATM   31  C16 UNL     1      20.413 -12.287  13.670  1.00  0.00     0.046 C 
ENDBRANCH  27  28
ENDBRANCH  24  27
ENDBRANCH   4  23
TORSDOF 6
ENDMDL
