MODEL 1
REMARK VINA RESULT: -9.451573436      0.000      0.000
REMARK  13 active torsions:
REMARK  status: ('A' for Active; 'I' for Inactive)
REMARK    1  A    between atoms: C2_2  and  C3_3 
REMARK    2  A    between atoms: C3_3  and  C4_4 
REMARK    3  A    between atoms: C3_3  and  C17_25 
REMARK    4  A    between atoms: C5_5  and  C6_6 
REMARK    5  A    between atoms: C6_6  and  C7_7 
REMARK    6  A    between atoms: C8_8  and  O1_9 
REMARK    7  A    between atoms: C10_12  and  O2_13 
REMARK    8  A    between atoms: C11_15  and  C12_16 
REMARK    9  A    between atoms: C12_16  and  C13_17 
REMARK   10  A    between atoms: C13_17  and  C14_18 
REMARK   11  A    between atoms: C14_18  and  O3_19 
REMARK   12  A    between atoms: C14_18  and  C15_21 
REMARK   13  A    between atoms: C15_21  and  C16_22 
ROOT
HETATM    1  C7  UNL     1      49.613  50.881  16.902  1.00  0.00     0.024 C 
HETATM    2  C8  UNL     1      50.323  50.429  15.665  1.00  0.00     0.125 C 
HETATM    3  C9  UNL     1      49.942  48.996  15.400  1.00  0.00     0.064 C 
HETATM    4  C10 UNL     1      49.118  48.517  16.581  1.00  0.00     0.125 C 
HETATM    5  C11 UNL     1      48.988  49.645  17.520  1.00  0.00     0.021 C 
ENDROOT
BRANCH   1   6
HETATM    6  C6  UNL     1      48.478  51.830  16.441  1.00  0.00     0.034 C 
BRANCH   6   7
HETATM    7  C5  UNL     1      48.108  52.750  17.500  1.00  0.00    -0.030 C 
HETATM    8  C4  UNL     1      48.497  53.902  17.805  1.00  0.00    -0.025 C 
BRANCH   8   9
HETATM    9  C3  UNL     1      49.450  54.928  17.350  1.00  0.00     0.015 C 
BRANCH   9  10
HETATM   10  C2  UNL     1      48.867  56.141  16.741  1.00  0.00     0.005 C 
HETATM   11  C1  UNL     1      47.686  55.872  15.798  1.00  0.00     0.006 C 
ENDBRANCH   9  10
BRANCH   9  12
HETATM   12  C17 UNL     1      50.346  55.188  18.557  1.00  0.00     0.016 C 
HETATM   13  C18 UNL     1      50.486  56.556  18.990  1.00  0.00    -0.016 C 
HETATM   14  C19 UNL     1      50.706  56.851  20.276  1.00  0.00    -0.055 C 
HETATM   15  C20 UNL     1      50.848  58.284  20.704  1.00  0.00     0.213 C 
HETATM   16  C23 UNL     1      50.827  55.845  21.355  1.00  0.00     0.025 C 
HETATM   17  O6  UNL     1      52.145  58.422  21.211  1.00  0.00    -0.317 OA
HETATM   18  C21 UNL     1      52.843  57.290  21.597  1.00  0.00     0.259 C 
HETATM   19  O7  UNL     1      54.099  57.230  21.474  1.00  0.00    -0.265 OA
HETATM   20  C22 UNL     1      52.067  56.154  22.156  1.00  0.00     0.120 C 
HETATM   21  C24 UNL     1      50.975  54.442  20.800  1.00  0.00     0.010 C 
HETATM   22  C25 UNL     1      49.894  54.322  19.723  1.00  0.00     0.010 C 
ENDBRANCH   9  12
ENDBRANCH   8   9
ENDBRANCH   6   7
ENDBRANCH   1   6
BRANCH   2  23
HETATM   23  O1  UNL     1      51.716  50.540  15.784  1.00  0.00    -0.395 OA
ATOM     24  H1  UNL     1      52.162  49.740  15.535  1.00  0.00     0.210 HD
ENDBRANCH   2  23
BRANCH   5  25
HETATM   25  C12 UNL     1      49.315  49.472  18.946  1.00  0.00     0.010 C 
BRANCH  25  26
HETATM   26  C13 UNL     1      50.072  50.490  19.680  1.00  0.00     0.033 C 
BRANCH  26  27
HETATM   27  C14 UNL     1      50.958  50.107  20.796  1.00  0.00     0.128 C 
BRANCH  27  28
HETATM   28  O3  UNL     1      51.474  48.806  20.564  1.00  0.00    -0.395 OA
ATOM     29  H3  UNL     1      50.775  48.169  20.651  1.00  0.00     0.210 HD
ENDBRANCH  27  28
BRANCH  27  30
HETATM   30  C15 UNL     1      52.229  50.974  20.848  1.00  0.00     0.144 C 
BRANCH  30  31
HETATM   31  C16 UNL     1      53.016  50.709  19.628  1.00  0.00     0.175 C 
HETATM   32  O4  UNL     1      53.904  49.826  19.633  1.00  0.00    -0.648 OA
HETATM   33  O5  UNL     1      52.800  51.418  18.461  1.00  0.00    -0.648 OA
ENDBRANCH  30  31
ENDBRANCH  27  30
ENDBRANCH  26  27
ENDBRANCH  25  26
ENDBRANCH   5  25
BRANCH   4  34
HETATM   34  O2  UNL     1      47.856  48.120  16.045  1.00  0.00    -0.395 OA
ATOM     35  H2  UNL     1      47.348  48.918  15.952  1.00  0.00     0.210 HD
ENDBRANCH   4  34
TORSDOF 13
ENDMDL
MODEL 2
REMARK VINA RESULT: -9.405691059      2.345      4.995
REMARK  13 active torsions:
REMARK  status: ('A' for Active; 'I' for Inactive)
REMARK    1  A    between atoms: C2_2  and  C3_3 
REMARK    2  A    between atoms: C3_3  and  C4_4 
REMARK    3  A    between atoms: C3_3  and  C17_25 
REMARK    4  A    between atoms: C5_5  and  C6_6 
REMARK    5  A    between atoms: C6_6  and  C7_7 
REMARK    6  A    between atoms: C8_8  and  O1_9 
REMARK    7  A    between atoms: C10_12  and  O2_13 
REMARK    8  A    between atoms: C11_15  and  C12_16 
REMARK    9  A    between atoms: C12_16  and  C13_17 
REMARK   10  A    between atoms: C13_17  and  C14_18 
REMARK   11  A    between atoms: C14_18  and  O3_19 
REMARK   12  A    between atoms: C14_18  and  C15_21 
REMARK   13  A    between atoms: C15_21  and  C16_22 
ROOT
HETATM    1  C7  UNL     1      48.995  51.108  18.271  1.00  0.00     0.024 C 
HETATM    2  C8  UNL     1      50.321  50.875  17.618  1.00  0.00     0.125 C 
HETATM    3  C9  UNL     1      50.094  50.075  16.361  1.00  0.00     0.064 C 
HETATM    4  C10 UNL     1      48.631  49.675  16.334  1.00  0.00     0.125 C 
HETATM    5  C11 UNL     1      47.990  50.244  17.534  1.00  0.00     0.021 C 
ENDROOT
BRANCH   1   6
HETATM    6  C6  UNL     1      48.636  52.596  18.030  1.00  0.00     0.034 C 
BRANCH   6   7
HETATM    7  C5  UNL     1      49.809  53.440  18.158  1.00  0.00    -0.030 C 
HETATM    8  C4  UNL     1      50.369  53.980  19.141  1.00  0.00    -0.025 C 
BRANCH   8   9
HETATM    9  C3  UNL     1      50.222  54.093  20.602  1.00  0.00     0.015 C 
BRANCH   9  10
HETATM   10  C2  UNL     1      50.520  52.878  21.386  1.00  0.00     0.005 C 
HETATM   11  C1  UNL     1      51.882  52.241  21.077  1.00  0.00     0.006 C 
ENDBRANCH   9  10
BRANCH   9  12
HETATM   12  C17 UNL     1      51.051  55.316  20.981  1.00  0.00     0.016 C 
HETATM   13  C18 UNL     1      52.343  55.456  20.356  1.00  0.00    -0.016 C 
HETATM   14  C19 UNL     1      52.868  56.664  20.126  1.00  0.00    -0.055 C 
HETATM   15  C20 UNL     1      54.215  56.784  19.473  1.00  0.00     0.213 C 
HETATM   16  C23 UNL     1      52.209  57.943  20.475  1.00  0.00     0.025 C 
HETATM   17  O6  UNL     1      55.056  57.406  20.402  1.00  0.00    -0.317 OA
HETATM   18  C21 UNL     1      54.495  58.111  21.454  1.00  0.00     0.259 C 
HETATM   19  O7  UNL     1      55.067  58.161  22.580  1.00  0.00    -0.265 OA
HETATM   20  C22 UNL     1      53.203  58.804  21.213  1.00  0.00     0.120 C 
HETATM   21  C24 UNL     1      51.019  57.728  21.390  1.00  0.00     0.010 C 
HETATM   22  C25 UNL     1      50.231  56.578  20.757  1.00  0.00     0.010 C 
ENDBRANCH   9  12
ENDBRANCH   8   9
ENDBRANCH   6   7
ENDBRANCH   1   6
BRANCH   2  23
HETATM   23  O1  UNL     1      51.215  50.199  18.461  1.00  0.00    -0.395 OA
ATOM     24  H1  UNL     1      51.828  49.661  17.976  1.00  0.00     0.210 HD
ENDBRANCH   2  23
BRANCH   5  25
HETATM   25  C12 UNL     1      47.183  49.392  18.425  1.00  0.00     0.010 C 
BRANCH  25  26
HETATM   26  C13 UNL     1      45.819  48.995  18.064  1.00  0.00     0.033 C 
BRANCH  26  27
HETATM   27  C14 UNL     1      45.580  47.796  17.237  1.00  0.00     0.128 C 
BRANCH  27  28
HETATM   28  O3  UNL     1      44.357  47.192  17.624  1.00  0.00    -0.395 OA
ATOM     29  H3  UNL     1      43.780  47.135  16.872  1.00  0.00     0.210 HD
ENDBRANCH  27  28
BRANCH  27  30
HETATM   30  C15 UNL     1      45.334  48.153  15.760  1.00  0.00     0.144 C 
BRANCH  30  31
HETATM   31  C16 UNL     1      44.409  47.151  15.195  1.00  0.00     0.175 C 
HETATM   32  O4  UNL     1      43.238  47.478  14.894  1.00  0.00    -0.648 OA
HETATM   33  O5  UNL     1      44.802  45.843  14.985  1.00  0.00    -0.648 OA
ENDBRANCH  30  31
ENDBRANCH  27  30
ENDBRANCH  26  27
ENDBRANCH  25  26
ENDBRANCH   5  25
BRANCH   4  34
HETATM   34  O2  UNL     1      48.094  50.227  15.131  1.00  0.00    -0.395 OA
ATOM     35  H2  UNL     1      48.208  49.561  14.463  1.00  0.00     0.210 HD
ENDBRANCH   4  34
TORSDOF 13
ENDMDL
MODEL 3
REMARK VINA RESULT: -9.388625120      1.591      4.057
REMARK  13 active torsions:
REMARK  status: ('A' for Active; 'I' for Inactive)
REMARK    1  A    between atoms: C2_2  and  C3_3 
REMARK    2  A    between atoms: C3_3  and  C4_4 
REMARK    3  A    between atoms: C3_3  and  C17_25 
REMARK    4  A    between atoms: C5_5  and  C6_6 
REMARK    5  A    between atoms: C6_6  and  C7_7 
REMARK    6  A    between atoms: C8_8  and  O1_9 
REMARK    7  A    between atoms: C10_12  and  O2_13 
REMARK    8  A    between atoms: C11_15  and  C12_16 
REMARK    9  A    between atoms: C12_16  and  C13_17 
REMARK   10  A    between atoms: C13_17  and  C14_18 
REMARK   11  A    between atoms: C14_18  and  O3_19 
REMARK   12  A    between atoms: C14_18  and  C15_21 
REMARK   13  A    between atoms: C15_21  and  C16_22 
ROOT
HETATM    1  C7  UNL     1      50.100  52.220  19.169  1.00  0.00     0.024 C 
HETATM    2  C8  UNL     1      51.062  52.981  20.025  1.00  0.00     0.125 C 
HETATM    3  C9  UNL     1      52.198  52.061  20.390  1.00  0.00     0.064 C 
HETATM    4  C10 UNL     1      51.842  50.675  19.886  1.00  0.00     0.125 C 
HETATM    5  C11 UNL     1      50.533  50.768  19.213  1.00  0.00     0.021 C 
ENDROOT
BRANCH   1   6
HETATM    6  C6  UNL     1      50.280  52.746  17.723  1.00  0.00     0.034 C 
BRANCH   6   7
HETATM    7  C5  UNL     1      49.043  53.310  17.217  1.00  0.00    -0.030 C 
HETATM    8  C4  UNL     1      48.688  54.481  16.942  1.00  0.00    -0.025 C 
BRANCH   8   9
HETATM    9  C3  UNL     1      49.222  55.853  16.952  1.00  0.00     0.015 C 
BRANCH   9  10
HETATM   10  C2  UNL     1      48.345  56.902  16.392  1.00  0.00     0.005 C 
HETATM   11  C1  UNL     1      47.188  56.370  15.535  1.00  0.00     0.006 C 
ENDBRANCH   9  10
BRANCH   9  12
HETATM   12  C17 UNL     1      49.658  56.090  18.395  1.00  0.00     0.016 C 
HETATM   13  C18 UNL     1      51.073  56.210  18.644  1.00  0.00    -0.016 C 
HETATM   14  C19 UNL     1      51.532  56.966  19.646  1.00  0.00    -0.055 C 
HETATM   15  C20 UNL     1      53.011  57.076  19.886  1.00  0.00     0.213 C 
HETATM   16  C23 UNL     1      50.674  57.732  20.577  1.00  0.00     0.025 C 
HETATM   17  O6  UNL     1      53.252  56.540  21.155  1.00  0.00    -0.317 OA
HETATM   18  C21 UNL     1      52.199  56.416  22.046  1.00  0.00     0.259 C 
HETATM   19  O7  UNL     1      52.162  55.467  22.879  1.00  0.00    -0.265 OA
HETATM   20  C22 UNL     1      51.118  57.434  21.988  1.00  0.00     0.120 C 
HETATM   21  C24 UNL     1      49.217  57.327  20.458  1.00  0.00     0.010 C 
HETATM   22  C25 UNL     1      48.931  57.303  18.955  1.00  0.00     0.010 C 
ENDBRANCH   9  12
ENDBRANCH   8   9
ENDBRANCH   6   7
ENDBRANCH   1   6
BRANCH   2  23
HETATM   23  O1  UNL     1      50.457  53.479  21.188  1.00  0.00    -0.395 OA
ATOM     24  H1  UNL     1      51.082  53.901  21.766  1.00  0.00     0.210 HD
ENDBRANCH   2  23
BRANCH   5  25
HETATM   25  C12 UNL     1      49.444  49.840  19.564  1.00  0.00     0.010 C 
BRANCH  25  26
HETATM   26  C13 UNL     1      48.419  49.468  18.586  1.00  0.00     0.033 C 
BRANCH  26  27
HETATM   27  C14 UNL     1      48.784  49.203  17.181  1.00  0.00     0.128 C 
BRANCH  27  28
HETATM   28  O3  UNL     1      48.536  47.839  16.878  1.00  0.00    -0.395 OA
ATOM     29  H3  UNL     1      47.785  47.775  16.300  1.00  0.00     0.210 HD
ENDBRANCH  27  28
BRANCH  27  30
HETATM   30  C15 UNL     1      47.864  49.946  16.195  1.00  0.00     0.144 C 
BRANCH  30  31
HETATM   31  C16 UNL     1      46.820  49.006  15.745  1.00  0.00     0.175 C 
HETATM   32  O4  UNL     1      46.927  48.431  14.638  1.00  0.00    -0.648 OA
HETATM   33  O5  UNL     1      45.708  48.736  16.521  1.00  0.00    -0.648 OA
ENDBRANCH  30  31
ENDBRANCH  27  30
ENDBRANCH  26  27
ENDBRANCH  25  26
ENDBRANCH   5  25
BRANCH   4  34
HETATM   34  O2  UNL     1      52.882  50.305  18.981  1.00  0.00    -0.395 OA
ATOM     35  H2  UNL     1      52.913  49.356  18.991  1.00  0.00     0.210 HD
ENDBRANCH   4  34
TORSDOF 13
ENDMDL
MODEL 4
REMARK VINA RESULT: -9.373676768      1.400      1.783
REMARK  13 active torsions:
REMARK  status: ('A' for Active; 'I' for Inactive)
REMARK    1  A    between atoms: C2_2  and  C3_3 
REMARK    2  A    between atoms: C3_3  and  C4_4 
REMARK    3  A    between atoms: C3_3  and  C17_25 
REMARK    4  A    between atoms: C5_5  and  C6_6 
REMARK    5  A    between atoms: C6_6  and  C7_7 
REMARK    6  A    between atoms: C8_8  and  O1_9 
REMARK    7  A    between atoms: C10_12  and  O2_13 
REMARK    8  A    between atoms: C11_15  and  C12_16 
REMARK    9  A    between atoms: C12_16  and  C13_17 
REMARK   10  A    between atoms: C13_17  and  C14_18 
REMARK   11  A    between atoms: C14_18  and  O3_19 
REMARK   12  A    between atoms: C14_18  and  C15_21 
REMARK   13  A    between atoms: C15_21  and  C16_22 
ROOT
HETATM    1  C7  UNL     1      49.110  50.340  16.770  1.00  0.00     0.024 C 
HETATM    2  C8  UNL     1      49.175  49.402  15.606  1.00  0.00     0.125 C 
HETATM    3  C9  UNL     1      48.007  48.455  15.698  1.00  0.00     0.064 C 
HETATM    4  C10 UNL     1      47.314  48.713  17.022  1.00  0.00     0.125 C 
HETATM    5  C11 UNL     1      48.035  49.807  17.697  1.00  0.00     0.021 C 
ENDROOT
BRANCH   1   6
HETATM    6  C6  UNL     1      48.646  51.709  16.212  1.00  0.00     0.034 C 
BRANCH   6   7
HETATM    7  C5  UNL     1      48.104  52.543  17.267  1.00  0.00    -0.030 C 
HETATM    8  C4  UNL     1      48.314  53.732  17.609  1.00  0.00    -0.025 C 
BRANCH   8   9
HETATM    9  C3  UNL     1      49.132  54.891  17.216  1.00  0.00     0.015 C 
BRANCH   9  10
HETATM   10  C2  UNL     1      48.487  55.879  16.330  1.00  0.00     0.005 C 
HETATM   11  C1  UNL     1      47.145  55.423  15.741  1.00  0.00     0.006 C 
ENDBRANCH   9  10
BRANCH   9  12
HETATM   12  C17 UNL     1      49.655  55.459  18.532  1.00  0.00     0.016 C 
HETATM   13  C18 UNL     1      51.085  55.582  18.675  1.00  0.00    -0.016 C 
HETATM   14  C19 UNL     1      51.619  56.544  19.433  1.00  0.00    -0.055 C 
HETATM   15  C20 UNL     1      53.112  56.652  19.567  1.00  0.00     0.213 C 
HETATM   16  C23 UNL     1      50.835  57.549  20.185  1.00  0.00     0.025 C 
HETATM   17  O6  UNL     1      53.410  56.438  20.917  1.00  0.00    -0.317 OA
HETATM   18  C21 UNL     1      52.406  56.579  21.860  1.00  0.00     0.259 C 
HETATM   19  O7  UNL     1      52.392  55.867  22.904  1.00  0.00    -0.265 OA
HETATM   20  C22 UNL     1      51.350  57.592  21.603  1.00  0.00     0.120 C 
HETATM   21  C24 UNL     1      49.364  57.185  20.241  1.00  0.00     0.010 C 
HETATM   22  C25 UNL     1      48.993  56.801  18.807  1.00  0.00     0.010 C 
ENDBRANCH   9  12
ENDBRANCH   8   9
ENDBRANCH   6   7
ENDBRANCH   1   6
BRANCH   2  23
HETATM   23  O1  UNL     1      50.376  48.679  15.575  1.00  0.00    -0.395 OA
ATOM     24  H1  UNL     1      50.950  48.966  14.874  1.00  0.00     0.210 HD
ENDBRANCH   2  23
BRANCH   5  25
HETATM   25  C12 UNL     1      48.485  49.657  19.093  1.00  0.00     0.010 C 
BRANCH  25  26
HETATM   26  C13 UNL     1      49.910  49.616  19.430  1.00  0.00     0.033 C 
BRANCH  26  27
HETATM   27  C14 UNL     1      50.489  50.601  20.363  1.00  0.00     0.128 C 
BRANCH  27  28
HETATM   28  O3  UNL     1      51.620  50.035  21.006  1.00  0.00    -0.395 OA
ATOM     29  H3  UNL     1      51.541  50.153  21.945  1.00  0.00     0.210 HD
ENDBRANCH  27  28
BRANCH  27  30
HETATM   30  C15 UNL     1      51.086  51.814  19.625  1.00  0.00     0.144 C 
BRANCH  30  31
HETATM   31  C16 UNL     1      52.363  52.164  20.277  1.00  0.00     0.175 C 
HETATM   32  O4  UNL     1      52.369  52.896  21.292  1.00  0.00    -0.648 OA
HETATM   33  O5  UNL     1      53.571  51.701  19.791  1.00  0.00    -0.648 OA
ENDBRANCH  30  31
ENDBRANCH  27  30
ENDBRANCH  26  27
ENDBRANCH  25  26
ENDBRANCH   5  25
BRANCH   4  34
HETATM   34  O2  UNL     1      45.972  49.079  16.700  1.00  0.00    -0.395 OA
ATOM     35  H2  UNL     1      45.543  48.279  16.417  1.00  0.00     0.210 HD
ENDBRANCH   4  34
TORSDOF 13
ENDMDL
MODEL 5
REMARK VINA RESULT: -9.373418534      3.082      8.772
REMARK  13 active torsions:
REMARK  status: ('A' for Active; 'I' for Inactive)
REMARK    1  A    between atoms: C2_2  and  C3_3 
REMARK    2  A    between atoms: C3_3  and  C4_4 
REMARK    3  A    between atoms: C3_3  and  C17_25 
REMARK    4  A    between atoms: C5_5  and  C6_6 
REMARK    5  A    between atoms: C6_6  and  C7_7 
REMARK    6  A    between atoms: C8_8  and  O1_9 
REMARK    7  A    between atoms: C10_12  and  O2_13 
REMARK    8  A    between atoms: C11_15  and  C12_16 
REMARK    9  A    between atoms: C12_16  and  C13_17 
REMARK   10  A    between atoms: C13_17  and  C14_18 
REMARK   11  A    between atoms: C14_18  and  O3_19 
REMARK   12  A    between atoms: C14_18  and  C15_21 
REMARK   13  A    between atoms: C15_21  and  C16_22 
ROOT
HETATM    1  C7  UNL     1      50.355  51.664  19.201  1.00  0.00     0.024 C 
HETATM    2  C8  UNL     1      50.990  51.912  17.869  1.00  0.00     0.125 C 
HETATM    3  C9  UNL     1      52.453  52.200  18.090  1.00  0.00     0.064 C 
HETATM    4  C10 UNL     1      52.678  52.289  19.587  1.00  0.00     0.125 C 
HETATM    5  C11 UNL     1      51.385  52.036  20.249  1.00  0.00     0.021 C 
ENDROOT
BRANCH   1   6
HETATM    6  C6  UNL     1      50.090  50.140  19.288  1.00  0.00     0.034 C 
BRANCH   6   7
HETATM    7  C5  UNL     1      48.674  49.850  19.162  1.00  0.00    -0.030 C 
HETATM    8  C4  UNL     1      47.938  49.605  18.177  1.00  0.00    -0.025 C 
BRANCH   8   9
HETATM    9  C3  UNL     1      48.019  49.470  16.713  1.00  0.00     0.015 C 
BRANCH   9  10
HETATM   10  C2  UNL     1      49.163  48.698  16.189  1.00  0.00     0.005 C 
HETATM   11  C1  UNL     1      50.086  49.489  15.252  1.00  0.00     0.006 C 
ENDBRANCH   9  10
BRANCH   9  12
HETATM   12  C17 UNL     1      46.649  48.943  16.296  1.00  0.00     0.016 C 
HETATM   13  C18 UNL     1      46.475  48.587  14.910  1.00  0.00    -0.016 C 
HETATM   14  C19 UNL     1      45.623  47.621  14.551  1.00  0.00    -0.055 C 
HETATM   15  C20 UNL     1      45.459  47.267  13.100  1.00  0.00     0.213 C 
HETATM   16  C23 UNL     1      44.795  46.841  15.498  1.00  0.00     0.025 C 
HETATM   17  O6  UNL     1      44.129  47.550  12.768  1.00  0.00    -0.317 OA
HETATM   18  C21 UNL     1      43.192  47.673  13.780  1.00  0.00     0.259 C 
HETATM   19  O7  UNL     1      42.217  48.470  13.668  1.00  0.00    -0.265 OA
HETATM   20  C22 UNL     1      43.372  46.840  14.997  1.00  0.00     0.120 C 
HETATM   21  C24 UNL     1      44.794  47.460  16.883  1.00  0.00     0.010 C 
HETATM   22  C25 UNL     1      46.262  47.768  17.183  1.00  0.00     0.010 C 
ENDBRANCH   9  12
ENDBRANCH   8   9
ENDBRANCH   6   7
ENDBRANCH   1   6
BRANCH   2  23
HETATM   23  O1  UNL     1      50.389  52.982  17.188  1.00  0.00    -0.395 OA
ATOM     24  H1  UNL     1      50.609  52.987  16.264  1.00  0.00     0.210 HD
ENDBRANCH   2  23
BRANCH   5  25
HETATM   25  C12 UNL     1      50.874  52.966  21.271  1.00  0.00     0.010 C 
BRANCH  25  26
HETATM   26  C13 UNL     1      51.781  53.825  22.037  1.00  0.00     0.033 C 
BRANCH  26  27
HETATM   27  C14 UNL     1      51.669  55.294  21.958  1.00  0.00     0.128 C 
BRANCH  27  28
HETATM   28  O3  UNL     1      52.373  55.880  23.042  1.00  0.00    -0.395 OA
ATOM     29  H3  UNL     1      52.069  56.770  23.171  1.00  0.00     0.210 HD
ENDBRANCH  27  28
BRANCH  27  30
HETATM   30  C15 UNL     1      52.398  55.864  20.728  1.00  0.00     0.144 C 
BRANCH  30  31
HETATM   31  C16 UNL     1      52.953  57.182  21.093  1.00  0.00     0.175 C 
HETATM   32  O4  UNL     1      54.170  57.298  21.360  1.00  0.00    -0.648 OA
HETATM   33  O5  UNL     1      52.156  58.310  21.152  1.00  0.00    -0.648 OA
ENDBRANCH  30  31
ENDBRANCH  27  30
ENDBRANCH  26  27
ENDBRANCH  25  26
ENDBRANCH   5  25
BRANCH   4  34
HETATM   34  O2  UNL     1      53.643  51.284  19.901  1.00  0.00    -0.395 OA
ATOM     35  H2  UNL     1      54.168  51.637  20.609  1.00  0.00     0.210 HD
ENDBRANCH   4  34
TORSDOF 13
ENDMDL
