MODEL 1
REMARK VINA RESULT: -8.906063038      0.000      0.000
REMARK  11 active torsions:
REMARK  status: ('A' for Active; 'I' for Inactive)
REMARK    1  A    between atoms: N1_1  and  C1_4 
REMARK    2  A    between atoms: C4_9  and  C5_10 
REMARK    3  A    between atoms: C6_12  and  N3_13 
REMARK    4  A    between atoms: C7_18  and  O2_19 
REMARK    5  A    between atoms: C9_25  and  N7_26 
REMARK    6  A    between atoms: N7_26  and  O3_27 
REMARK    7  A    between atoms: O3_27  and  C10_28 
REMARK    8  A    between atoms: C10_28  and  C11_29 
REMARK    9  A    between atoms: C11_29  and  O4_30 
REMARK   10  A    between atoms: C11_29  and  C12_32 
REMARK   11  A    between atoms: C12_32  and  N8_33 
ROOT
HETATM    1  C1  UNL     1       2.675  12.592  45.767  1.00  0.00     0.681 A 
HETATM    2  N2  UNL     1       3.177  12.030  44.676  1.00  0.00    -0.174 N 
ATOM      3  H2  UNL     1       2.751  12.184  43.763  1.00  0.00     0.186 HD
HETATM    4  C2  UNL     1       4.262  11.252  44.809  1.00  0.00     0.158 A 
HETATM    5  C3  UNL     1       4.976  10.500  43.884  1.00  0.00     0.030 A 
HETATM    6  C4  UNL     1       4.674  10.193  42.614  1.00  0.00     0.058 C 
HETATM    7  C8  UNL     1       5.987   9.884  44.617  1.00  0.00     0.123 A 
HETATM    8  N5  UNL     1       5.814  10.280  45.854  1.00  0.00    -0.299 N 
ATOM      9  H5  UNL     1       6.416   9.975  46.618  1.00  0.00     0.186 HD
HETATM   10  N6  UNL     1       4.811  11.093  46.034  1.00  0.00    -0.193 N 
HETATM   11  C9  UNL     1       4.287  11.700  47.171  1.00  0.00     0.327 A 
HETATM   12  N11 UNL     1       3.162  12.458  47.007  1.00  0.00    -0.145 N 
ATOM     13  H11 UNL     1       2.708  12.906  47.803  1.00  0.00     0.188 HD
ENDROOT
BRANCH  11  14
HETATM   14  N7  UNL     1       5.124  11.735  48.045  1.00  0.00    -0.240 NA
BRANCH  14  15
HETATM   15  O3  UNL     1       6.127  11.607  48.719  1.00  0.00    -0.203 OA
BRANCH  15  16
HETATM   16  C10 UNL     1       6.735  10.569  49.503  1.00  0.00     0.251 C 
BRANCH  16  17
HETATM   17  C11 UNL     1       5.407   9.689  49.677  1.00  0.00     0.163 C 
BRANCH  17  18
HETATM   18  O4  UNL     1       4.804  10.271  50.825  1.00  0.00    -0.392 OA
ATOM     19  H4  UNL     1       4.022   9.744  50.934  1.00  0.00     0.210 HD
ENDBRANCH  17  18
BRANCH  17  20
HETATM   20  C12 UNL     1       5.585   8.282  49.909  1.00  0.00     0.159 C 
BRANCH  20  21
HETATM   21  N8  UNL     1       4.306   7.626  49.685  1.00  0.00    -0.352 N 
HETATM   22  C13 UNL     1       3.808   6.563  50.593  1.00  0.00     0.145 C 
HETATM   23  C14 UNL     1       2.355   7.074  50.644  1.00  0.00     0.142 C 
HETATM   24  N9  UNL     1       2.168   7.438  49.233  1.00  0.00    -0.363 N 
HETATM   25  C15 UNL     1       3.340   7.749  48.720  1.00  0.00     0.186 C 
ATOM     26  H9  UNL     1       1.278   7.449  48.735  1.00  0.00     0.162 HD
HETATM   27  N10 UNL     1       3.580   8.169  47.357  1.00  0.00    -0.064 NA
ENDBRANCH  20  21
ENDBRANCH  17  20
ENDBRANCH  16  17
ENDBRANCH  15  16
ENDBRANCH  14  15
ENDBRANCH  11  14
BRANCH   1  28
HETATM   28  N1  UNL     1       1.536  13.241  45.652  1.00  0.00    -0.234 N 
ATOM     29  H12 UNL     1       0.997  13.066  44.804  1.00  0.00     0.174 HD
ATOM     30  H11 UNL     1       1.312  13.937  46.364  1.00  0.00     0.174 HD
ENDBRANCH   1  28
BRANCH   6  31
HETATM   31  C5  UNL     1       3.410  10.633  42.046  1.00  0.00     0.131 A 
HETATM   32  O1  UNL     1       2.279  10.038  42.136  1.00  0.00    -0.275 OA
HETATM   33  C6  UNL     1       1.358  10.750  41.479  1.00  0.00     0.224 A 
HETATM   34  N4  UNL     1       1.933  11.840  40.924  1.00  0.00    -0.300 N 
HETATM   35  C7  UNL     1       3.231  11.798  41.287  1.00  0.00     0.178 A 
ATOM     36  H4  UNL     1       1.479  12.549  40.349  1.00  0.00     0.171 HD
BRANCH  33  37
HETATM   37  N3  UNL     1       0.133  10.433  41.410  1.00  0.00    -0.365 N 
ATOM     38  H32 UNL     1      -0.287   9.795  40.735  1.00  0.00     0.159 HD
ATOM     39  H31 UNL     1      -0.587  10.797  42.035  1.00  0.00     0.159 HD
ENDBRANCH  33  37
BRANCH  35  40
HETATM   40  O2  UNL     1       4.171  12.734  41.005  1.00  0.00    -0.344 OA
ATOM     41  H2  UNL     1       4.017  13.609  40.669  1.00  0.00     0.219 HD
ENDBRANCH  35  40
ENDBRANCH   6  31
TORSDOF 11
ENDMDL
MODEL 2
REMARK VINA RESULT: -8.884316526      1.891      3.122
REMARK  11 active torsions:
REMARK  status: ('A' for Active; 'I' for Inactive)
REMARK    1  A    between atoms: N1_1  and  C1_4 
REMARK    2  A    between atoms: C4_9  and  C5_10 
REMARK    3  A    between atoms: C6_12  and  N3_13 
REMARK    4  A    between atoms: C7_18  and  O2_19 
REMARK    5  A    between atoms: C9_25  and  N7_26 
REMARK    6  A    between atoms: N7_26  and  O3_27 
REMARK    7  A    between atoms: O3_27  and  C10_28 
REMARK    8  A    between atoms: C10_28  and  C11_29 
REMARK    9  A    between atoms: C11_29  and  O4_30 
REMARK   10  A    between atoms: C11_29  and  C12_32 
REMARK   11  A    between atoms: C12_32  and  N8_33 
ROOT
HETATM    1  C1  UNL     1       5.685  10.512  44.993  1.00  0.00     0.681 A 
HETATM    2  N2  UNL     1       4.490  11.076  44.898  1.00  0.00    -0.174 N 
ATOM      3  H2  UNL     1       4.074  11.275  43.988  1.00  0.00     0.186 HD
HETATM    4  C2  UNL     1       3.843  11.380  46.033  1.00  0.00     0.158 A 
HETATM    5  C3  UNL     1       2.625  12.010  46.260  1.00  0.00     0.030 A 
HETATM    6  C4  UNL     1       1.824  12.660  45.403  1.00  0.00     0.058 C 
HETATM    7  C8  UNL     1       2.496  12.066  47.646  1.00  0.00     0.123 A 
HETATM    8  N5  UNL     1       3.582  11.509  48.121  1.00  0.00    -0.299 N 
ATOM      9  H5  UNL     1       3.760  11.418  49.121  1.00  0.00     0.186 HD
HETATM   10  N6  UNL     1       4.418  11.079  47.218  1.00  0.00    -0.193 N 
HETATM   11  C9  UNL     1       5.667  10.471  47.308  1.00  0.00     0.327 A 
HETATM   12  N11 UNL     1       6.315  10.206  46.135  1.00  0.00    -0.145 N 
ATOM     13  H11 UNL     1       7.246   9.790  46.129  1.00  0.00     0.188 HD
ENDROOT
BRANCH  11  14
HETATM   14  N7  UNL     1       5.804   9.965  48.400  1.00  0.00    -0.240 NA
BRANCH  14  15
HETATM   15  O3  UNL     1       6.117   9.704  49.544  1.00  0.00    -0.203 OA
BRANCH  15  16
HETATM   16  C10 UNL     1       5.657  10.049  50.860  1.00  0.00     0.251 C 
BRANCH  16  17
HETATM   17  C11 UNL     1       4.164   9.498  50.666  1.00  0.00     0.163 C 
BRANCH  17  18
HETATM   18  O4  UNL     1       3.375  10.600  51.094  1.00  0.00    -0.392 OA
ATOM     19  H4  UNL     1       3.911  10.980  51.781  1.00  0.00     0.210 HD
ENDBRANCH  17  18
BRANCH  17  20
HETATM   20  C12 UNL     1       3.795   8.338  51.430  1.00  0.00     0.159 C 
BRANCH  20  21
HETATM   21  N8  UNL     1       4.162   7.159  50.659  1.00  0.00    -0.352 N 
HETATM   22  C13 UNL     1       3.147   6.365  49.924  1.00  0.00     0.145 C 
HETATM   23  C14 UNL     1       3.991   6.178  48.649  1.00  0.00     0.142 C 
HETATM   24  N9  UNL     1       5.305   5.923  49.254  1.00  0.00    -0.363 N 
HETATM   25  C15 UNL     1       5.350   6.516  50.429  1.00  0.00     0.186 C 
ATOM     26  H9  UNL     1       6.057   5.377  48.833  1.00  0.00     0.162 HD
HETATM   27  N10 UNL     1       6.476   6.508  51.336  1.00  0.00    -0.064 NA
ENDBRANCH  20  21
ENDBRANCH  17  20
ENDBRANCH  16  17
ENDBRANCH  15  16
ENDBRANCH  14  15
ENDBRANCH  11  14
BRANCH   1  28
HETATM   28  N1  UNL     1       6.373  10.341  43.883  1.00  0.00    -0.234 N 
ATOM     29  H12 UNL     1       5.882  10.540  43.011  1.00  0.00     0.174 HD
ATOM     30  H11 UNL     1       7.306   9.938  43.960  1.00  0.00     0.174 HD
ENDBRANCH   1  28
BRANCH   6  31
HETATM   31  C5  UNL     1       2.228  12.817  44.015  1.00  0.00     0.131 A 
HETATM   32  O1  UNL     1       2.568  11.885  43.204  1.00  0.00    -0.275 OA
HETATM   33  C6  UNL     1       2.877  12.426  42.022  1.00  0.00     0.224 A 
HETATM   34  N4  UNL     1       2.750  13.770  42.088  1.00  0.00    -0.300 N 
HETATM   35  C7  UNL     1       2.320  14.040  43.337  1.00  0.00     0.178 A 
ATOM     36  H4  UNL     1       2.941  14.443  41.345  1.00  0.00     0.171 HD
BRANCH  33  37
HETATM   37  N3  UNL     1       3.225  11.756  41.005  1.00  0.00    -0.365 N 
ATOM     38  H32 UNL     1       3.936  11.025  40.978  1.00  0.00     0.159 HD
ATOM     39  H31 UNL     1       2.827  11.883  40.074  1.00  0.00     0.159 HD
ENDBRANCH  33  37
BRANCH  35  40
HETATM   40  O2  UNL     1       1.996  15.263  43.825  1.00  0.00    -0.344 OA
ATOM     41  H2  UNL     1       1.446  15.914  43.404  1.00  0.00     0.219 HD
ENDBRANCH  35  40
ENDBRANCH   6  31
TORSDOF 11
ENDMDL
MODEL 3
REMARK VINA RESULT: -8.811603679      1.733      3.110
REMARK  11 active torsions:
REMARK  status: ('A' for Active; 'I' for Inactive)
REMARK    1  A    between atoms: N1_1  and  C1_4 
REMARK    2  A    between atoms: C4_9  and  C5_10 
REMARK    3  A    between atoms: C6_12  and  N3_13 
REMARK    4  A    between atoms: C7_18  and  O2_19 
REMARK    5  A    between atoms: C9_25  and  N7_26 
REMARK    6  A    between atoms: N7_26  and  O3_27 
REMARK    7  A    between atoms: O3_27  and  C10_28 
REMARK    8  A    between atoms: C10_28  and  C11_29 
REMARK    9  A    between atoms: C11_29  and  O4_30 
REMARK   10  A    between atoms: C11_29  and  C12_32 
REMARK   11  A    between atoms: C12_32  and  N8_33 
ROOT
HETATM    1  C1  UNL     1       5.781  10.361  45.297  1.00  0.00     0.681 A 
HETATM    2  N2  UNL     1       4.568  10.811  45.010  1.00  0.00    -0.174 N 
ATOM      3  H2  UNL     1       4.185  10.722  44.068  1.00  0.00     0.186 HD
HETATM    4  C2  UNL     1       3.859  11.387  45.991  1.00  0.00     0.158 A 
HETATM    5  C3  UNL     1       2.606  11.989  45.994  1.00  0.00     0.030 A 
HETATM    6  C4  UNL     1       1.817  12.327  44.963  1.00  0.00     0.058 C 
HETATM    7  C8  UNL     1       2.413  12.427  47.302  1.00  0.00     0.123 A 
HETATM    8  N5  UNL     1       3.500  12.085  47.948  1.00  0.00    -0.299 N 
ATOM      9  H5  UNL     1       3.637  12.289  48.938  1.00  0.00     0.186 HD
HETATM   10  N6  UNL     1       4.393  11.464  47.231  1.00  0.00    -0.193 N 
HETATM   11  C9  UNL     1       5.662  10.974  47.527  1.00  0.00     0.327 A 
HETATM   12  N11 UNL     1       6.372  10.425  46.498  1.00  0.00    -0.145 N 
ATOM     13  H11 UNL     1       7.319  10.074  46.638  1.00  0.00     0.188 HD
ENDROOT
BRANCH  11  14
HETATM   14  N7  UNL     1       5.771  10.804  48.722  1.00  0.00    -0.240 NA
BRANCH  14  15
HETATM   15  O3  UNL     1       5.933  10.937  49.918  1.00  0.00    -0.203 OA
BRANCH  15  16
HETATM   16  C10 UNL     1       5.601  10.203  51.106  1.00  0.00     0.251 C 
BRANCH  16  17
HETATM   17  C11 UNL     1       4.279   9.516  50.517  1.00  0.00     0.163 C 
BRANCH  17  18
HETATM   18  O4  UNL     1       3.337  10.580  50.560  1.00  0.00    -0.392 OA
ATOM     19  H4  UNL     1       3.201  10.693  51.493  1.00  0.00     0.210 HD
ENDBRANCH  17  18
BRANCH  17  20
HETATM   20  C12 UNL     1       3.748   8.396  51.244  1.00  0.00     0.159 C 
BRANCH  20  21
HETATM   21  N8  UNL     1       4.141   7.182  50.545  1.00  0.00    -0.352 N 
HETATM   22  C13 UNL     1       3.146   6.330  49.847  1.00  0.00     0.145 C 
HETATM   23  C14 UNL     1       4.006   6.085  48.593  1.00  0.00     0.142 C 
HETATM   24  N9  UNL     1       5.317   5.886  49.223  1.00  0.00    -0.363 N 
HETATM   25  C15 UNL     1       5.341   6.546  50.363  1.00  0.00     0.186 C 
ATOM     26  H9  UNL     1       6.082   5.330  48.841  1.00  0.00     0.162 HD
HETATM   27  N10 UNL     1       6.458   6.608  51.279  1.00  0.00    -0.064 NA
ENDBRANCH  20  21
ENDBRANCH  17  20
ENDBRANCH  16  17
ENDBRANCH  15  16
ENDBRANCH  14  15
ENDBRANCH  11  14
BRANCH   1  28
HETATM   28  N1  UNL     1       6.524   9.922  44.303  1.00  0.00    -0.234 N 
ATOM     29  H12 UNL     1       6.091   9.922  43.379  1.00  0.00     0.174 HD
ATOM     30  H11 UNL     1       7.437   9.528  44.530  1.00  0.00     0.174 HD
ENDBRANCH   1  28
BRANCH   6  31
HETATM   31  C5  UNL     1       2.275  12.109  43.601  1.00  0.00     0.131 A 
HETATM   32  O1  UNL     1       3.162  12.787  42.971  1.00  0.00    -0.275 OA
HETATM   33  C6  UNL     1       3.303  12.284  41.741  1.00  0.00     0.224 A 
HETATM   34  N4  UNL     1       2.451  11.249  41.570  1.00  0.00    -0.300 N 
HETATM   35  C7  UNL     1       1.803  11.106  42.743  1.00  0.00     0.178 A 
ATOM     36  H4  UNL     1       2.324  10.691  40.726  1.00  0.00     0.171 HD
BRANCH  33  37
HETATM   37  N3  UNL     1       4.127  12.724  40.886  1.00  0.00    -0.365 N 
ATOM     38  H32 UNL     1       5.089  13.013  41.067  1.00  0.00     0.159 HD
ATOM     39  H31 UNL     1       3.912  12.848  39.896  1.00  0.00     0.159 HD
ENDBRANCH  33  37
BRANCH  35  40
HETATM   40  O2  UNL     1       0.897  10.143  43.045  1.00  0.00    -0.344 OA
ATOM     41  H2  UNL     1       0.132   9.904  42.535  1.00  0.00     0.219 HD
ENDBRANCH  35  40
ENDBRANCH   6  31
TORSDOF 11
ENDMDL
MODEL 4
REMARK VINA RESULT: -8.754381612      2.146      8.118
REMARK  11 active torsions:
REMARK  status: ('A' for Active; 'I' for Inactive)
REMARK    1  A    between atoms: N1_1  and  C1_4 
REMARK    2  A    between atoms: C4_9  and  C5_10 
REMARK    3  A    between atoms: C6_12  and  N3_13 
REMARK    4  A    between atoms: C7_18  and  O2_19 
REMARK    5  A    between atoms: C9_25  and  N7_26 
REMARK    6  A    between atoms: N7_26  and  O3_27 
REMARK    7  A    between atoms: O3_27  and  C10_28 
REMARK    8  A    between atoms: C10_28  and  C11_29 
REMARK    9  A    between atoms: C11_29  and  O4_30 
REMARK   10  A    between atoms: C11_29  and  C12_32 
REMARK   11  A    between atoms: C12_32  and  N8_33 
ROOT
HETATM    1  C1  UNL     1       3.846   7.778  48.284  1.00  0.00     0.681 A 
HETATM    2  N2  UNL     1       4.657   8.127  49.273  1.00  0.00    -0.174 N 
ATOM      3  H2  UNL     1       4.711   7.573  50.127  1.00  0.00     0.186 HD
HETATM    4  C2  UNL     1       5.404   9.230  49.118  1.00  0.00     0.158 A 
HETATM    5  C3  UNL     1       6.293   9.870  49.973  1.00  0.00     0.030 A 
HETATM    6  C4  UNL     1       6.524   9.664  51.278  1.00  0.00     0.058 C 
HETATM    7  C8  UNL     1       6.743  10.982  49.266  1.00  0.00     0.123 A 
HETATM    8  N5  UNL     1       6.125  10.937  48.112  1.00  0.00    -0.299 N 
ATOM      9  H5  UNL     1       6.262  11.642  47.388  1.00  0.00     0.186 HD
HETATM   10  N6  UNL     1       5.320   9.923  47.960  1.00  0.00    -0.193 N 
HETATM   11  C9  UNL     1       4.478   9.540  46.921  1.00  0.00     0.327 A 
HETATM   12  N11 UNL     1       3.705   8.432  47.124  1.00  0.00    -0.145 N 
ATOM     13  H11 UNL     1       3.044   8.114  46.416  1.00  0.00     0.188 HD
ENDROOT
BRANCH  11  14
HETATM   14  N7  UNL     1       4.838  10.055  45.885  1.00  0.00    -0.240 NA
BRANCH  14  15
HETATM   15  O3  UNL     1       5.457  10.620  45.006  1.00  0.00    -0.203 OA
BRANCH  15  16
HETATM   16  C10 UNL     1       5.731  10.401  43.614  1.00  0.00     0.251 C 
BRANCH  16  17
HETATM   17  C11 UNL     1       4.370   9.618  43.294  1.00  0.00     0.163 C 
BRANCH  17  18
HETATM   18  O4  UNL     1       4.845   8.375  42.792  1.00  0.00    -0.392 OA
ATOM     19  H4  UNL     1       5.275   8.000  43.551  1.00  0.00     0.210 HD
ENDBRANCH  17  18
BRANCH  17  20
HETATM   20  C12 UNL     1       3.494  10.208  42.320  1.00  0.00     0.159 C 
BRANCH  20  21
HETATM   21  N8  UNL     1       2.859  11.366  42.932  1.00  0.00    -0.352 N 
HETATM   22  C13 UNL     1       1.901  11.223  44.055  1.00  0.00     0.145 C 
HETATM   23  C14 UNL     1       2.458  12.398  44.882  1.00  0.00     0.142 C 
HETATM   24  N9  UNL     1       2.697  13.370  43.807  1.00  0.00    -0.363 N 
HETATM   25  C15 UNL     1       2.923  12.713  42.688  1.00  0.00     0.186 C 
ATOM     26  H9  UNL     1       2.690  14.384  43.910  1.00  0.00     0.162 HD
HETATM   27  N10 UNL     1       3.208  13.309  41.402  1.00  0.00    -0.064 NA
ENDBRANCH  20  21
ENDBRANCH  17  20
ENDBRANCH  16  17
ENDBRANCH  15  16
ENDBRANCH  14  15
ENDBRANCH  11  14
BRANCH   1  28
HETATM   28  N1  UNL     1       3.018   6.776  48.495  1.00  0.00    -0.234 N 
ATOM     29  H12 UNL     1       3.420   5.936  48.911  1.00  0.00     0.174 HD
ATOM     30  H11 UNL     1       2.064   6.868  48.148  1.00  0.00     0.174 HD
ENDBRANCH   1  28
BRANCH   6  31
HETATM   31  C5  UNL     1       5.747   8.671  52.001  1.00  0.00     0.131 A 
HETATM   32  O1  UNL     1       4.469   8.568  52.029  1.00  0.00    -0.275 OA
HETATM   33  C6  UNL     1       4.132   7.534  52.806  1.00  0.00     0.224 A 
HETATM   34  N4  UNL     1       5.246   6.964  53.317  1.00  0.00    -0.300 N 
HETATM   35  C7  UNL     1       6.284   7.655  52.803  1.00  0.00     0.178 A 
ATOM     36  H4  UNL     1       5.293   6.173  53.959  1.00  0.00     0.171 HD
BRANCH  33  37
HETATM   37  N3  UNL     1       2.939   7.160  53.010  1.00  0.00    -0.365 N 
ATOM     38  H32 UNL     1       2.491   6.333  52.617  1.00  0.00     0.159 HD
ATOM     39  H31 UNL     1       2.276   7.663  53.601  1.00  0.00     0.159 HD
ENDBRANCH  33  37
BRANCH  35  40
HETATM   40  O2  UNL     1       7.599   7.385  52.996  1.00  0.00    -0.344 OA
ATOM     41  H2  UNL     1       8.147   7.710  53.701  1.00  0.00     0.219 HD
ENDBRANCH  35  40
ENDBRANCH   6  31
TORSDOF 11
ENDMDL
MODEL 5
REMARK VINA RESULT: -8.721619708      2.810      8.931
REMARK  11 active torsions:
REMARK  status: ('A' for Active; 'I' for Inactive)
REMARK    1  A    between atoms: N1_1  and  C1_4 
REMARK    2  A    between atoms: C4_9  and  C5_10 
REMARK    3  A    between atoms: C6_12  and  N3_13 
REMARK    4  A    between atoms: C7_18  and  O2_19 
REMARK    5  A    between atoms: C9_25  and  N7_26 
REMARK    6  A    between atoms: N7_26  and  O3_27 
REMARK    7  A    between atoms: O3_27  and  C10_28 
REMARK    8  A    between atoms: C10_28  and  C11_29 
REMARK    9  A    between atoms: C11_29  and  O4_30 
REMARK   10  A    between atoms: C11_29  and  C12_32 
REMARK   11  A    between atoms: C12_32  and  N8_33 
ROOT
HETATM    1  C1  UNL     1       5.995  10.237  49.355  1.00  0.00     0.681 A 
HETATM    2  N2  UNL     1       5.638   9.479  50.382  1.00  0.00    -0.174 N 
ATOM      3  H2  UNL     1       6.026   9.639  51.312  1.00  0.00     0.186 HD
HETATM    4  C2  UNL     1       4.752   8.497  50.164  1.00  0.00     0.158 A 
HETATM    5  C3  UNL     1       4.228   7.522  51.006  1.00  0.00     0.030 A 
HETATM    6  C4  UNL     1       4.599   7.174  52.247  1.00  0.00     0.058 C 
HETATM    7  C8  UNL     1       3.373   6.769  50.205  1.00  0.00     0.123 A 
HETATM    8  N5  UNL     1       3.447   7.306  49.013  1.00  0.00    -0.299 N 
ATOM      9  H5  UNL     1       2.922   6.947  48.216  1.00  0.00     0.186 HD
HETATM   10  N6  UNL     1       4.243   8.334  48.922  1.00  0.00    -0.193 N 
HETATM   11  C9  UNL     1       4.612   9.144  47.852  1.00  0.00     0.327 A 
HETATM   12  N11 UNL     1       5.542  10.114  48.101  1.00  0.00    -0.145 N 
ATOM     13  H11 UNL     1       5.880  10.723  47.355  1.00  0.00     0.188 HD
ENDROOT
BRANCH  11  14
HETATM   14  N7  UNL     1       3.782   9.074  46.973  1.00  0.00    -0.240 NA
BRANCH  14  15
HETATM   15  O3  UNL     1       3.177   9.119  45.921  1.00  0.00    -0.203 OA
BRANCH  15  16
HETATM   16  C10 UNL     1       3.454   9.525  44.572  1.00  0.00     0.251 C 
BRANCH  16  17
HETATM   17  C11 UNL     1       2.642  10.905  44.640  1.00  0.00     0.163 C 
BRANCH  17  18
HETATM   18  O4  UNL     1       1.864  10.860  43.451  1.00  0.00    -0.392 OA
ATOM     19  H4  UNL     1       0.990  11.045  43.772  1.00  0.00     0.210 HD
ENDBRANCH  17  18
BRANCH  17  20
HETATM   20  C12 UNL     1       3.416  12.115  44.643  1.00  0.00     0.159 C 
BRANCH  20  21
HETATM   21  N8  UNL     1       2.595  13.174  44.075  1.00  0.00    -0.352 N 
HETATM   22  C13 UNL     1       1.538  13.848  44.868  1.00  0.00     0.145 C 
HETATM   23  C14 UNL     1       1.868  15.273  44.383  1.00  0.00     0.142 C 
HETATM   24  N9  UNL     1       2.119  15.002  42.962  1.00  0.00    -0.363 N 
HETATM   25  C15 UNL     1       2.539  13.760  42.837  1.00  0.00     0.186 C 
ATOM     26  H9  UNL     1       1.989  15.666  42.198  1.00  0.00     0.162 HD
HETATM   27  N10 UNL     1       2.899  13.112  41.596  1.00  0.00    -0.064 NA
ENDBRANCH  20  21
ENDBRANCH  17  20
ENDBRANCH  16  17
ENDBRANCH  15  16
ENDBRANCH  14  15
ENDBRANCH  11  14
BRANCH   1  28
HETATM   28  N1  UNL     1       6.963  11.109  49.544  1.00  0.00    -0.234 N 
ATOM     29  H12 UNL     1       6.744  12.082  49.332  1.00  0.00     0.174 HD
ATOM     30  H11 UNL     1       7.883  10.749  49.797  1.00  0.00     0.174 HD
ENDBRANCH   1  28
BRANCH   6  31
HETATM   31  C5  UNL     1       5.738   7.829  52.870  1.00  0.00     0.131 A 
HETATM   32  O1  UNL     1       5.850   9.076  53.144  1.00  0.00    -0.275 OA
HETATM   33  C6  UNL     1       7.043   9.292  53.707  1.00  0.00     0.224 A 
HETATM   34  N4  UNL     1       7.734   8.132  53.775  1.00  0.00    -0.300 N 
HETATM   35  C7  UNL     1       6.918   7.186  53.269  1.00  0.00     0.178 A 
ATOM     36  H4  UNL     1       8.679   8.000  54.135  1.00  0.00     0.171 HD
BRANCH  33  37
HETATM   37  N3  UNL     1       7.439  10.424  54.116  1.00  0.00    -0.365 N 
ATOM     38  H32 UNL     1       7.070  10.940  54.915  1.00  0.00     0.159 HD
ATOM     39  H31 UNL     1       8.186  10.962  53.675  1.00  0.00     0.159 HD
ENDBRANCH  33  37
BRANCH  35  40
HETATM   40  O2  UNL     1       7.179   5.857  53.201  1.00  0.00    -0.344 OA
ATOM     41  H2  UNL     1       7.774   5.367  53.756  1.00  0.00     0.219 HD
ENDBRANCH  35  40
ENDBRANCH   6  31
TORSDOF 11
ENDMDL
