MODEL 1
REMARK VINA RESULT: -9.411139697      0.000      0.000
REMARK  9 active torsions:
REMARK  status: ('A' for Active; 'I' for Inactive)
REMARK    1  A    between atoms: S1_2  and  C2_3 
REMARK    2  A    between atoms: C3_4  and  C4_5 
REMARK    3  A    between atoms: C5_14  and  O3_15 
REMARK    4  A    between atoms: C5_14  and  N4_17 
REMARK    5  A    between atoms: N4_17  and  N5_19 
REMARK    6  A    between atoms: C6_21  and  C7_22 
REMARK    7  A    between atoms: N9_33  and  N10_35 
REMARK    8  A    between atoms: N10_35  and  N11_37 
REMARK    9  A    between atoms: C11_40  and  O5_41 
ROOT
HETATM    1  C7  UNL     1       3.244   9.678  49.384  1.00  0.00     0.158 C 
HETATM    2  N6  UNL     1       2.917   8.334  48.971  1.00  0.00    -0.361 N 
ATOM      3  H6  UNL     1       1.959   8.119  48.693  1.00  0.00     0.162 HD
HETATM    4  C8  UNL     1       3.888   7.308  48.942  1.00  0.00     0.155 A 
HETATM    5  N7  UNL     1       4.093   6.188  48.226  1.00  0.00    -0.223 N 
ATOM      6  H7  UNL     1       3.491   5.846  47.477  1.00  0.00     0.198 HD
HETATM    7  O4  UNL     1       5.194   5.605  48.649  1.00  0.00    -0.155 OA
HETATM    8  N8  UNL     1       5.727   6.306  49.627  1.00  0.00    -0.236 N 
ATOM      9  H8  UNL     1       6.582   6.083  50.135  1.00  0.00     0.197 HD
HETATM   10  C9  UNL     1       4.938   7.366  49.827  1.00  0.00     0.128 A 
HETATM   11  C10 UNL     1       4.979   8.501  50.753  1.00  0.00     0.090 C 
HETATM   12  N9  UNL     1       5.496   8.335  51.947  1.00  0.00    -0.286 N 
ATOM     13  H9  UNL     1       5.873   7.439  52.256  1.00  0.00     0.188 HD
HETATM   14  C11 UNL     1       4.428   9.786  50.285  1.00  0.00     0.199 C 
ENDROOT
BRANCH   1  15
HETATM   15  C6  UNL     1       3.475  10.442  48.125  1.00  0.00     0.108 C 
HETATM   16  N5  UNL     1       4.027   9.903  47.098  1.00  0.00    -0.314 N 
ATOM     17  H5  UNL     1       4.316   8.926  47.141  1.00  0.00     0.185 HD
BRANCH  16  18
HETATM   18  N4  UNL     1       4.236  10.624  45.931  1.00  0.00    -0.279 N 
ATOM     19  H4  UNL     1       4.695  11.535  45.956  1.00  0.00     0.185 HD
BRANCH  18  20
HETATM   20  C5  UNL     1       3.785  10.053  44.668  1.00  0.00     0.280 C 
HETATM   21  C2  UNL     1       3.464  11.200  43.725  1.00  0.00     0.092 C 
HETATM   22  C3  UNL     1       3.397  10.963  42.427  1.00  0.00     0.145 C 
HETATM   23  N1  UNL     1       3.806   9.616  42.070  1.00  0.00    -0.279 N 
HETATM   24  N2  UNL     1       4.837   9.039  42.787  1.00  0.00    -0.242 N 
ATOM     25  H1  UNL     1       3.346   9.110  41.313  1.00  0.00     0.189 HD
HETATM   26  N3  UNL     1       4.827   9.238  44.141  1.00  0.00    -0.264 N 
ATOM     27  H2  UNL     1       5.568   8.493  42.331  1.00  0.00     0.208 HD
ATOM     28  H3  UNL     1       5.536   8.822  44.746  1.00  0.00     0.187 HD
BRANCH  21  29
HETATM   29  S1  UNL     1       3.047  12.750  44.412  1.00  0.00    -0.129 SA
HETATM   30  C1  UNL     1       1.458  12.687  45.243  1.00  0.00     0.095 C 
ENDBRANCH  21  29
BRANCH  22  31
HETATM   31  C4  UNL     1       2.977  11.891  41.418  1.00  0.00     0.229 C 
HETATM   32  O1  UNL     1       3.732  12.891  41.169  1.00  0.00    -0.643 OA
HETATM   33  O2  UNL     1       1.843  11.805  40.694  1.00  0.00    -0.643 OA
ENDBRANCH  22  31
BRANCH  20  34
HETATM   34  O3  UNL     1       2.586   9.363  44.840  1.00  0.00    -0.348 OA
ATOM     35  H3  UNL     1       2.669   8.907  45.669  1.00  0.00     0.215 HD
ENDBRANCH  20  34
ENDBRANCH  18  20
ENDBRANCH  16  18
ENDBRANCH   1  15
BRANCH  14  36
HETATM   36  O5  UNL     1       5.474  10.431  49.585  1.00  0.00    -0.387 OA
ATOM     37  H5  UNL     1       5.119  10.815  48.791  1.00  0.00     0.210 HD
ENDBRANCH  14  36
BRANCH  12  38
HETATM   38  N10 UNL     1       5.497   9.466  52.769  1.00  0.00    -0.249 N 
ATOM     39  H10 UNL     1       4.609   9.834  53.110  1.00  0.00     0.207 HD
BRANCH  38  40
HETATM   40  N11 UNL     1       6.590  10.052  53.105  1.00  0.00    -0.331 N 
ATOM     41 2H11 UNL     1       6.657  10.448  54.043  1.00  0.00     0.178 HD
ATOM     42 1H11 UNL     1       7.376  10.126  52.459  1.00  0.00     0.178 HD
ENDBRANCH  38  40
ENDBRANCH  12  38
TORSDOF 9
ENDMDL
MODEL 2
REMARK VINA RESULT: -9.339225538      3.021      8.104
REMARK  9 active torsions:
REMARK  status: ('A' for Active; 'I' for Inactive)
REMARK    1  A    between atoms: S1_2  and  C2_3 
REMARK    2  A    between atoms: C3_4  and  C4_5 
REMARK    3  A    between atoms: C5_14  and  O3_15 
REMARK    4  A    between atoms: C5_14  and  N4_17 
REMARK    5  A    between atoms: N4_17  and  N5_19 
REMARK    6  A    between atoms: C6_21  and  C7_22 
REMARK    7  A    between atoms: N9_33  and  N10_35 
REMARK    8  A    between atoms: N10_35  and  N11_37 
REMARK    9  A    between atoms: C11_40  and  O5_41 
ROOT
HETATM    1  C7  UNL     1       3.496  12.262  46.196  1.00  0.00     0.158 C 
HETATM    2  N6  UNL     1       4.336  11.377  45.424  1.00  0.00    -0.361 N 
ATOM      3  H6  UNL     1       5.258  11.129  45.783  1.00  0.00     0.162 HD
HETATM    4  C8  UNL     1       3.914  10.847  44.183  1.00  0.00     0.155 A 
HETATM    5  N7  UNL     1       4.150   9.726  43.479  1.00  0.00    -0.223 N 
ATOM      6  H7  UNL     1       4.762   8.963  43.768  1.00  0.00     0.198 HD
HETATM    7  O4  UNL     1       3.464   9.773  42.357  1.00  0.00    -0.155 OA
HETATM    8  N8  UNL     1       2.779  10.894  42.295  1.00  0.00    -0.236 N 
ATOM      9  H8  UNL     1       2.164  11.187  41.537  1.00  0.00     0.197 HD
HETATM   10  C9  UNL     1       3.040  11.577  43.414  1.00  0.00     0.128 A 
HETATM   11  C10 UNL     1       2.599  12.873  43.939  1.00  0.00     0.090 C 
HETATM   12  N9  UNL     1       2.329  13.845  43.100  1.00  0.00    -0.286 N 
ATOM     13  H9  UNL     1       2.416  13.730  42.090  1.00  0.00     0.188 HD
HETATM   14  C11 UNL     1       2.481  13.014  45.402  1.00  0.00     0.199 C 
ENDROOT
BRANCH   1  15
HETATM   15  C6  UNL     1       2.829  11.400  47.212  1.00  0.00     0.108 C 
HETATM   16  N5  UNL     1       3.489  10.563  47.928  1.00  0.00    -0.314 N 
ATOM     17  H5  UNL     1       4.497  10.481  47.799  1.00  0.00     0.185 HD
BRANCH  16  18
HETATM   18  N4  UNL     1       2.855   9.766  48.872  1.00  0.00    -0.279 N 
ATOM     19  H4  UNL     1       2.073  10.127  49.418  1.00  0.00     0.185 HD
BRANCH  18  20
HETATM   20  C5  UNL     1       3.333   8.403  49.067  1.00  0.00     0.280 C 
HETATM   21  C2  UNL     1       4.197   8.385  50.316  1.00  0.00     0.092 C 
HETATM   22  C3  UNL     1       4.439   7.231  50.912  1.00  0.00     0.145 C 
HETATM   23  N1  UNL     1       3.685   6.126  50.345  1.00  0.00    -0.279 N 
HETATM   24  N2  UNL     1       2.401   6.377  49.902  1.00  0.00    -0.242 N 
ATOM     25  H1  UNL     1       4.092   5.194  50.276  1.00  0.00     0.189 HD
HETATM   26  N3  UNL     1       2.206   7.545  49.217  1.00  0.00    -0.264 N 
ATOM     27  H2  UNL     1       1.636   5.724  50.078  1.00  0.00     0.208 HD
ATOM     28  H3  UNL     1       1.294   7.790  48.831  1.00  0.00     0.187 HD
BRANCH  21  29
HETATM   29  S1  UNL     1       4.960   9.873  50.820  1.00  0.00    -0.129 SA
HETATM   30  C1  UNL     1       6.492  10.152  49.930  1.00  0.00     0.095 C 
ENDBRANCH  21  29
BRANCH  22  31
HETATM   31  C4  UNL     1       5.336   7.018  52.010  1.00  0.00     0.229 C 
HETATM   32  O1  UNL     1       6.481   6.510  51.762  1.00  0.00    -0.643 OA
HETATM   33  O2  UNL     1       5.081   7.312  53.301  1.00  0.00    -0.643 OA
ENDBRANCH  22  31
BRANCH  20  34
HETATM   34  O3  UNL     1       4.175   8.022  48.023  1.00  0.00    -0.348 OA
ATOM     35  H3  UNL     1       4.448   8.831  47.606  1.00  0.00     0.215 HD
ENDBRANCH  20  34
ENDBRANCH  18  20
ENDBRANCH  16  18
ENDBRANCH   1  15
BRANCH  14  36
HETATM   36  O5  UNL     1       1.194  12.536  45.742  1.00  0.00    -0.387 OA
ATOM     37  H5  UNL     1       0.572  12.847  45.093  1.00  0.00     0.210 HD
ENDBRANCH  14  36
BRANCH  12  38
HETATM   38  N10 UNL     1       1.916  15.047  43.681  1.00  0.00    -0.249 N 
ATOM     39  H10 UNL     1       1.646  15.059  44.665  1.00  0.00     0.207 HD
BRANCH  38  40
HETATM   40  N11 UNL     1       1.869  16.139  43.005  1.00  0.00    -0.331 N 
ATOM     41 2H11 UNL     1       1.051  16.308  42.418  1.00  0.00     0.178 HD
ATOM     42 1H11 UNL     1       2.623  16.825  43.046  1.00  0.00     0.178 HD
ENDBRANCH  38  40
ENDBRANCH  12  38
TORSDOF 9
ENDMDL
MODEL 3
REMARK VINA RESULT: -9.329819915      0.825      1.051
REMARK  9 active torsions:
REMARK  status: ('A' for Active; 'I' for Inactive)
REMARK    1  A    between atoms: S1_2  and  C2_3 
REMARK    2  A    between atoms: C3_4  and  C4_5 
REMARK    3  A    between atoms: C5_14  and  O3_15 
REMARK    4  A    between atoms: C5_14  and  N4_17 
REMARK    5  A    between atoms: N4_17  and  N5_19 
REMARK    6  A    between atoms: C6_21  and  C7_22 
REMARK    7  A    between atoms: N9_33  and  N10_35 
REMARK    8  A    between atoms: N10_35  and  N11_37 
REMARK    9  A    between atoms: C11_40  and  O5_41 
ROOT
HETATM    1  C7  UNL     1       2.996   9.562  50.025  1.00  0.00     0.158 C 
HETATM    2  N6  UNL     1       2.578   8.262  49.557  1.00  0.00    -0.361 N 
ATOM      3  H6  UNL     1       1.582   8.068  49.455  1.00  0.00     0.162 HD
HETATM    4  C8  UNL     1       3.513   7.252  49.237  1.00  0.00     0.155 A 
HETATM    5  N7  UNL     1       3.559   6.208  48.391  1.00  0.00    -0.223 N 
ATOM      6  H7  UNL     1       2.817   5.935  47.746  1.00  0.00     0.198 HD
HETATM    7  O4  UNL     1       4.715   5.594  48.529  1.00  0.00    -0.155 OA
HETATM    8  N8  UNL     1       5.440   6.202  49.444  1.00  0.00    -0.236 N 
ATOM      9  H8  UNL     1       6.376   5.937  49.750  1.00  0.00     0.197 HD
HETATM   10  C9  UNL     1       4.718   7.231  49.898  1.00  0.00     0.128 A 
HETATM   11  C10 UNL     1       4.954   8.272  50.903  1.00  0.00     0.090 C 
HETATM   12  N9  UNL     1       5.695   7.995  51.950  1.00  0.00    -0.286 N 
ATOM     13  H9  UNL     1       6.116   7.076  52.089  1.00  0.00     0.188 HD
HETATM   14  C11 UNL     1       4.337   9.592  50.679  1.00  0.00     0.199 C 
ENDROOT
BRANCH   1  15
HETATM   15  C6  UNL     1       2.983  10.446  48.824  1.00  0.00     0.108 C 
HETATM   16  N5  UNL     1       3.464  10.063  47.697  1.00  0.00    -0.314 N 
ATOM     17  H5  UNL     1       3.867   9.130  47.616  1.00  0.00     0.185 HD
BRANCH  16  18
HETATM   18  N4  UNL     1       3.445  10.895  46.586  1.00  0.00    -0.279 N 
ATOM     19  H4  UNL     1       3.170  11.874  46.672  1.00  0.00     0.185 HD
BRANCH  18  20
HETATM   20  C5  UNL     1       3.824  10.340  45.292  1.00  0.00     0.280 C 
HETATM   21  C2  UNL     1       3.224  11.223  44.211  1.00  0.00     0.092 C 
HETATM   22  C3  UNL     1       3.716  11.161  42.987  1.00  0.00     0.145 C 
HETATM   23  N1  UNL     1       4.906  10.333  42.891  1.00  0.00    -0.279 N 
HETATM   24  N2  UNL     1       5.791  10.343  43.950  1.00  0.00    -0.242 N 
ATOM     25  H1  UNL     1       5.082   9.761  42.064  1.00  0.00     0.189 HD
HETATM   26  N3  UNL     1       5.245  10.324  45.205  1.00  0.00    -0.264 N 
ATOM     27  H2  UNL     1       6.801  10.364  43.805  1.00  0.00     0.208 HD
ATOM     28  H3  UNL     1       5.830  10.300  46.040  1.00  0.00     0.187 HD
BRANCH  21  29
HETATM   29  S1  UNL     1       1.809  12.170  44.600  1.00  0.00    -0.129 SA
HETATM   30  C1  UNL     1       2.159  13.927  44.518  1.00  0.00     0.095 C 
ENDBRANCH  21  29
BRANCH  22  31
HETATM   31  C4  UNL     1       3.186  11.818  41.828  1.00  0.00     0.229 C 
HETATM   32  O1  UNL     1       2.164  11.303  41.259  1.00  0.00    -0.643 OA
HETATM   33  O2  UNL     1       3.669  12.949  41.276  1.00  0.00    -0.643 OA
ENDBRANCH  22  31
BRANCH  20  34
HETATM   34  O3  UNL     1       3.251   9.083  45.109  1.00  0.00    -0.348 OA
ATOM     35  H3  UNL     1       2.362   9.157  45.436  1.00  0.00     0.215 HD
ENDBRANCH  20  34
ENDBRANCH  18  20
ENDBRANCH  16  18
ENDBRANCH   1  15
BRANCH  14  36
HETATM   36  O5  UNL     1       5.231  10.310  49.851  1.00  0.00    -0.387 OA
ATOM     37  H5  UNL     1       4.976  11.225  49.848  1.00  0.00     0.210 HD
ENDBRANCH  14  36
BRANCH  12  38
HETATM   38  N10 UNL     1       5.872   9.041  52.860  1.00  0.00    -0.249 N 
ATOM     39  H10 UNL     1       5.233   9.126  53.651  1.00  0.00     0.207 HD
BRANCH  38  40
HETATM   40  N11 UNL     1       6.819   9.898  52.724  1.00  0.00    -0.331 N 
ATOM     41 2H11 UNL     1       6.569  10.866  52.519  1.00  0.00     0.178 HD
ATOM     42 1H11 UNL     1       7.799   9.629  52.815  1.00  0.00     0.178 HD
ENDBRANCH  38  40
ENDBRANCH  12  38
TORSDOF 9
ENDMDL
MODEL 4
REMARK VINA RESULT: -9.156756744      1.765      3.094
REMARK  9 active torsions:
REMARK  status: ('A' for Active; 'I' for Inactive)
REMARK    1  A    between atoms: S1_2  and  C2_3 
REMARK    2  A    between atoms: C3_4  and  C4_5 
REMARK    3  A    between atoms: C5_14  and  O3_15 
REMARK    4  A    between atoms: C5_14  and  N4_17 
REMARK    5  A    between atoms: N4_17  and  N5_19 
REMARK    6  A    between atoms: C6_21  and  C7_22 
REMARK    7  A    between atoms: N9_33  and  N10_35 
REMARK    8  A    between atoms: N10_35  and  N11_37 
REMARK    9  A    between atoms: C11_40  and  O5_41 
ROOT
HETATM    1  C7  UNL     1       4.537   8.643  49.008  1.00  0.00     0.158 C 
HETATM    2  N6  UNL     1       5.538   8.976  49.993  1.00  0.00    -0.361 N 
ATOM      3  H6  UNL     1       6.470   8.570  49.911  1.00  0.00     0.162 HD
HETATM    4  C8  UNL     1       5.259   9.848  51.070  1.00  0.00     0.155 A 
HETATM    5  N7  UNL     1       5.962  10.712  51.823  1.00  0.00    -0.223 N 
ATOM      6  H7  UNL     1       6.958  10.907  51.726  1.00  0.00     0.198 HD
HETATM    7  O4  UNL     1       5.158  11.264  52.707  1.00  0.00    -0.155 OA
HETATM    8  N8  UNL     1       3.938  10.790  52.561  1.00  0.00    -0.236 N 
ATOM      9  H8  UNL     1       3.120  11.046  53.113  1.00  0.00     0.197 HD
HETATM   10  C9  UNL     1       3.974   9.912  51.555  1.00  0.00     0.128 A 
HETATM   11  C10 UNL     1       2.968   9.060  50.914  1.00  0.00     0.090 C 
HETATM   12  N9  UNL     1       1.978   8.588  51.633  1.00  0.00    -0.286 N 
ATOM     13  H9  UNL     1       1.882   8.794  52.628  1.00  0.00     0.188 HD
HETATM   14  C11 UNL     1       3.127   8.777  49.476  1.00  0.00     0.199 C 
ENDROOT
BRANCH   1  15
HETATM   15  C6  UNL     1       4.791   9.551  47.853  1.00  0.00     0.108 C 
HETATM   16  N5  UNL     1       4.296   9.322  46.690  1.00  0.00    -0.314 N 
ATOM     17  H5  UNL     1       3.713   8.497  46.549  1.00  0.00     0.185 HD
BRANCH  16  18
HETATM   18  N4  UNL     1       4.538  10.177  45.623  1.00  0.00    -0.279 N 
ATOM     19  H4  UNL     1       5.110  11.012  45.745  1.00  0.00     0.185 HD
BRANCH  18  20
HETATM   20  C5  UNL     1       3.957   9.854  44.326  1.00  0.00     0.280 C 
HETATM   21  C2  UNL     1       3.576  11.158  43.648  1.00  0.00     0.092 C 
HETATM   22  C3  UNL     1       3.381  11.169  42.341  1.00  0.00     0.145 C 
HETATM   23  N1  UNL     1       3.724   9.910  41.703  1.00  0.00    -0.279 N 
HETATM   24  N2  UNL     1       4.804   9.205  42.197  1.00  0.00    -0.242 N 
ATOM     25  H1  UNL     1       3.183   9.557  40.913  1.00  0.00     0.189 HD
HETATM   26  N3  UNL     1       4.926   9.147  43.559  1.00  0.00    -0.264 N 
ATOM     27  H2  UNL     1       5.476   8.750  41.578  1.00  0.00     0.208 HD
ATOM     28  H3  UNL     1       5.679   8.621  44.004  1.00  0.00     0.187 HD
BRANCH  21  29
HETATM   29  S1  UNL     1       3.260  12.555  44.648  1.00  0.00    -0.129 SA
HETATM   30  C1  UNL     1       1.529  12.648  45.108  1.00  0.00     0.095 C 
ENDBRANCH  21  29
BRANCH  22  31
HETATM   31  C4  UNL     1       2.889  12.271  41.568  1.00  0.00     0.229 C 
HETATM   32  O1  UNL     1       2.229  12.014  40.505  1.00  0.00    -0.643 OA
HETATM   33  O2  UNL     1       3.055  13.576  41.865  1.00  0.00    -0.643 OA
ENDBRANCH  22  31
BRANCH  20  34
HETATM   34  O3  UNL     1       2.764   9.150  44.482  1.00  0.00    -0.348 OA
ATOM     35  H3  UNL     1       3.018   8.260  44.697  1.00  0.00     0.215 HD
ENDBRANCH  20  34
ENDBRANCH  18  20
ENDBRANCH  16  18
ENDBRANCH   1  15
BRANCH  14  36
HETATM   36  O5  UNL     1       2.521   9.857  48.792  1.00  0.00    -0.387 OA
ATOM     37  H5  UNL     1       1.672   9.577  48.470  1.00  0.00     0.210 HD
ENDBRANCH  14  36
BRANCH  12  38
HETATM   38  N10 UNL     1       1.062   7.785  50.948  1.00  0.00    -0.249 N 
ATOM     39  H10 UNL     1       0.137   8.156  50.732  1.00  0.00     0.207 HD
BRANCH  38  40
HETATM   40  N11 UNL     1       1.358   6.589  50.583  1.00  0.00    -0.331 N 
ATOM     41 2H11 UNL     1       1.336   5.850  51.286  1.00  0.00     0.178 HD
ATOM     42 1H11 UNL     1       1.611   6.372  49.618  1.00  0.00     0.178 HD
ENDBRANCH  38  40
ENDBRANCH  12  38
TORSDOF 9
ENDMDL
MODEL 5
REMARK VINA RESULT: -9.083875021      2.951      7.883
REMARK  9 active torsions:
REMARK  status: ('A' for Active; 'I' for Inactive)
REMARK    1  A    between atoms: S1_2  and  C2_3 
REMARK    2  A    between atoms: C3_4  and  C4_5 
REMARK    3  A    between atoms: C5_14  and  O3_15 
REMARK    4  A    between atoms: C5_14  and  N4_17 
REMARK    5  A    between atoms: N4_17  and  N5_19 
REMARK    6  A    between atoms: C6_21  and  C7_22 
REMARK    7  A    between atoms: N9_33  and  N10_35 
REMARK    8  A    between atoms: N10_35  and  N11_37 
REMARK    9  A    between atoms: C11_40  and  O5_41 
ROOT
HETATM    1  C7  UNL     1       5.066  11.021  45.964  1.00  0.00     0.158 C 
HETATM    2  N6  UNL     1       5.584  10.436  44.750  1.00  0.00    -0.361 N 
ATOM      3  H6  UNL     1       6.593  10.341  44.636  1.00  0.00     0.162 HD
HETATM    4  C8  UNL     1       4.730   9.992  43.716  1.00  0.00     0.155 A 
HETATM    5  N7  UNL     1       4.774   9.044  42.764  1.00  0.00    -0.223 N 
ATOM      6  H7  UNL     1       5.545   8.394  42.610  1.00  0.00     0.198 HD
HETATM    7  O4  UNL     1       3.662   9.090  42.061  1.00  0.00    -0.155 OA
HETATM    8  N8  UNL     1       2.879  10.043  42.521  1.00  0.00    -0.236 N 
ATOM      9  H8  UNL     1       1.959  10.295  42.163  1.00  0.00     0.197 HD
HETATM   10  C9  UNL     1       3.517  10.617  43.545  1.00  0.00     0.128 A 
HETATM   11  C10 UNL     1       3.189  11.715  44.459  1.00  0.00     0.090 C 
HETATM   12  N9  UNL     1       2.450  12.708  44.026  1.00  0.00    -0.286 N 
ATOM     13  H9  UNL     1       2.093  12.744  43.071  1.00  0.00     0.188 HD
HETATM   14  C11 UNL     1       3.715  11.641  45.834  1.00  0.00     0.199 C 
ENDROOT
BRANCH   1  15
HETATM   15  C6  UNL     1       5.039   9.917  46.965  1.00  0.00     0.108 C 
HETATM   16  N5  UNL     1       4.250   8.911  46.841  1.00  0.00    -0.314 N 
ATOM     17  H5  UNL     1       3.623   8.863  46.039  1.00  0.00     0.185 HD
BRANCH  16  18
HETATM   18  N4  UNL     1       4.235   7.888  47.780  1.00  0.00    -0.279 N 
ATOM     19  H4  UNL     1       4.847   7.078  47.678  1.00  0.00     0.185 HD
BRANCH  18  20
HETATM   20  C5  UNL     1       3.326   7.997  48.914  1.00  0.00     0.280 C 
HETATM   21  C2  UNL     1       4.105   7.648  50.171  1.00  0.00     0.092 C 
HETATM   22  C3  UNL     1       3.629   8.023  51.345  1.00  0.00     0.145 C 
HETATM   23  N1  UNL     1       2.461   8.881  51.240  1.00  0.00    -0.279 N 
HETATM   24  N2  UNL     1       2.410   9.783  50.195  1.00  0.00    -0.242 N 
ATOM     25  H1  UNL     1       1.701   8.818  51.918  1.00  0.00     0.189 HD
HETATM   26  N3  UNL     1       2.835   9.332  48.975  1.00  0.00    -0.264 N 
ATOM     27  H2  UNL     1       2.073  10.737  50.327  1.00  0.00     0.208 HD
ATOM     28  H3  UNL     1       2.801   9.926  48.146  1.00  0.00     0.187 HD
BRANCH  21  29
HETATM   29  S1  UNL     1       5.517   6.632  50.020  1.00  0.00    -0.129 SA
HETATM   30  C1  UNL     1       7.025   7.602  50.062  1.00  0.00     0.095 C 
ENDBRANCH  21  29
BRANCH  22  31
HETATM   31  C4  UNL     1       4.160   7.664  52.627  1.00  0.00     0.229 C 
HETATM   32  O1  UNL     1       3.466   6.891  53.370  1.00  0.00    -0.643 OA
HETATM   33  O2  UNL     1       5.344   8.068  53.129  1.00  0.00    -0.643 OA
ENDBRANCH  22  31
BRANCH  20  34
HETATM   34  O3  UNL     1       2.312   7.044  48.825  1.00  0.00    -0.348 OA
ATOM     35  H3  UNL     1       1.498   7.533  48.865  1.00  0.00     0.215 HD
ENDBRANCH  20  34
ENDBRANCH  18  20
ENDBRANCH  16  18
ENDBRANCH   1  15
BRANCH  14  36
HETATM   36  O5  UNL     1       2.788  10.867  46.570  1.00  0.00    -0.387 OA
ATOM     37  H5  UNL     1       2.146  11.449  46.961  1.00  0.00     0.210 HD
ENDBRANCH  14  36
BRANCH  12  38
HETATM   38  N10 UNL     1       2.183  13.715  44.959  1.00  0.00    -0.249 N 
ATOM     39  H10 UNL     1       2.416  13.559  45.939  1.00  0.00     0.207 HD
BRANCH  38  40
HETATM   40  N11 UNL     1       1.651  14.831  44.610  1.00  0.00    -0.331 N 
ATOM     41 2H11 UNL     1       0.897  15.207  45.186  1.00  0.00     0.178 HD
ATOM     42 1H11 UNL     1       1.964  15.335  43.780  1.00  0.00     0.178 HD
ENDBRANCH  38  40
ENDBRANCH  12  38
TORSDOF 9
ENDMDL
