MODEL 1
REMARK VINA RESULT: -7.899386795      0.000      0.000
REMARK  12 active torsions:
REMARK  status: ('A' for Active; 'I' for Inactive)
REMARK    1  A    between atoms: C2_2  and  C4_4 
REMARK    2  A    between atoms: C4_4  and  C5_5 
REMARK    3  A    between atoms: C5_5  and  N1_6 
REMARK    4  A    between atoms: C5_5  and  C16_27 
REMARK       I    between atoms: N1_6  and  C6_8 
REMARK    5  A    between atoms: C6_8  and  C7_10 
REMARK    6  A    between atoms: C7_10  and  C8_11 
REMARK    7  A    between atoms: C8_11  and  C9_12 
REMARK    8  A    between atoms: C9_12  and  C10_13 
REMARK    9  A    between atoms: C9_12  and  C14_18 
REMARK   10  A    between atoms: C10_13  and  N2_14 
REMARK   11  A    between atoms: N4_20  and  N5_22 
REMARK       I    between atoms: C16_27  and  N8_29 
REMARK   12  A    between atoms: N8_29  and  C18_31 
ROOT
HETATM    1  C7  UNL     1      37.520  35.323  51.537  1.00  0.00     0.103 C 
ENDROOT
BRANCH   1   2
HETATM    2  C6  UNL     1      37.433  36.099  52.799  1.00  0.00     0.218 C 
HETATM    3  N1  UNL     1      37.346  35.423  54.036  1.00  0.00    -0.348 N 
ATOM      4  H1  UNL     1      37.344  34.403  54.049  1.00  0.00     0.163 HD
HETATM    5  O1  UNL     1      37.432  37.371  52.820  1.00  0.00    -0.274 OA
BRANCH   3   6
HETATM    6  C5  UNL     1      37.258  36.168  55.317  1.00  0.00     0.177 C 
BRANCH   6   7
HETATM    7  C4  UNL     1      38.615  36.096  55.975  1.00  0.00     0.038 C 
BRANCH   7   8
HETATM    8  C2  UNL     1      39.499  37.228  55.613  1.00  0.00    -0.020 C 
HETATM    9  C1  UNL     1      40.091  37.887  56.870  1.00  0.00     0.009 C 
HETATM   10  C3  UNL     1      40.724  36.729  54.820  1.00  0.00     0.009 C 
ENDBRANCH   7   8
ENDBRANCH   6   7
BRANCH   6  11
HETATM   11  C16 UNL     1      36.255  35.414  56.138  1.00  0.00     0.242 C 
HETATM   12  O2  UNL     1      36.784  34.527  56.905  1.00  0.00    -0.271 OA
HETATM   13  N8  UNL     1      34.875  35.590  56.127  1.00  0.00    -0.351 N 
HETATM   14  C17 UNL     1      34.218  36.520  55.260  1.00  0.00     0.153 C 
BRANCH  13  15
HETATM   15  C18 UNL     1      34.052  34.803  57.033  1.00  0.00     0.078 C 
HETATM   16  C19 UNL     1      33.048  34.040  56.194  1.00  0.00     0.032 C 
HETATM   17  C20 UNL     1      33.325  35.659  58.017  1.00  0.00     0.032 C 
ENDBRANCH  13  15
ENDBRANCH   6  11
ENDBRANCH   3   6
ENDBRANCH   1   2
BRANCH   1  18
HETATM   18  C8  UNL     1      39.006  35.194  51.198  1.00  0.00     0.023 C 
BRANCH  18  19
HETATM   19  C9  UNL     1      39.435  36.242  50.215  1.00  0.00     0.078 C 
BRANCH  19  20
HETATM   20  C10 UNL     1      40.576  37.026  50.739  1.00  0.00     0.248 C 
BRANCH  20  21
HETATM   21  N2  UNL     1      40.512  38.444  50.690  1.00  0.00    -0.078 N 
HETATM   22  C11 UNL     1      39.254  38.929  50.167  1.00  0.00     0.271 C 
HETATM   23  C12 UNL     1      41.568  38.847  49.728  1.00  0.00     0.271 C 
HETATM   24  C13 UNL     1      40.811  39.133  51.905  1.00  0.00     0.271 C 
ENDBRANCH  20  21
ENDBRANCH  19  20
BRANCH  19  25
HETATM   25  C14 UNL     1      39.912  35.535  49.000  1.00  0.00     0.113 C 
HETATM   26  N3  UNL     1      38.980  35.255  47.979  1.00  0.00    -0.086 NA
HETATM   27  N4  UNL     1      41.131  35.177  48.855  1.00  0.00    -0.289 N 
ATOM     28  H4  UNL     1      41.782  35.394  49.610  1.00  0.00     0.188 HD
BRANCH  27  29
HETATM   29  N5  UNL     1      41.629  34.517  47.748  1.00  0.00    -0.275 N 
HETATM   30  C15 UNL     1      42.161  35.111  46.734  1.00  0.00     0.215 C 
HETATM   31  N6  UNL     1      42.292  36.518  46.643  1.00  0.00    -0.065 NA
HETATM   32  N7  UNL     1      42.635  34.318  45.659  1.00  0.00    -0.065 NA
ATOM     33  H5  UNL     1      41.573  33.498  47.732  1.00  0.00     0.189 HD
ENDBRANCH  27  29
ENDBRANCH  19  25
ENDBRANCH  18  19
ENDBRANCH   1  18
TORSDOF 12
ENDMDL
MODEL 2
REMARK VINA RESULT: -7.898132561      7.401     14.241
REMARK  12 active torsions:
REMARK  status: ('A' for Active; 'I' for Inactive)
REMARK    1  A    between atoms: C2_2  and  C4_4 
REMARK    2  A    between atoms: C4_4  and  C5_5 
REMARK    3  A    between atoms: C5_5  and  N1_6 
REMARK    4  A    between atoms: C5_5  and  C16_27 
REMARK       I    between atoms: N1_6  and  C6_8 
REMARK    5  A    between atoms: C6_8  and  C7_10 
REMARK    6  A    between atoms: C7_10  and  C8_11 
REMARK    7  A    between atoms: C8_11  and  C9_12 
REMARK    8  A    between atoms: C9_12  and  C10_13 
REMARK    9  A    between atoms: C9_12  and  C14_18 
REMARK   10  A    between atoms: C10_13  and  N2_14 
REMARK   11  A    between atoms: N4_20  and  N5_22 
REMARK       I    between atoms: C16_27  and  N8_29 
REMARK   12  A    between atoms: N8_29  and  C18_31 
ROOT
HETATM    1  C7  UNL     1      45.163  33.201  44.351  1.00  0.00     0.103 C 
ENDROOT
BRANCH   1   2
HETATM    2  C6  UNL     1      45.100  33.461  42.891  1.00  0.00     0.218 C 
HETATM    3  N1  UNL     1      44.533  32.496  42.030  1.00  0.00    -0.348 N 
ATOM      4  H1  UNL     1      44.172  31.626  42.421  1.00  0.00     0.163 HD
HETATM    5  O1  UNL     1      45.541  34.534  42.369  1.00  0.00    -0.274 OA
BRANCH   3   6
HETATM    6  C5  UNL     1      44.453  32.723  40.564  1.00  0.00     0.177 C 
BRANCH   6   7
HETATM    7  C4  UNL     1      42.996  32.656  40.177  1.00  0.00     0.038 C 
BRANCH   7   8
HETATM    8  C2  UNL     1      42.543  33.836  39.404  1.00  0.00    -0.020 C 
HETATM    9  C1  UNL     1      42.866  35.140  40.152  1.00  0.00     0.009 C 
HETATM   10  C3  UNL     1      43.318  33.946  38.076  1.00  0.00     0.009 C 
ENDBRANCH   7   8
ENDBRANCH   6   7
BRANCH   6  11
HETATM   11  C16 UNL     1      45.195  31.574  39.951  1.00  0.00     0.242 C 
HETATM   12  O2  UNL     1      44.745  30.424  40.309  1.00  0.00    -0.271 OA
HETATM   13  N8  UNL     1      46.275  31.656  39.077  1.00  0.00    -0.351 N 
HETATM   14  C17 UNL     1      46.857  32.902  38.680  1.00  0.00     0.153 C 
BRANCH  13  15
HETATM   15  C18 UNL     1      46.843  30.432  38.533  1.00  0.00     0.078 C 
HETATM   16  C19 UNL     1      48.243  30.752  38.051  1.00  0.00     0.032 C 
HETATM   17  C20 UNL     1      46.038  29.897  37.395  1.00  0.00     0.032 C 
ENDBRANCH  13  15
ENDBRANCH   6  11
ENDBRANCH   3   6
ENDBRANCH   1   2
BRANCH   1  18
HETATM   18  C8  UNL     1      44.046  34.022  44.996  1.00  0.00     0.023 C 
BRANCH  18  19
HETATM   19  C9  UNL     1      42.802  33.205  45.179  1.00  0.00     0.078 C 
BRANCH  19  20
HETATM   20  C10 UNL     1      43.111  31.901  45.807  1.00  0.00     0.248 C 
BRANCH  20  21
HETATM   21  N2  UNL     1      42.705  30.710  45.149  1.00  0.00    -0.078 N 
HETATM   22  C11 UNL     1      41.662  30.939  44.173  1.00  0.00     0.271 C 
HETATM   23  C12 UNL     1      42.122  29.858  46.215  1.00  0.00     0.271 C 
HETATM   24  C13 UNL     1      43.743  29.931  44.553  1.00  0.00     0.271 C 
ENDBRANCH  20  21
ENDBRANCH  19  20
BRANCH  19  25
HETATM   25  C14 UNL     1      41.923  33.946  46.118  1.00  0.00     0.113 C 
HETATM   26  N3  UNL     1      40.699  34.452  45.633  1.00  0.00    -0.086 NA
HETATM   27  N4  UNL     1      42.242  34.137  47.341  1.00  0.00    -0.289 N 
ATOM     28  H4  UNL     1      43.133  33.759  47.664  1.00  0.00     0.188 HD
BRANCH  27  29
HETATM   29  N5  UNL     1      41.465  34.819  48.258  1.00  0.00    -0.275 N 
HETATM   30  C15 UNL     1      41.764  35.981  48.733  1.00  0.00     0.215 C 
HETATM   31  N6  UNL     1      42.932  36.690  48.364  1.00  0.00    -0.065 NA
HETATM   32  N7  UNL     1      40.881  36.574  49.669  1.00  0.00    -0.065 NA
ATOM     33  H5  UNL     1      40.604  34.376  48.579  1.00  0.00     0.189 HD
ENDBRANCH  27  29
ENDBRANCH  19  25
ENDBRANCH  18  19
ENDBRANCH   1  18
TORSDOF 12
ENDMDL
MODEL 3
REMARK VINA RESULT: -7.788082784      4.606     10.657
REMARK  12 active torsions:
REMARK  status: ('A' for Active; 'I' for Inactive)
REMARK    1  A    between atoms: C2_2  and  C4_4 
REMARK    2  A    between atoms: C4_4  and  C5_5 
REMARK    3  A    between atoms: C5_5  and  N1_6 
REMARK    4  A    between atoms: C5_5  and  C16_27 
REMARK       I    between atoms: N1_6  and  C6_8 
REMARK    5  A    between atoms: C6_8  and  C7_10 
REMARK    6  A    between atoms: C7_10  and  C8_11 
REMARK    7  A    between atoms: C8_11  and  C9_12 
REMARK    8  A    between atoms: C9_12  and  C10_13 
REMARK    9  A    between atoms: C9_12  and  C14_18 
REMARK   10  A    between atoms: C10_13  and  N2_14 
REMARK   11  A    between atoms: N4_20  and  N5_22 
REMARK       I    between atoms: C16_27  and  N8_29 
REMARK   12  A    between atoms: N8_29  and  C18_31 
ROOT
HETATM    1  C7  UNL     1      42.417  35.802  48.812  1.00  0.00     0.103 C 
ENDROOT
BRANCH   1   2
HETATM    2  C6  UNL     1      42.300  35.908  47.336  1.00  0.00     0.218 C 
HETATM    3  N1  UNL     1      42.512  34.767  46.530  1.00  0.00    -0.348 N 
ATOM      4  H1  UNL     1      42.745  33.879  46.973  1.00  0.00     0.163 HD
HETATM    5  O1  UNL     1      42.011  37.000  46.751  1.00  0.00    -0.274 OA
BRANCH   3   6
HETATM    6  C5  UNL     1      42.402  34.837  45.051  1.00  0.00     0.177 C 
BRANCH   6   7
HETATM    7  C4  UNL     1      41.023  34.349  44.678  1.00  0.00     0.038 C 
BRANCH   7   8
HETATM    8  C2  UNL     1      40.927  33.891  43.272  1.00  0.00    -0.020 C 
HETATM    9  C1  UNL     1      40.170  32.556  43.179  1.00  0.00     0.009 C 
HETATM   10  C3  UNL     1      40.086  34.876  42.436  1.00  0.00     0.009 C 
ENDBRANCH   7   8
ENDBRANCH   6   7
BRANCH   6  11
HETATM   11  C16 UNL     1      43.435  33.879  44.538  1.00  0.00     0.242 C 
HETATM   12  O2  UNL     1      43.602  32.852  45.293  1.00  0.00    -0.271 OA
HETATM   13  N8  UNL     1      44.187  34.016  43.374  1.00  0.00    -0.351 N 
HETATM   14  C17 UNL     1      44.089  35.159  42.518  1.00  0.00     0.153 C 
BRANCH  13  15
HETATM   15  C18 UNL     1      45.112  32.958  42.999  1.00  0.00     0.078 C 
HETATM   16  C19 UNL     1      46.355  33.616  42.436  1.00  0.00     0.032 C 
HETATM   17  C20 UNL     1      44.530  32.041  41.974  1.00  0.00     0.032 C 
ENDBRANCH  13  15
ENDBRANCH   6  11
ENDBRANCH   3   6
ENDBRANCH   1   2
BRANCH   1  18
HETATM   18  C8  UNL     1      42.168  37.201  49.377  1.00  0.00     0.023 C 
BRANCH  18  19
HETATM   19  C9  UNL     1      40.701  37.501  49.469  1.00  0.00     0.078 C 
BRANCH  19  20
HETATM   20  C10 UNL     1      40.095  36.833  50.642  1.00  0.00     0.248 C 
BRANCH  20  21
HETATM   21  N2  UNL     1      39.089  35.853  50.429  1.00  0.00    -0.078 N 
HETATM   22  C11 UNL     1      38.494  35.942  49.114  1.00  0.00     0.271 C 
HETATM   23  C12 UNL     1      38.023  36.173  51.411  1.00  0.00     0.271 C 
HETATM   24  C13 UNL     1      39.460  34.498  50.686  1.00  0.00     0.271 C 
ENDBRANCH  20  21
ENDBRANCH  19  20
BRANCH  19  25
HETATM   25  C14 UNL     1      40.565  38.964  49.679  1.00  0.00     0.113 C 
HETATM   26  N3  UNL     1      39.281  39.485  49.943  1.00  0.00    -0.086 NA
HETATM   27  N4  UNL     1      41.567  39.755  49.628  1.00  0.00    -0.289 N 
ATOM     28  H4  UNL     1      42.483  39.349  49.436  1.00  0.00     0.188 HD
BRANCH  27  29
HETATM   29  N5  UNL     1      41.499  41.122  49.815  1.00  0.00    -0.275 N 
HETATM   30  C15 UNL     1      42.295  41.785  50.584  1.00  0.00     0.215 C 
HETATM   31  N6  UNL     1      43.335  41.178  51.327  1.00  0.00    -0.065 NA
HETATM   32  N7  UNL     1      42.119  43.188  50.689  1.00  0.00    -0.065 NA
ATOM     33  H5  UNL     1      40.775  41.638  49.314  1.00  0.00     0.189 HD
ENDBRANCH  27  29
ENDBRANCH  19  25
ENDBRANCH  18  19
ENDBRANCH   1  18
TORSDOF 12
ENDMDL
MODEL 4
REMARK VINA RESULT: -7.778467169      4.483     10.199
REMARK  12 active torsions:
REMARK  status: ('A' for Active; 'I' for Inactive)
REMARK    1  A    between atoms: C2_2  and  C4_4 
REMARK    2  A    between atoms: C4_4  and  C5_5 
REMARK    3  A    between atoms: C5_5  and  N1_6 
REMARK    4  A    between atoms: C5_5  and  C16_27 
REMARK       I    between atoms: N1_6  and  C6_8 
REMARK    5  A    between atoms: C6_8  and  C7_10 
REMARK    6  A    between atoms: C7_10  and  C8_11 
REMARK    7  A    between atoms: C8_11  and  C9_12 
REMARK    8  A    between atoms: C9_12  and  C10_13 
REMARK    9  A    between atoms: C9_12  and  C14_18 
REMARK   10  A    between atoms: C10_13  and  N2_14 
REMARK   11  A    between atoms: N4_20  and  N5_22 
REMARK       I    between atoms: C16_27  and  N8_29 
REMARK   12  A    between atoms: N8_29  and  C18_31 
ROOT
HETATM    1  C7  UNL     1      42.100  35.966  48.481  1.00  0.00     0.103 C 
ENDROOT
BRANCH   1   2
HETATM    2  C6  UNL     1      41.668  35.051  47.395  1.00  0.00     0.218 C 
HETATM    3  N1  UNL     1      42.595  34.151  46.825  1.00  0.00    -0.348 N 
ATOM      4  H1  UNL     1      43.556  34.139  47.166  1.00  0.00     0.163 HD
HETATM    5  O1  UNL     1      40.478  35.040  46.945  1.00  0.00    -0.274 OA
BRANCH   3   6
HETATM    6  C5  UNL     1      42.197  33.221  45.737  1.00  0.00     0.177 C 
BRANCH   6   7
HETATM    7  C4  UNL     1      43.057  31.987  45.862  1.00  0.00     0.038 C 
BRANCH   7   8
HETATM    8  C2  UNL     1      42.448  30.787  45.241  1.00  0.00    -0.020 C 
HETATM    9  C1  UNL     1      43.282  30.306  44.043  1.00  0.00     0.009 C 
HETATM   10  C3  UNL     1      42.459  29.601  46.226  1.00  0.00     0.009 C 
ENDBRANCH   7   8
ENDBRANCH   6   7
BRANCH   6  11
HETATM   11  C16 UNL     1      42.528  33.944  44.466  1.00  0.00     0.242 C 
HETATM   12  O2  UNL     1      43.613  34.630  44.535  1.00  0.00    -0.271 OA
HETATM   13  N8  UNL     1      41.787  33.930  43.288  1.00  0.00    -0.351 N 
HETATM   14  C17 UNL     1      40.545  33.231  43.161  1.00  0.00     0.153 C 
BRANCH  13  15
HETATM   15  C18 UNL     1      42.287  34.651  42.127  1.00  0.00     0.078 C 
HETATM   16  C19 UNL     1      41.090  35.198  41.377  1.00  0.00     0.032 C 
HETATM   17  C20 UNL     1      43.079  33.769  41.218  1.00  0.00     0.032 C 
ENDBRANCH  13  15
ENDBRANCH   6  11
ENDBRANCH   3   6
ENDBRANCH   1   2
BRANCH   1  18
HETATM   18  C8  UNL     1      41.491  37.335  48.175  1.00  0.00     0.023 C 
BRANCH  18  19
HETATM   19  C9  UNL     1      40.304  37.614  49.047  1.00  0.00     0.078 C 
BRANCH  19  20
HETATM   20  C10 UNL     1      40.310  36.745  50.245  1.00  0.00     0.248 C 
BRANCH  20  21
HETATM   21  N2  UNL     1      39.168  35.948  50.519  1.00  0.00    -0.078 N 
HETATM   22  C11 UNL     1      39.490  34.547  50.676  1.00  0.00     0.271 C 
HETATM   23  C12 UNL     1      38.314  36.066  49.310  1.00  0.00     0.271 C 
HETATM   24  C13 UNL     1      38.351  36.366  51.613  1.00  0.00     0.271 C 
ENDBRANCH  20  21
ENDBRANCH  19  20
BRANCH  19  25
HETATM   25  C14 UNL     1      40.427  39.015  49.522  1.00  0.00     0.113 C 
HETATM   26  N3  UNL     1      39.275  39.655  50.024  1.00  0.00    -0.086 NA
HETATM   27  N4  UNL     1      41.536  39.650  49.489  1.00  0.00    -0.289 N 
ATOM     28  H4  UNL     1      42.352  39.160  49.121  1.00  0.00     0.188 HD
BRANCH  27  29
HETATM   29  N5  UNL     1      41.708  40.952  49.916  1.00  0.00    -0.275 N 
HETATM   30  C15 UNL     1      42.531  41.303  50.846  1.00  0.00     0.215 C 
HETATM   31  N6  UNL     1      43.354  40.382  51.538  1.00  0.00    -0.065 NA
HETATM   32  N7  UNL     1      42.613  42.675  51.192  1.00  0.00    -0.065 NA
ATOM     33  H5  UNL     1      41.151  41.681  49.468  1.00  0.00     0.189 HD
ENDBRANCH  27  29
ENDBRANCH  19  25
ENDBRANCH  18  19
ENDBRANCH   1  18
TORSDOF 12
ENDMDL
MODEL 5
REMARK VINA RESULT: -7.702060489     10.268     14.391
REMARK  12 active torsions:
REMARK  status: ('A' for Active; 'I' for Inactive)
REMARK    1  A    between atoms: C2_2  and  C4_4 
REMARK    2  A    between atoms: C4_4  and  C5_5 
REMARK    3  A    between atoms: C5_5  and  N1_6 
REMARK    4  A    between atoms: C5_5  and  C16_27 
REMARK       I    between atoms: N1_6  and  C6_8 
REMARK    5  A    between atoms: C6_8  and  C7_10 
REMARK    6  A    between atoms: C7_10  and  C8_11 
REMARK    7  A    between atoms: C8_11  and  C9_12 
REMARK    8  A    between atoms: C9_12  and  C10_13 
REMARK    9  A    between atoms: C9_12  and  C14_18 
REMARK   10  A    between atoms: C10_13  and  N2_14 
REMARK   11  A    between atoms: N4_20  and  N5_22 
REMARK       I    between atoms: C16_27  and  N8_29 
REMARK   12  A    between atoms: N8_29  and  C18_31 
ROOT
HETATM    1  C7  UNL     1      43.682  28.645  42.153  1.00  0.00     0.103 C 
ENDROOT
BRANCH   1   2
HETATM    2  C6  UNL     1      43.282  29.820  41.339  1.00  0.00     0.218 C 
HETATM    3  N1  UNL     1      44.271  30.688  40.824  1.00  0.00    -0.348 N 
ATOM      4  H1  UNL     1      45.254  30.497  41.019  1.00  0.00     0.163 HD
HETATM    5  O1  UNL     1      42.066  30.088  41.078  1.00  0.00    -0.274 OA
BRANCH   3   6
HETATM    6  C5  UNL     1      43.907  31.872  40.006  1.00  0.00     0.177 C 
BRANCH   6   7
HETATM    7  C4  UNL     1      44.799  31.870  38.789  1.00  0.00     0.038 C 
BRANCH   7   8
HETATM    8  C2  UNL     1      45.776  30.756  38.784  1.00  0.00    -0.020 C 
HETATM    9  C1  UNL     1      45.593  29.869  37.542  1.00  0.00     0.009 C 
HETATM   10  C3  UNL     1      47.216  31.297  38.668  1.00  0.00     0.009 C 
ENDBRANCH   7   8
ENDBRANCH   6   7
BRANCH   6  11
HETATM   11  C16 UNL     1      44.228  33.055  40.869  1.00  0.00     0.242 C 
HETATM   12  O2  UNL     1      45.441  33.065  41.294  1.00  0.00    -0.271 OA
HETATM   13  N8  UNL     1      43.357  34.081  41.227  1.00  0.00    -0.351 N 
HETATM   14  C17 UNL     1      41.981  34.103  40.832  1.00  0.00     0.153 C 
BRANCH  13  15
HETATM   15  C18 UNL     1      43.854  35.185  42.032  1.00  0.00     0.078 C 
HETATM   16  C19 UNL     1      43.024  35.239  43.298  1.00  0.00     0.032 C 
HETATM   17  C20 UNL     1      43.751  36.492  41.317  1.00  0.00     0.032 C 
ENDBRANCH  13  15
ENDBRANCH   6  11
ENDBRANCH   3   6
ENDBRANCH   1   2
BRANCH   1  18
HETATM   18  C8  UNL     1      42.768  28.625  43.379  1.00  0.00     0.023 C 
BRANCH  18  19
HETATM   19  C9  UNL     1      43.478  29.132  44.599  1.00  0.00     0.078 C 
BRANCH  19  20
HETATM   20  C10 UNL     1      42.648  30.118  45.325  1.00  0.00     0.248 C 
BRANCH  20  21
HETATM   21  N2  UNL     1      42.735  31.488  44.960  1.00  0.00    -0.078 N 
HETATM   22  C11 UNL     1      43.988  31.815  44.316  1.00  0.00     0.271 C 
HETATM   23  C12 UNL     1      42.697  32.234  46.243  1.00  0.00     0.271 C 
HETATM   24  C13 UNL     1      41.657  32.005  44.178  1.00  0.00     0.271 C 
ENDBRANCH  20  21
ENDBRANCH  19  20
BRANCH  19  25
HETATM   25  C14 UNL     1      43.675  27.974  45.506  1.00  0.00     0.113 C 
HETATM   26  N3  UNL     1      43.221  28.080  46.837  1.00  0.00    -0.086 NA
HETATM   27  N4  UNL     1      44.239  26.893  45.118  1.00  0.00    -0.289 N 
ATOM     28  H4  UNL     1      44.556  26.845  44.150  1.00  0.00     0.188 HD
BRANCH  27  29
HETATM   29  N5  UNL     1      44.448  25.786  45.917  1.00  0.00    -0.275 N 
HETATM   30  C15 UNL     1      44.698  24.605  45.461  1.00  0.00     0.215 C 
HETATM   31  N6  UNL     1      44.784  24.312  44.079  1.00  0.00    -0.065 NA
HETATM   32  N7  UNL     1      44.894  23.552  46.389  1.00  0.00    -0.065 NA
ATOM     33  H5  UNL     1      44.403  25.910  46.929  1.00  0.00     0.189 HD
ENDBRANCH  27  29
ENDBRANCH  19  25
ENDBRANCH  18  19
ENDBRANCH   1  18
TORSDOF 12
ENDMDL
