MODEL 1
REMARK VINA RESULT: -7.780884245      0.000      0.000
REMARK  11 active torsions:
REMARK  status: ('A' for Active; 'I' for Inactive)
REMARK    1  A    between atoms: N2_5  and  C4_6 
REMARK    2  A    between atoms: C4_6  and  C5_7 
REMARK    3  A    between atoms: C5_7  and  C6_8 
REMARK    4  A    between atoms: C6_8  and  N3_9 
REMARK    5  A    between atoms: N3_9  and  C7_10 
REMARK    6  A    between atoms: C7_10  and  C8_11 
REMARK    7  A    between atoms: C8_11  and  N4_12 
REMARK    8  A    between atoms: N4_12  and  C9_15 
REMARK    9  A    between atoms: C9_15  and  C10_16 
REMARK   10  A    between atoms: C10_16  and  C11_17 
REMARK   11  A    between atoms: C11_17  and  N5_18 
REMARK       I    between atoms: N5_18  and  C12_20 
REMARK       I    between atoms: C12_20  and  N6_22 
ROOT
HETATM    1  N5  UNL     1      42.406  34.040  47.004  1.00  0.00    -0.342 N 
ATOM      2  H5  UNL     1      42.461  33.304  47.708  1.00  0.00     0.164 HD
HETATM    3  C12 UNL     1      42.350  35.385  47.456  1.00  0.00     0.329 C 
HETATM    4  O1  UNL     1      42.282  36.361  46.650  1.00  0.00    -0.246 OA
HETATM    5  N6  UNL     1      42.368  35.699  48.844  1.00  0.00    -0.245 N 
ATOM      6  H6  UNL     1      42.422  34.938  49.522  1.00  0.00     0.183 HD
HETATM    7  C13 UNL     1      42.315  37.017  49.309  1.00  0.00     0.185 C 
HETATM    8  N7  UNL     1      42.289  38.100  49.686  1.00  0.00    -0.172 NA
ENDROOT
BRANCH   1   9
HETATM    9  C11 UNL     1      42.390  33.647  45.626  1.00  0.00     0.126 C 
BRANCH   9  10
HETATM   10  C10 UNL     1      42.640  32.192  45.406  1.00  0.00     0.047 C 
BRANCH  10  11
HETATM   11  C9  UNL     1      43.920  32.022  44.606  1.00  0.00     0.234 C 
BRANCH  11  12
HETATM   12  N4  UNL     1      44.625  33.290  44.536  1.00  0.00    -0.073 N 
ATOM     13  H42 UNL     1      45.281  33.399  45.309  1.00  0.00     0.277 HD
ATOM     14  H41 UNL     1      44.010  34.075  44.744  1.00  0.00     0.277 HD
BRANCH  12  15
HETATM   15  C8  UNL     1      45.283  33.447  43.241  1.00  0.00     0.260 C 
BRANCH  15  16
HETATM   16  C7  UNL     1      44.494  34.440  42.461  1.00  0.00     0.264 C 
BRANCH  16  17
HETATM   17  N3  UNL     1      43.651  33.935  41.429  1.00  0.00    -0.065 N 
HETATM   18  C14 UNL     1      43.664  34.863  40.272  1.00  0.00     0.237 C 
HETATM   19  C15 UNL     1      42.714  35.965  40.604  1.00  0.00     0.029 C 
HETATM   20  C16 UNL     1      41.605  35.183  41.288  1.00  0.00     0.029 C 
HETATM   21  C17 UNL     1      42.275  33.975  41.886  1.00  0.00     0.237 C 
BRANCH  17  22
HETATM   22  C6  UNL     1      44.061  32.683  40.884  1.00  0.00     0.239 C 
BRANCH  22  23
HETATM   23  C5  UNL     1      43.081  31.590  40.762  1.00  0.00     0.056 C 
BRANCH  23  24
HETATM   24  C4  UNL     1      43.583  30.301  41.299  1.00  0.00     0.239 C 
BRANCH  24  25
HETATM   25  N2  UNL     1      42.566  29.533  41.994  1.00  0.00    -0.062 N 
HETATM   26  C3  UNL     1      41.469  30.436  42.274  1.00  0.00     0.265 C 
HETATM   27  C2  UNL     1      40.381  29.799  43.107  1.00  0.00     0.265 C 
HETATM   28  N1  UNL     1      40.775  28.406  43.300  1.00  0.00    -0.066 N 
HETATM   29  C1  UNL     1      39.727  27.744  44.013  1.00  0.00     0.272 C 
HETATM   30  C19 UNL     1      41.991  28.424  44.082  1.00  0.00     0.265 C 
HETATM   31  C21 UNL     1      40.942  27.788  42.013  1.00  0.00     0.265 C 
HETATM   32  C18 UNL     1      43.094  28.928  43.198  1.00  0.00     0.265 C 
HETATM   33  C20 UNL     1      42.030  28.455  41.186  1.00  0.00     0.265 C 
ENDBRANCH  24  25
ENDBRANCH  23  24
ENDBRANCH  22  23
ENDBRANCH  17  22
ENDBRANCH  16  17
ENDBRANCH  15  16
ENDBRANCH  12  15
ENDBRANCH  11  12
ENDBRANCH  10  11
ENDBRANCH   9  10
ENDBRANCH   1   9
TORSDOF 11
ENDMDL
MODEL 2
REMARK VINA RESULT: -7.642201051      1.273      2.100
REMARK  11 active torsions:
REMARK  status: ('A' for Active; 'I' for Inactive)
REMARK    1  A    between atoms: N2_5  and  C4_6 
REMARK    2  A    between atoms: C4_6  and  C5_7 
REMARK    3  A    between atoms: C5_7  and  C6_8 
REMARK    4  A    between atoms: C6_8  and  N3_9 
REMARK    5  A    between atoms: N3_9  and  C7_10 
REMARK    6  A    between atoms: C7_10  and  C8_11 
REMARK    7  A    between atoms: C8_11  and  N4_12 
REMARK    8  A    between atoms: N4_12  and  C9_15 
REMARK    9  A    between atoms: C9_15  and  C10_16 
REMARK   10  A    between atoms: C10_16  and  C11_17 
REMARK   11  A    between atoms: C11_17  and  N5_18 
REMARK       I    between atoms: N5_18  and  C12_20 
REMARK       I    between atoms: C12_20  and  N6_22 
ROOT
HETATM    1  N5  UNL     1      42.544  33.942  46.751  1.00  0.00    -0.342 N 
ATOM      2  H5  UNL     1      42.536  33.215  47.467  1.00  0.00     0.164 HD
HETATM    3  C12 UNL     1      42.421  35.291  47.177  1.00  0.00     0.329 C 
HETATM    4  O1  UNL     1      42.423  36.257  46.356  1.00  0.00    -0.246 OA
HETATM    5  N6  UNL     1      42.288  35.620  48.555  1.00  0.00    -0.245 N 
ATOM      6  H6  UNL     1      42.283  34.868  49.245  1.00  0.00     0.183 HD
HETATM    7  C13 UNL     1      42.166  36.943  48.994  1.00  0.00     0.185 C 
HETATM    8  N7  UNL     1      42.084  38.029  49.353  1.00  0.00    -0.172 NA
ENDROOT
BRANCH   1   9
HETATM    9  C11 UNL     1      42.680  33.533  45.384  1.00  0.00     0.126 C 
BRANCH   9  10
HETATM   10  C10 UNL     1      41.387  33.460  44.641  1.00  0.00     0.047 C 
BRANCH  10  11
HETATM   11  C9  UNL     1      41.444  34.402  43.450  1.00  0.00     0.234 C 
BRANCH  11  12
HETATM   12  N4  UNL     1      42.609  35.262  43.563  1.00  0.00    -0.073 N 
ATOM     13  H42 UNL     1      43.255  34.930  44.278  1.00  0.00     0.277 HD
ATOM     14  H41 UNL     1      42.373  36.164  43.975  1.00  0.00     0.277 HD
BRANCH  12  15
HETATM   15  C8  UNL     1      43.267  35.415  42.267  1.00  0.00     0.260 C 
BRANCH  15  16
HETATM   16  C7  UNL     1      44.638  34.853  42.398  1.00  0.00     0.264 C 
BRANCH  16  17
HETATM   17  N3  UNL     1      44.921  33.654  41.682  1.00  0.00    -0.065 N 
HETATM   18  C14 UNL     1      46.388  33.494  41.527  1.00  0.00     0.237 C 
HETATM   19  C15 UNL     1      46.787  34.357  40.377  1.00  0.00     0.029 C 
HETATM   20  C16 UNL     1      45.618  34.125  39.433  1.00  0.00     0.029 C 
HETATM   21  C17 UNL     1      44.445  33.798  40.319  1.00  0.00     0.237 C 
BRANCH  17  22
HETATM   22  C6  UNL     1      44.501  32.457  42.335  1.00  0.00     0.239 C 
BRANCH  22  23
HETATM   23  C5  UNL     1      43.442  31.633  41.727  1.00  0.00     0.056 C 
BRANCH  23  24
HETATM   24  C4  UNL     1      43.592  30.187  42.026  1.00  0.00     0.239 C 
BRANCH  24  25
HETATM   25  N2  UNL     1      42.395  29.590  42.590  1.00  0.00    -0.062 N 
HETATM   26  C3  UNL     1      42.600  29.494  44.020  1.00  0.00     0.265 C 
HETATM   27  C2  UNL     1      41.477  28.775  44.729  1.00  0.00     0.265 C 
HETATM   28  N1  UNL     1      40.479  28.467  43.709  1.00  0.00    -0.066 N 
HETATM   29  C1  UNL     1      39.357  27.860  44.354  1.00  0.00     0.272 C 
HETATM   30  C19 UNL     1      41.100  27.540  42.789  1.00  0.00     0.265 C 
HETATM   31  C21 UNL     1      40.064  29.691  43.079  1.00  0.00     0.265 C 
HETATM   32  C18 UNL     1      42.119  28.301  41.992  1.00  0.00     0.265 C 
HETATM   33  C20 UNL     1      41.214  30.405  42.386  1.00  0.00     0.265 C 
ENDBRANCH  24  25
ENDBRANCH  23  24
ENDBRANCH  22  23
ENDBRANCH  17  22
ENDBRANCH  16  17
ENDBRANCH  15  16
ENDBRANCH  12  15
ENDBRANCH  11  12
ENDBRANCH  10  11
ENDBRANCH   9  10
ENDBRANCH   1   9
TORSDOF 11
ENDMDL
MODEL 3
REMARK VINA RESULT: -7.610461260      1.517      2.708
REMARK  11 active torsions:
REMARK  status: ('A' for Active; 'I' for Inactive)
REMARK    1  A    between atoms: N2_5  and  C4_6 
REMARK    2  A    between atoms: C4_6  and  C5_7 
REMARK    3  A    between atoms: C5_7  and  C6_8 
REMARK    4  A    between atoms: C6_8  and  N3_9 
REMARK    5  A    between atoms: N3_9  and  C7_10 
REMARK    6  A    between atoms: C7_10  and  C8_11 
REMARK    7  A    between atoms: C8_11  and  N4_12 
REMARK    8  A    between atoms: N4_12  and  C9_15 
REMARK    9  A    between atoms: C9_15  and  C10_16 
REMARK   10  A    between atoms: C10_16  and  C11_17 
REMARK   11  A    between atoms: C11_17  and  N5_18 
REMARK       I    between atoms: N5_18  and  C12_20 
REMARK       I    between atoms: C12_20  and  N6_22 
ROOT
HETATM    1  N5  UNL     1      42.318  34.115  47.052  1.00  0.00    -0.342 N 
ATOM      2  H5  UNL     1      42.314  33.365  47.743  1.00  0.00     0.164 HD
HETATM    3  C12 UNL     1      42.320  35.453  47.528  1.00  0.00     0.329 C 
HETATM    4  O1  UNL     1      42.327  36.446  46.740  1.00  0.00    -0.246 OA
HETATM    5  N6  UNL     1      42.315  35.740  48.922  1.00  0.00    -0.245 N 
ATOM      6  H6  UNL     1      42.310  34.965  49.586  1.00  0.00     0.183 HD
HETATM    7  C13 UNL     1      42.318  37.050  49.411  1.00  0.00     0.185 C 
HETATM    8  N7  UNL     1      42.339  38.126  49.808  1.00  0.00    -0.172 NA
ENDROOT
BRANCH   1   9
HETATM    9  C11 UNL     1      42.322  33.748  45.666  1.00  0.00     0.126 C 
BRANCH   9  10
HETATM   10  C10 UNL     1      41.031  34.012  44.965  1.00  0.00     0.047 C 
BRANCH  10  11
HETATM   11  C9  UNL     1      41.317  34.675  43.628  1.00  0.00     0.234 C 
BRANCH  11  12
HETATM   12  N4  UNL     1      42.585  35.380  43.694  1.00  0.00    -0.073 N 
ATOM     13  H42 UNL     1      43.216  34.958  44.376  1.00  0.00     0.277 HD
ATOM     14  H41 UNL     1      42.485  36.298  44.125  1.00  0.00     0.277 HD
BRANCH  12  15
HETATM   15  C8  UNL     1      43.199  35.467  42.371  1.00  0.00     0.260 C 
BRANCH  15  16
HETATM   16  C7  UNL     1      44.503  34.752  42.439  1.00  0.00     0.264 C 
BRANCH  16  17
HETATM   17  N3  UNL     1      44.893  33.999  41.295  1.00  0.00    -0.065 N 
HETATM   18  C14 UNL     1      45.889  32.971  41.685  1.00  0.00     0.237 C 
HETATM   19  C15 UNL     1      47.207  33.668  41.762  1.00  0.00     0.029 C 
HETATM   20  C16 UNL     1      47.100  34.601  40.567  1.00  0.00     0.029 C 
HETATM   21  C17 UNL     1      45.629  34.865  40.392  1.00  0.00     0.237 C 
BRANCH  17  22
HETATM   22  C6  UNL     1      43.840  33.258  40.682  1.00  0.00     0.239 C 
BRANCH  22  23
HETATM   23  C5  UNL     1      43.711  31.817  40.962  1.00  0.00     0.056 C 
BRANCH  23  24
HETATM   24  C4  UNL     1      42.441  31.475  41.650  1.00  0.00     0.239 C 
BRANCH  24  25
HETATM   25  N2  UNL     1      42.630  30.642  42.824  1.00  0.00    -0.062 N 
HETATM   26  C3  UNL     1      43.354  29.463  42.397  1.00  0.00     0.265 C 
HETATM   27  C2  UNL     1      43.518  28.442  43.498  1.00  0.00     0.265 C 
HETATM   28  N1  UNL     1      42.936  29.036  44.698  1.00  0.00    -0.066 N 
HETATM   29  C1  UNL     1      43.148  28.135  45.788  1.00  0.00     0.272 C 
HETATM   30  C19 UNL     1      41.523  29.196  44.437  1.00  0.00     0.265 C 
HETATM   31  C21 UNL     1      43.601  30.281  44.971  1.00  0.00     0.265 C 
HETATM   32  C18 UNL     1      41.365  30.310  43.443  1.00  0.00     0.265 C 
HETATM   33  C20 UNL     1      43.436  31.287  43.842  1.00  0.00     0.265 C 
ENDBRANCH  24  25
ENDBRANCH  23  24
ENDBRANCH  22  23
ENDBRANCH  17  22
ENDBRANCH  16  17
ENDBRANCH  15  16
ENDBRANCH  12  15
ENDBRANCH  11  12
ENDBRANCH  10  11
ENDBRANCH   9  10
ENDBRANCH   1   9
TORSDOF 11
ENDMDL
MODEL 4
REMARK VINA RESULT: -7.575383186      1.340      2.046
REMARK  11 active torsions:
REMARK  status: ('A' for Active; 'I' for Inactive)
REMARK    1  A    between atoms: N2_5  and  C4_6 
REMARK    2  A    between atoms: C4_6  and  C5_7 
REMARK    3  A    between atoms: C5_7  and  C6_8 
REMARK    4  A    between atoms: C6_8  and  N3_9 
REMARK    5  A    between atoms: N3_9  and  C7_10 
REMARK    6  A    between atoms: C7_10  and  C8_11 
REMARK    7  A    between atoms: C8_11  and  N4_12 
REMARK    8  A    between atoms: N4_12  and  C9_15 
REMARK    9  A    between atoms: C9_15  and  C10_16 
REMARK   10  A    between atoms: C10_16  and  C11_17 
REMARK   11  A    between atoms: C11_17  and  N5_18 
REMARK       I    between atoms: N5_18  and  C12_20 
REMARK       I    between atoms: C12_20  and  N6_22 
ROOT
HETATM    1  N5  UNL     1      42.539  34.006  46.750  1.00  0.00    -0.342 N 
ATOM      2  H5  UNL     1      42.594  33.258  47.441  1.00  0.00     0.164 HD
HETATM    3  C12 UNL     1      42.438  35.341  47.225  1.00  0.00     0.329 C 
HETATM    4  O1  UNL     1      42.367  36.331  46.437  1.00  0.00    -0.246 OA
HETATM    5  N6  UNL     1      42.413  35.627  48.619  1.00  0.00    -0.245 N 
ATOM      6  H6  UNL     1      42.468  34.854  49.283  1.00  0.00     0.183 HD
HETATM    7  C13 UNL     1      42.315  36.934  49.107  1.00  0.00     0.185 C 
HETATM    8  N7  UNL     1      42.252  38.008  49.504  1.00  0.00    -0.172 NA
ENDROOT
BRANCH   1   9
HETATM    9  C11 UNL     1      42.569  33.640  45.364  1.00  0.00     0.126 C 
BRANCH   9  10
HETATM   10  C10 UNL     1      41.237  33.699  44.691  1.00  0.00     0.047 C 
BRANCH  10  11
HETATM   11  C9  UNL     1      41.321  34.639  43.502  1.00  0.00     0.234 C 
BRANCH  11  12
HETATM   12  N4  UNL     1      42.664  35.185  43.405  1.00  0.00    -0.073 N 
ATOM     13  H42 UNL     1      43.356  34.562  43.820  1.00  0.00     0.277 HD
ATOM     14  H41 UNL     1      42.790  35.988  44.021  1.00  0.00     0.277 HD
BRANCH  12  15
HETATM   15  C8  UNL     1      42.992  35.511  42.018  1.00  0.00     0.260 C 
BRANCH  15  16
HETATM   16  C7  UNL     1      44.139  34.651  41.621  1.00  0.00     0.264 C 
BRANCH  16  17
HETATM   17  N3  UNL     1      43.834  33.386  41.040  1.00  0.00    -0.065 N 
HETATM   18  C14 UNL     1      44.876  33.023  40.049  1.00  0.00     0.237 C 
HETATM   19  C15 UNL     1      44.538  33.758  38.794  1.00  0.00     0.029 C 
HETATM   20  C16 UNL     1      43.023  33.630  38.794  1.00  0.00     0.029 C 
HETATM   21  C17 UNL     1      42.629  33.514  40.242  1.00  0.00     0.237 C 
BRANCH  17  22
HETATM   22  C6  UNL     1      43.825  32.296  41.960  1.00  0.00     0.239 C 
BRANCH  22  23
HETATM   23  C5  UNL     1      42.633  31.434  42.050  1.00  0.00     0.056 C 
BRANCH  23  24
HETATM   24  C4  UNL     1      42.668  30.521  43.220  1.00  0.00     0.239 C 
BRANCH  24  25
HETATM   25  N2  UNL     1      42.194  29.182  42.918  1.00  0.00    -0.062 N 
HETATM   26  C3  UNL     1      41.814  29.171  41.520  1.00  0.00     0.265 C 
HETATM   27  C2  UNL     1      41.184  27.867  41.093  1.00  0.00     0.265 C 
HETATM   28  N1  UNL     1      41.235  26.986  42.256  1.00  0.00    -0.066 N 
HETATM   29  C1  UNL     1      40.724  25.708  41.868  1.00  0.00     0.272 C 
HETATM   30  C19 UNL     1      40.392  27.585  43.267  1.00  0.00     0.265 C 
HETATM   31  C21 UNL     1      42.603  26.847  42.675  1.00  0.00     0.265 C 
HETATM   32  C18 UNL     1      41.096  28.806  43.783  1.00  0.00     0.265 C 
HETATM   33  C20 UNL     1      43.222  28.174  43.085  1.00  0.00     0.265 C 
ENDBRANCH  24  25
ENDBRANCH  23  24
ENDBRANCH  22  23
ENDBRANCH  17  22
ENDBRANCH  16  17
ENDBRANCH  15  16
ENDBRANCH  12  15
ENDBRANCH  11  12
ENDBRANCH  10  11
ENDBRANCH   9  10
ENDBRANCH   1   9
TORSDOF 11
ENDMDL
MODEL 5
REMARK VINA RESULT: -7.546167209      1.137      1.191
REMARK  11 active torsions:
REMARK  status: ('A' for Active; 'I' for Inactive)
REMARK    1  A    between atoms: N2_5  and  C4_6 
REMARK    2  A    between atoms: C4_6  and  C5_7 
REMARK    3  A    between atoms: C5_7  and  C6_8 
REMARK    4  A    between atoms: C6_8  and  N3_9 
REMARK    5  A    between atoms: N3_9  and  C7_10 
REMARK    6  A    between atoms: C7_10  and  C8_11 
REMARK    7  A    between atoms: C8_11  and  N4_12 
REMARK    8  A    between atoms: N4_12  and  C9_15 
REMARK    9  A    between atoms: C9_15  and  C10_16 
REMARK   10  A    between atoms: C10_16  and  C11_17 
REMARK   11  A    between atoms: C11_17  and  N5_18 
REMARK       I    between atoms: N5_18  and  C12_20 
REMARK       I    between atoms: C12_20  and  N6_22 
ROOT
HETATM    1  N5  UNL     1      42.543  34.445  47.088  1.00  0.00    -0.342 N 
ATOM      2  H5  UNL     1      43.225  34.463  47.847  1.00  0.00     0.164 HD
HETATM    3  C12 UNL     1      41.214  34.852  47.384  1.00  0.00     0.329 C 
HETATM    4  O1  UNL     1      40.304  34.862  46.502  1.00  0.00    -0.246 OA
HETATM    5  N6  UNL     1      40.845  35.268  48.693  1.00  0.00    -0.245 N 
ATOM      6  H6  UNL     1      41.552  35.273  49.429  1.00  0.00     0.183 HD
HETATM    7  C13 UNL     1      39.542  35.673  49.004  1.00  0.00     0.185 C 
HETATM    8  N7  UNL     1      38.477  36.021  49.251  1.00  0.00    -0.172 NA
ENDROOT
BRANCH   1   9
HETATM    9  C11 UNL     1      42.989  34.012  45.797  1.00  0.00     0.126 C 
BRANCH   9  10
HETATM   10  C10 UNL     1      43.048  32.529  45.640  1.00  0.00     0.047 C 
BRANCH  10  11
HETATM   11  C9  UNL     1      44.080  32.180  44.583  1.00  0.00     0.234 C 
BRANCH  11  12
HETATM   12  N4  UNL     1      45.010  33.285  44.424  1.00  0.00    -0.073 N 
ATOM     13  H42 UNL     1      45.812  33.196  45.047  1.00  0.00     0.277 HD
ATOM     14  H41 UNL     1      44.626  34.156  44.790  1.00  0.00     0.277 HD
BRANCH  12  15
HETATM   15  C8  UNL     1      45.421  33.420  43.028  1.00  0.00     0.260 C 
BRANCH  15  16
HETATM   16  C7  UNL     1      44.503  34.403  42.389  1.00  0.00     0.264 C 
BRANCH  16  17
HETATM   17  N3  UNL     1      43.590  33.903  41.416  1.00  0.00    -0.065 N 
HETATM   18  C14 UNL     1      43.570  34.802  40.236  1.00  0.00     0.237 C 
HETATM   19  C15 UNL     1      42.675  35.943  40.591  1.00  0.00     0.029 C 
HETATM   20  C16 UNL     1      41.580  35.213  41.352  1.00  0.00     0.029 C 
HETATM   21  C17 UNL     1      42.242  33.998  41.944  1.00  0.00     0.237 C 
BRANCH  17  22
HETATM   22  C6  UNL     1      43.931  32.625  40.881  1.00  0.00     0.239 C 
BRANCH  22  23
HETATM   23  C5  UNL     1      42.929  31.545  40.892  1.00  0.00     0.056 C 
BRANCH  23  24
HETATM   24  C4  UNL     1      43.443  30.286  41.487  1.00  0.00     0.239 C 
BRANCH  24  25
HETATM   25  N2  UNL     1      42.426  29.525  42.191  1.00  0.00    -0.062 N 
HETATM   26  C3  UNL     1      41.263  30.379  42.309  1.00  0.00     0.265 C 
HETATM   27  C2  UNL     1      40.159  29.759  43.132  1.00  0.00     0.265 C 
HETATM   28  N1  UNL     1      40.617  28.419  43.488  1.00  0.00    -0.066 N 
HETATM   29  C1  UNL     1      39.562  27.763  44.197  1.00  0.00     0.272 C 
HETATM   30  C19 UNL     1      41.773  28.589  44.339  1.00  0.00     0.265 C 
HETATM   31  C21 UNL     1      40.907  27.691  42.283  1.00  0.00     0.265 C 
HETATM   32  C18 UNL     1      42.904  29.075  43.480  1.00  0.00     0.265 C 
HETATM   33  C20 UNL     1      42.010  28.342  41.463  1.00  0.00     0.265 C 
ENDBRANCH  24  25
ENDBRANCH  23  24
ENDBRANCH  22  23
ENDBRANCH  17  22
ENDBRANCH  16  17
ENDBRANCH  15  16
ENDBRANCH  12  15
ENDBRANCH  11  12
ENDBRANCH  10  11
ENDBRANCH   9  10
ENDBRANCH   1   9
TORSDOF 11
ENDMDL
