MODEL 1
REMARK VINA RESULT: -7.695515719      0.000      0.000
REMARK  11 active torsions:
REMARK  status: ('A' for Active; 'I' for Inactive)
REMARK    1  A    between atoms: C2_2  and  C3_3 
REMARK    2  A    between atoms: N1_5  and  C5_7 
REMARK    3  A    between atoms: C5_7  and  C6_8 
REMARK    4  A    between atoms: C5_7  and  C8_15 
REMARK    5  A    between atoms: C6_8  and  N2_9 
REMARK    6  A    between atoms: N2_9  and  C7_11 
REMARK    7  A    between atoms: C8_15  and  N4_16 
REMARK    8  A    between atoms: C12_22  and  N6_23 
REMARK       I    between atoms: N6_23  and  C13_25 
REMARK    9  A    between atoms: C16_29  and  C17_30 
REMARK   10  A    between atoms: C17_30  and  C18_31 
REMARK   11  A    between atoms: C18_31  and  C19_32 
REMARK       I    between atoms: C19_32  and  N7_34 
ROOT
HETATM    1  C3  UNL     1      42.633  33.558  42.894  1.00  0.00     0.079 C 
HETATM    2  C4  UNL     1      42.339  32.044  42.826  1.00  0.00     0.083 C 
HETATM    3  N1  UNL     1      42.475  31.519  41.734  1.00  0.00    -0.371 N 
ATOM      4  H1  UNL     1      42.768  32.236  41.071  1.00  0.00     0.161 HD
HETATM    5  N5  UNL     1      41.944  31.446  44.039  1.00  0.00    -0.358 N 
ATOM      6  H5  UNL     1      41.162  30.792  44.040  1.00  0.00     0.162 HD
HETATM    7  C12 UNL     1      42.632  31.741  45.302  1.00  0.00     0.185 C 
HETATM    8  C15 UNL     1      43.542  32.926  45.125  1.00  0.00     0.052 C 
HETATM    9  C16 UNL     1      42.867  34.005  44.253  1.00  0.00     0.004 C 
ENDROOT
BRANCH   1  10
HETATM   10  C2  UNL     1      41.581  34.164  42.107  1.00  0.00    -0.024 C 
HETATM   11  C1  UNL     1      41.884  35.183  41.293  1.00  0.00     0.008 C 
ENDBRANCH   1  10
BRANCH   3  12
HETATM   12  C5  UNL     1      42.381  30.313  41.050  1.00  0.00     0.126 C 
BRANCH  12  13
HETATM   13  C6  UNL     1      42.967  30.601  39.650  1.00  0.00     0.147 C 
BRANCH  13  14
HETATM   14  N2  UNL     1      44.268  29.911  39.639  1.00  0.00    -0.384 N 
ATOM     15  H2  UNL     1      44.501  29.224  40.356  1.00  0.00     0.160 HD
BRANCH  14  16
HETATM   16  C7  UNL     1      45.196  30.230  38.597  1.00  0.00     0.168 C 
HETATM   17  N3  UNL     1      45.172  29.527  37.512  1.00  0.00    -0.396 N 
ATOM     18  H32 UNL     1      44.500  28.765  37.417  1.00  0.00     0.156 HD
ATOM     19  H31 UNL     1      45.833  29.755  36.769  1.00  0.00     0.156 HD
ENDBRANCH  14  16
ENDBRANCH  13  14
ENDBRANCH  12  13
BRANCH  12  20
HETATM   20  C8  UNL     1      43.112  29.221  41.738  1.00  0.00     0.262 C 
BRANCH  20  21
HETATM   21  N4  UNL     1      42.325  28.062  42.094  1.00  0.00    -0.077 N 
HETATM   22  C9  UNL     1      41.230  28.325  42.969  1.00  0.00     0.271 C 
HETATM   23  C10 UNL     1      43.242  27.188  42.851  1.00  0.00     0.271 C 
HETATM   24  C11 UNL     1      41.992  27.342  40.895  1.00  0.00     0.271 C 
ENDBRANCH  20  21
ENDBRANCH  12  20
ENDBRANCH   3  12
BRANCH   9  25
HETATM   25  C17 UNL     1      41.878  34.766  45.049  1.00  0.00     0.015 C 
BRANCH  25  26
HETATM   26  C18 UNL     1      42.298  35.169  46.402  1.00  0.00     0.103 C 
BRANCH  26  27
HETATM   27  C19 UNL     1      41.099  35.258  47.335  1.00  0.00     0.219 C 
HETATM   28  O2  UNL     1      39.971  34.851  46.998  1.00  0.00    -0.273 OA
HETATM   29  N7  UNL     1      41.313  35.822  48.600  1.00  0.00    -0.361 N 
HETATM   30  C20 UNL     1      40.225  35.943  49.547  1.00  0.00     0.152 C 
HETATM   31  C21 UNL     1      42.617  36.295  49.000  1.00  0.00     0.152 C 
ENDBRANCH  26  27
ENDBRANCH  25  26
ENDBRANCH   9  25
BRANCH   7  32
HETATM   32  N6  UNL     1      43.478  30.580  45.576  1.00  0.00    -0.340 N 
HETATM   33  C13 UNL     1      42.981  29.405  46.167  1.00  0.00     0.215 C 
HETATM   34  C14 UNL     1      43.864  28.258  46.427  1.00  0.00     0.117 C 
HETATM   35  O1  UNL     1      41.770  29.340  46.472  1.00  0.00    -0.274 OA
ATOM     36  H6  UNL     1      44.467  30.624  45.330  1.00  0.00     0.164 HD
ENDBRANCH   7  32
TORSDOF 11
ENDMDL
MODEL 2
REMARK VINA RESULT: -7.677097406      1.101      1.131
REMARK  11 active torsions:
REMARK  status: ('A' for Active; 'I' for Inactive)
REMARK    1  A    between atoms: C2_2  and  C3_3 
REMARK    2  A    between atoms: N1_5  and  C5_7 
REMARK    3  A    between atoms: C5_7  and  C6_8 
REMARK    4  A    between atoms: C5_7  and  C8_15 
REMARK    5  A    between atoms: C6_8  and  N2_9 
REMARK    6  A    between atoms: N2_9  and  C7_11 
REMARK    7  A    between atoms: C8_15  and  N4_16 
REMARK    8  A    between atoms: C12_22  and  N6_23 
REMARK       I    between atoms: N6_23  and  C13_25 
REMARK    9  A    between atoms: C16_29  and  C17_30 
REMARK   10  A    between atoms: C17_30  and  C18_31 
REMARK   11  A    between atoms: C18_31  and  C19_32 
REMARK       I    between atoms: C19_32  and  N7_34 
ROOT
HETATM    1  C3  UNL     1      42.832  34.014  42.928  1.00  0.00     0.079 C 
HETATM    2  C4  UNL     1      42.488  32.519  42.754  1.00  0.00     0.083 C 
HETATM    3  N1  UNL     1      42.636  32.060  41.633  1.00  0.00    -0.371 N 
ATOM      4  H1  UNL     1      42.973  32.808  41.027  1.00  0.00     0.161 HD
HETATM    5  N5  UNL     1      42.039  31.859  43.915  1.00  0.00    -0.358 N 
ATOM      6  H5  UNL     1      41.235  31.235  43.853  1.00  0.00     0.162 HD
HETATM    7  C12 UNL     1      42.700  32.047  45.212  1.00  0.00     0.185 C 
HETATM    8  C15 UNL     1      43.656  33.207  45.136  1.00  0.00     0.052 C 
HETATM    9  C16 UNL     1      43.043  34.364  44.319  1.00  0.00     0.004 C 
ENDROOT
BRANCH   1  10
HETATM   10  C2  UNL     1      41.824  34.707  42.155  1.00  0.00    -0.024 C 
HETATM   11  C1  UNL     1      42.212  35.525  41.169  1.00  0.00     0.008 C 
ENDBRANCH   1  10
BRANCH   3  12
HETATM   12  C5  UNL     1      42.520  30.905  40.871  1.00  0.00     0.126 C 
BRANCH  12  13
HETATM   13  C6  UNL     1      43.473  31.120  39.674  1.00  0.00     0.147 C 
BRANCH  13  14
HETATM   14  N2  UNL     1      43.140  32.461  39.165  1.00  0.00    -0.384 N 
ATOM     15  H2  UNL     1      42.184  32.812  39.204  1.00  0.00     0.160 HD
BRANCH  14  16
HETATM   16  C7  UNL     1      44.194  33.259  38.615  1.00  0.00     0.168 C 
HETATM   17  N3  UNL     1      45.320  32.687  38.338  1.00  0.00    -0.396 N 
ATOM     18  H32 UNL     1      45.439  31.689  38.513  1.00  0.00     0.156 HD
ATOM     19  H31 UNL     1      46.072  33.255  37.945  1.00  0.00     0.156 HD
ENDBRANCH  14  16
ENDBRANCH  13  14
ENDBRANCH  12  13
BRANCH  12  20
HETATM   20  C8  UNL     1      42.871  29.687  41.641  1.00  0.00     0.262 C 
BRANCH  20  21
HETATM   21  N4  UNL     1      41.827  28.697  41.765  1.00  0.00    -0.077 N 
HETATM   22  C9  UNL     1      40.506  29.225  41.870  1.00  0.00     0.271 C 
HETATM   23  C10 UNL     1      42.089  28.014  43.047  1.00  0.00     0.271 C 
HETATM   24  C11 UNL     1      42.008  27.701  40.744  1.00  0.00     0.271 C 
ENDBRANCH  20  21
ENDBRANCH  12  20
ENDBRANCH   3  12
BRANCH   9  25
HETATM   25  C17 UNL     1      42.058  35.107  45.137  1.00  0.00     0.015 C 
BRANCH  25  26
HETATM   26  C18 UNL     1      42.395  35.290  46.559  1.00  0.00     0.103 C 
BRANCH  26  27
HETATM   27  C19 UNL     1      41.139  35.266  47.418  1.00  0.00     0.219 C 
HETATM   28  O2  UNL     1      40.048  34.856  46.978  1.00  0.00    -0.273 OA
HETATM   29  N7  UNL     1      41.256  35.727  48.737  1.00  0.00    -0.361 N 
HETATM   30  C20 UNL     1      40.109  35.737  49.619  1.00  0.00     0.152 C 
HETATM   31  C21 UNL     1      42.516  36.203  49.256  1.00  0.00     0.152 C 
ENDBRANCH  26  27
ENDBRANCH  25  26
ENDBRANCH   9  25
BRANCH   7  32
HETATM   32  N6  UNL     1      43.497  30.841  45.432  1.00  0.00    -0.340 N 
HETATM   33  C13 UNL     1      42.993  29.712  46.102  1.00  0.00     0.215 C 
HETATM   34  C14 UNL     1      43.825  28.518  46.304  1.00  0.00     0.117 C 
HETATM   35  O1  UNL     1      41.817  29.731  46.530  1.00  0.00    -0.274 OA
ATOM     36  H6  UNL     1      44.456  30.816  45.086  1.00  0.00     0.164 HD
ENDBRANCH   7  32
TORSDOF 11
ENDMDL
MODEL 3
REMARK VINA RESULT: -7.663509792      1.262      2.806
REMARK  11 active torsions:
REMARK  status: ('A' for Active; 'I' for Inactive)
REMARK    1  A    between atoms: C2_2  and  C3_3 
REMARK    2  A    between atoms: N1_5  and  C5_7 
REMARK    3  A    between atoms: C5_7  and  C6_8 
REMARK    4  A    between atoms: C5_7  and  C8_15 
REMARK    5  A    between atoms: C6_8  and  N2_9 
REMARK    6  A    between atoms: N2_9  and  C7_11 
REMARK    7  A    between atoms: C8_15  and  N4_16 
REMARK    8  A    between atoms: C12_22  and  N6_23 
REMARK       I    between atoms: N6_23  and  C13_25 
REMARK    9  A    between atoms: C16_29  and  C17_30 
REMARK   10  A    between atoms: C17_30  and  C18_31 
REMARK   11  A    between atoms: C18_31  and  C19_32 
REMARK       I    between atoms: C19_32  and  N7_34 
ROOT
HETATM    1  C3  UNL     1      43.620  34.028  43.483  1.00  0.00     0.079 C 
HETATM    2  C4  UNL     1      43.438  32.612  42.893  1.00  0.00     0.083 C 
HETATM    3  N1  UNL     1      43.994  32.399  41.828  1.00  0.00    -0.371 N 
ATOM      4  H1  UNL     1      44.481  33.251  41.548  1.00  0.00     0.161 HD
HETATM    5  N5  UNL     1      42.648  31.732  43.657  1.00  0.00    -0.358 N 
ATOM      6  H5  UNL     1      41.951  31.154  43.188  1.00  0.00     0.162 HD
HETATM    7  C12 UNL     1      42.803  31.625  45.113  1.00  0.00     0.185 C 
HETATM    8  C15 UNL     1      43.661  32.752  45.621  1.00  0.00     0.052 C 
HETATM    9  C16 UNL     1      43.312  34.070  44.899  1.00  0.00     0.004 C 
ENDROOT
BRANCH   1  10
HETATM   10  C2  UNL     1      42.910  34.894  42.565  1.00  0.00    -0.024 C 
HETATM   11  C1  UNL     1      43.561  35.922  42.009  1.00  0.00     0.008 C 
ENDBRANCH   1  10
BRANCH   3  12
HETATM   12  C5  UNL     1      44.214  31.436  40.852  1.00  0.00     0.126 C 
BRANCH  12  13
HETATM   13  C6  UNL     1      42.824  30.819  40.579  1.00  0.00     0.147 C 
BRANCH  13  14
HETATM   14  N2  UNL     1      43.042  29.364  40.631  1.00  0.00    -0.384 N 
ATOM     15  H2  UNL     1      42.814  28.772  39.834  1.00  0.00     0.160 HD
BRANCH  14  16
HETATM   16  C7  UNL     1      43.583  28.802  41.832  1.00  0.00     0.168 C 
HETATM   17  N3  UNL     1      44.455  27.852  41.731  1.00  0.00    -0.396 N 
ATOM     18  H32 UNL     1      44.739  27.521  40.809  1.00  0.00     0.156 HD
ATOM     19  H31 UNL     1      44.840  27.452  42.587  1.00  0.00     0.156 HD
ENDBRANCH  14  16
ENDBRANCH  13  14
ENDBRANCH  12  13
BRANCH  12  20
HETATM   20  C8  UNL     1      44.811  32.011  39.622  1.00  0.00     0.262 C 
BRANCH  20  21
HETATM   21  N4  UNL     1      45.919  31.276  39.056  1.00  0.00    -0.077 N 
HETATM   22  C9  UNL     1      45.556  30.286  38.096  1.00  0.00     0.271 C 
HETATM   23  C10 UNL     1      46.514  30.538  40.188  1.00  0.00     0.271 C 
HETATM   24  C11 UNL     1      46.922  32.210  38.623  1.00  0.00     0.271 C 
ENDBRANCH  20  21
ENDBRANCH  12  20
ENDBRANCH   3  12
BRANCH   9  25
HETATM   25  C17 UNL     1      42.065  34.645  45.451  1.00  0.00     0.015 C 
BRANCH  25  26
HETATM   26  C18 UNL     1      42.211  35.496  46.645  1.00  0.00     0.103 C 
BRANCH  26  27
HETATM   27  C19 UNL     1      41.004  35.351  47.561  1.00  0.00     0.219 C 
HETATM   28  O2  UNL     1      39.908  34.930  47.145  1.00  0.00    -0.273 OA
HETATM   29  N7  UNL     1      41.173  35.713  48.904  1.00  0.00    -0.361 N 
HETATM   30  C20 UNL     1      40.075  35.606  49.841  1.00  0.00     0.152 C 
HETATM   31  C21 UNL     1      42.439  36.201  49.396  1.00  0.00     0.152 C 
ENDBRANCH  26  27
ENDBRANCH  25  26
ENDBRANCH   9  25
BRANCH   7  32
HETATM   32  N6  UNL     1      43.536  30.381  45.346  1.00  0.00    -0.340 N 
HETATM   33  C13 UNL     1      43.024  29.337  46.136  1.00  0.00     0.215 C 
HETATM   34  C14 UNL     1      43.791  28.101  46.346  1.00  0.00     0.117 C 
HETATM   35  O1  UNL     1      41.897  29.468  46.664  1.00  0.00    -0.274 OA
ATOM     36  H6  UNL     1      44.455  30.266  44.918  1.00  0.00     0.164 HD
ENDBRANCH   7  32
TORSDOF 11
ENDMDL
MODEL 4
REMARK VINA RESULT: -7.465557411      2.047      2.755
REMARK  11 active torsions:
REMARK  status: ('A' for Active; 'I' for Inactive)
REMARK    1  A    between atoms: C2_2  and  C3_3 
REMARK    2  A    between atoms: N1_5  and  C5_7 
REMARK    3  A    between atoms: C5_7  and  C6_8 
REMARK    4  A    between atoms: C5_7  and  C8_15 
REMARK    5  A    between atoms: C6_8  and  N2_9 
REMARK    6  A    between atoms: N2_9  and  C7_11 
REMARK    7  A    between atoms: C8_15  and  N4_16 
REMARK    8  A    between atoms: C12_22  and  N6_23 
REMARK       I    between atoms: N6_23  and  C13_25 
REMARK    9  A    between atoms: C16_29  and  C17_30 
REMARK   10  A    between atoms: C17_30  and  C18_31 
REMARK   11  A    between atoms: C18_31  and  C19_32 
REMARK       I    between atoms: C19_32  and  N7_34 
ROOT
HETATM    1  C3  UNL     1      43.601  34.748  43.198  1.00  0.00     0.079 C 
HETATM    2  C4  UNL     1      43.331  33.476  42.365  1.00  0.00     0.083 C 
HETATM    3  N1  UNL     1      43.852  33.436  41.262  1.00  0.00    -0.371 N 
ATOM      4  H1  UNL     1      44.379  34.299  41.129  1.00  0.00     0.161 HD
HETATM    5  N5  UNL     1      42.509  32.510  42.978  1.00  0.00    -0.358 N 
ATOM      6  H5  UNL     1      41.773  32.065  42.432  1.00  0.00     0.162 HD
HETATM    7  C12 UNL     1      42.689  32.128  44.384  1.00  0.00     0.185 C 
HETATM    8  C15 UNL     1      43.617  33.098  45.064  1.00  0.00     0.052 C 
HETATM    9  C16 UNL     1      43.325  34.543  44.607  1.00  0.00     0.004 C 
ENDROOT
BRANCH   1  10
HETATM   10  C2  UNL     1      42.921  35.802  42.477  1.00  0.00    -0.024 C 
HETATM   11  C1  UNL     1      43.612  36.537  41.598  1.00  0.00     0.008 C 
ENDBRANCH   1  10
BRANCH   3  12
HETATM   12  C5  UNL     1      43.999  32.660  40.120  1.00  0.00     0.126 C 
BRANCH  12  13
HETATM   13  C6  UNL     1      44.514  33.635  39.038  1.00  0.00     0.147 C 
BRANCH  13  14
HETATM   14  N2  UNL     1      45.981  33.530  39.107  1.00  0.00    -0.384 N 
ATOM     15  H2  UNL     1      46.449  32.638  38.953  1.00  0.00     0.160 HD
BRANCH  14  16
HETATM   16  C7  UNL     1      46.733  34.714  39.397  1.00  0.00     0.168 C 
HETATM   17  N3  UNL     1      46.911  35.044  40.634  1.00  0.00    -0.396 N 
ATOM     18  H32 UNL     1      46.518  34.464  41.376  1.00  0.00     0.156 HD
ATOM     19  H31 UNL     1      47.447  35.888  40.841  1.00  0.00     0.156 HD
ENDBRANCH  14  16
ENDBRANCH  13  14
ENDBRANCH  12  13
BRANCH  12  20
HETATM   20  C8  UNL     1      44.934  31.527  40.329  1.00  0.00     0.262 C 
BRANCH  20  21
HETATM   21  N4  UNL     1      44.495  30.246  39.825  1.00  0.00    -0.077 N 
HETATM   22  C9  UNL     1      44.972  29.917  38.522  1.00  0.00     0.271 C 
HETATM   23  C10 UNL     1      43.028  30.360  39.698  1.00  0.00     0.271 C 
HETATM   24  C11 UNL     1      44.727  29.247  40.832  1.00  0.00     0.271 C 
ENDBRANCH  20  21
ENDBRANCH  12  20
ENDBRANCH   3  12
BRANCH   9  25
HETATM   25  C17 UNL     1      42.123  35.068  45.293  1.00  0.00     0.015 C 
BRANCH  25  26
HETATM   26  C18 UNL     1      42.314  35.541  46.675  1.00  0.00     0.103 C 
BRANCH  26  27
HETATM   27  C19 UNL     1      41.054  35.319  47.500  1.00  0.00     0.219 C 
HETATM   28  O2  UNL     1      40.010  34.862  46.997  1.00  0.00    -0.273 OA
HETATM   29  N7  UNL     1      41.113  35.651  48.860  1.00  0.00    -0.361 N 
HETATM   30  C20 UNL     1      39.959  35.470  49.714  1.00  0.00     0.152 C 
HETATM   31  C21 UNL     1      42.319  36.180  49.452  1.00  0.00     0.152 C 
ENDBRANCH  26  27
ENDBRANCH  25  26
ENDBRANCH   9  25
BRANCH   7  32
HETATM   32  N6  UNL     1      43.358  30.828  44.362  1.00  0.00    -0.340 N 
HETATM   33  C13 UNL     1      43.216  29.887  45.398  1.00  0.00     0.215 C 
HETATM   34  C14 UNL     1      43.905  28.590  45.339  1.00  0.00     0.117 C 
HETATM   35  O1  UNL     1      42.491  30.163  46.379  1.00  0.00    -0.274 OA
ATOM     36  H6  UNL     1      43.950  30.594  43.566  1.00  0.00     0.164 HD
ENDBRANCH   7  32
TORSDOF 11
ENDMDL
MODEL 5
REMARK VINA RESULT: -7.345875330      2.449      4.300
REMARK  11 active torsions:
REMARK  status: ('A' for Active; 'I' for Inactive)
REMARK    1  A    between atoms: C2_2  and  C3_3 
REMARK    2  A    between atoms: N1_5  and  C5_7 
REMARK    3  A    between atoms: C5_7  and  C6_8 
REMARK    4  A    between atoms: C5_7  and  C8_15 
REMARK    5  A    between atoms: C6_8  and  N2_9 
REMARK    6  A    between atoms: N2_9  and  C7_11 
REMARK    7  A    between atoms: C8_15  and  N4_16 
REMARK    8  A    between atoms: C12_22  and  N6_23 
REMARK       I    between atoms: N6_23  and  C13_25 
REMARK    9  A    between atoms: C16_29  and  C17_30 
REMARK   10  A    between atoms: C17_30  and  C18_31 
REMARK   11  A    between atoms: C18_31  and  C19_32 
REMARK       I    between atoms: C19_32  and  N7_34 
ROOT
HETATM    1  C3  UNL     1      42.263  32.041  44.116  1.00  0.00     0.079 C 
HETATM    2  C4  UNL     1      43.497  31.708  43.250  1.00  0.00     0.083 C 
HETATM    3  N1  UNL     1      43.395  30.736  42.521  1.00  0.00    -0.371 N 
ATOM      4  H1  UNL     1      42.466  30.336  42.653  1.00  0.00     0.161 HD
HETATM    5  N5  UNL     1      44.601  32.569  43.407  1.00  0.00    -0.358 N 
ATOM      6  H5  UNL     1      45.536  32.170  43.484  1.00  0.00     0.162 HD
HETATM    7  C12 UNL     1      44.437  34.027  43.463  1.00  0.00     0.185 C 
HETATM    8  C15 UNL     1      42.982  34.373  43.623  1.00  0.00     0.052 C 
HETATM    9  C16 UNL     1      42.297  33.404  44.608  1.00  0.00     0.004 C 
ENDROOT
BRANCH   1  10
HETATM   10  C2  UNL     1      42.172  30.939  45.051  1.00  0.00    -0.024 C 
HETATM   11  C1  UNL     1      43.293  30.466  45.607  1.00  0.00     0.008 C 
ENDBRANCH   1  10
BRANCH   3  12
HETATM   12  C5  UNL     1      44.065  29.966  41.578  1.00  0.00     0.126 C 
BRANCH  12  13
HETATM   13  C6  UNL     1      43.624  28.513  41.862  1.00  0.00     0.147 C 
BRANCH  13  14
HETATM   14  N2  UNL     1      44.881  27.748  41.937  1.00  0.00    -0.384 N 
ATOM     15  H2  UNL     1      45.769  28.175  41.676  1.00  0.00     0.160 HD
BRANCH  14  16
HETATM   16  C7  UNL     1      44.822  26.389  42.384  1.00  0.00     0.168 C 
HETATM   17  N3  UNL     1      45.924  25.717  42.461  1.00  0.00    -0.396 N 
ATOM     18  H32 UNL     1      46.806  26.159  42.204  1.00  0.00     0.156 HD
ATOM     19  H31 UNL     1      45.882  24.748  42.780  1.00  0.00     0.156 HD
ENDBRANCH  14  16
ENDBRANCH  13  14
ENDBRANCH  12  13
BRANCH  12  20
HETATM   20  C8  UNL     1      43.744  30.376  40.189  1.00  0.00     0.262 C 
BRANCH  20  21
HETATM   21  N4  UNL     1      44.854  30.863  39.403  1.00  0.00    -0.077 N 
HETATM   22  C9  UNL     1      46.078  31.013  40.119  1.00  0.00     0.271 C 
HETATM   23  C10 UNL     1      44.465  32.223  38.982  1.00  0.00     0.271 C 
HETATM   24  C11 UNL     1      44.942  30.087  38.196  1.00  0.00     0.271 C 
ENDBRANCH  20  21
ENDBRANCH  12  20
ENDBRANCH   3  12
BRANCH   9  25
HETATM   25  C17 UNL     1      42.632  33.765  46.004  1.00  0.00     0.015 C 
BRANCH  25  26
HETATM   26  C18 UNL     1      42.340  35.151  46.410  1.00  0.00     0.103 C 
BRANCH  26  27
HETATM   27  C19 UNL     1      41.096  35.205  47.285  1.00  0.00     0.219 C 
HETATM   28  O2  UNL     1      39.984  34.824  46.874  1.00  0.00    -0.273 OA
HETATM   29  N7  UNL     1      41.250  35.707  48.585  1.00  0.00    -0.361 N 
HETATM   30  C20 UNL     1      40.117  35.792  49.481  1.00  0.00     0.152 C 
HETATM   31  C21 UNL     1      42.534  36.150  49.071  1.00  0.00     0.152 C 
ENDBRANCH  26  27
ENDBRANCH  25  26
ENDBRANCH   9  25
BRANCH   7  32
HETATM   32  N6  UNL     1      44.863  34.526  42.156  1.00  0.00    -0.340 N 
HETATM   33  C13 UNL     1      46.154  34.306  41.645  1.00  0.00     0.215 C 
HETATM   34  C14 UNL     1      46.544  34.825  40.326  1.00  0.00     0.117 C 
HETATM   35  O1  UNL     1      46.978  33.658  42.328  1.00  0.00    -0.274 OA
ATOM     36  H6  UNL     1      44.197  35.055  41.592  1.00  0.00     0.164 HD
ENDBRANCH   7  32
TORSDOF 11
ENDMDL
