MODEL 1
REMARK VINA RESULT: -7.552094480      0.000      0.000
REMARK  13 active torsions:
REMARK  status: ('A' for Active; 'I' for Inactive)
REMARK    1  A    between atoms: C2_2  and  C3_3 
REMARK    2  A    between atoms: C5_5  and  N1_6 
REMARK    3  A    between atoms: N1_6  and  C6_8 
REMARK    4  A    between atoms: C6_8  and  C7_9 
REMARK    5  A    between atoms: C7_9  and  N2_10 
REMARK       I    between atoms: N2_10  and  C8_12 
REMARK       I    between atoms: C8_12  and  N3_14 
REMARK    6  A    between atoms: N3_14  and  C9_16 
REMARK    7  A    between atoms: C9_16  and  C10_17 
REMARK    8  A    between atoms: C10_17  and  C11_18 
REMARK    9  A    between atoms: C11_18  and  N4_19 
REMARK   10  A    between atoms: C15_25  and  N6_26 
REMARK   11  A    between atoms: N6_26  and  C16_28 
REMARK   12  A    between atoms: C16_28  and  C17_29 
REMARK   13  A    between atoms: C17_29  and  N7_30 
ROOT
HETATM    1  C3  UNL     1      42.646  34.917  41.813  1.00  0.00     0.029 A 
HETATM    2  C4  UNL     1      42.836  34.145  42.934  1.00  0.00     0.074 A 
HETATM    3  C5  UNL     1      44.105  33.872  43.342  1.00  0.00     0.118 A 
HETATM    4  N5  UNL     1      45.165  34.364  42.643  1.00  0.00    -0.177 N 
ATOM      5  H5  UNL     1      46.115  34.159  42.953  1.00  0.00     0.185 HD
HETATM    6  C15 UNL     1      44.970  35.119  41.547  1.00  0.00     0.679 A 
HETATM    7  N8  UNL     1      43.714  35.378  41.158  1.00  0.00    -0.196 N 
ATOM      8  H8  UNL     1      43.568  35.951  40.327  1.00  0.00     0.184 HD
ENDROOT
BRANCH   3   9
HETATM    9  N1  UNL     1      44.338  33.160  44.367  1.00  0.00    -0.374 N 
ATOM     10  H1  UNL     1      44.997  33.525  45.056  1.00  0.00     0.161 HD
BRANCH   9  11
HETATM   11  C6  UNL     1      43.742  31.877  44.628  1.00  0.00     0.141 C 
BRANCH  11  12
HETATM   12  C7  UNL     1      42.696  32.029  45.708  1.00  0.00     0.144 C 
BRANCH  12  13
HETATM   13  N2  UNL     1      42.993  33.015  46.683  1.00  0.00    -0.342 N 
HETATM   14  C8  UNL     1      42.173  34.150  46.859  1.00  0.00     0.316 C 
HETATM   15  O1  UNL     1      41.164  34.301  46.139  1.00  0.00    -0.247 OA
HETATM   16  N3  UNL     1      42.476  35.119  47.835  1.00  0.00    -0.343 N 
ATOM     17  H3  UNL     1      43.302  34.959  48.410  1.00  0.00     0.164 HD
ATOM     18  H2  UNL     1      43.819  32.901  47.271  1.00  0.00     0.164 HD
BRANCH  16  19
HETATM   19  C9  UNL     1      41.717  36.316  48.089  1.00  0.00     0.126 C 
BRANCH  19  20
HETATM   20  C10 UNL     1      42.139  37.059  49.313  1.00  0.00     0.048 C 
BRANCH  20  21
HETATM   21  C11 UNL     1      41.669  38.459  49.409  1.00  0.00     0.237 C 
BRANCH  21  22
HETATM   22  N4  UNL     1      41.880  39.154  50.629  1.00  0.00    -0.079 N 
HETATM   23  C12 UNL     1      42.993  38.648  51.407  1.00  0.00     0.271 C 
HETATM   24  C13 UNL     1      40.694  38.854  51.460  1.00  0.00     0.271 C 
HETATM   25  C14 UNL     1      41.949  40.587  50.520  1.00  0.00     0.271 C 
ENDBRANCH  21  22
ENDBRANCH  20  21
ENDBRANCH  19  20
ENDBRANCH  16  19
ENDBRANCH  12  13
ENDBRANCH  11  12
ENDBRANCH   9  11
ENDBRANCH   3   9
BRANCH   1  26
HETATM   26  C2  UNL     1      41.290  35.236  41.330  1.00  0.00     0.053 C 
HETATM   27  C1  UNL     1      40.314  34.873  42.438  1.00  0.00     0.011 C 
ENDBRANCH   1  26
BRANCH   6  28
HETATM   28  N6  UNL     1      45.991  35.569  40.909  1.00  0.00    -0.224 N 
ATOM     29  H6  UNL     1      46.092  36.578  40.798  1.00  0.00     0.177 HD
BRANCH  28  30
HETATM   30  C16 UNL     1      47.005  34.704  40.339  1.00  0.00     0.168 C 
BRANCH  30  31
HETATM   31  C17 UNL     1      46.564  34.046  39.077  1.00  0.00     0.291 C 
BRANCH  31  32
HETATM   32  N7  UNL     1      46.223  32.650  39.253  1.00  0.00     0.081 N 
HETATM   33  C18 UNL     1      44.854  32.361  38.882  1.00  0.00     0.309 C 
HETATM   34  C19 UNL     1      47.163  31.774  38.587  1.00  0.00     0.309 C 
ENDBRANCH  31  32
ENDBRANCH  30  31
ENDBRANCH  28  30
ENDBRANCH   6  28
TORSDOF 13
ENDMDL
MODEL 2
REMARK VINA RESULT: -7.383752468      1.295      1.745
REMARK  13 active torsions:
REMARK  status: ('A' for Active; 'I' for Inactive)
REMARK    1  A    between atoms: C2_2  and  C3_3 
REMARK    2  A    between atoms: C5_5  and  N1_6 
REMARK    3  A    between atoms: N1_6  and  C6_8 
REMARK    4  A    between atoms: C6_8  and  C7_9 
REMARK    5  A    between atoms: C7_9  and  N2_10 
REMARK       I    between atoms: N2_10  and  C8_12 
REMARK       I    between atoms: C8_12  and  N3_14 
REMARK    6  A    between atoms: N3_14  and  C9_16 
REMARK    7  A    between atoms: C9_16  and  C10_17 
REMARK    8  A    between atoms: C10_17  and  C11_18 
REMARK    9  A    between atoms: C11_18  and  N4_19 
REMARK   10  A    between atoms: C15_25  and  N6_26 
REMARK   11  A    between atoms: N6_26  and  C16_28 
REMARK   12  A    between atoms: C16_28  and  C17_29 
REMARK   13  A    between atoms: C17_29  and  N7_30 
ROOT
HETATM    1  C3  UNL     1      42.420  34.917  41.851  1.00  0.00     0.029 A 
HETATM    2  C4  UNL     1      42.529  34.267  43.057  1.00  0.00     0.074 A 
HETATM    3  C5  UNL     1      43.762  34.084  43.601  1.00  0.00     0.118 A 
HETATM    4  N5  UNL     1      44.868  34.545  42.952  1.00  0.00    -0.177 N 
ATOM      5  H5  UNL     1      45.791  34.407  43.364  1.00  0.00     0.185 HD
HETATM    6  C15 UNL     1      44.752  35.180  41.772  1.00  0.00     0.679 A 
HETATM    7  N8  UNL     1      43.530  35.351  41.250  1.00  0.00    -0.196 N 
ATOM      8  H8  UNL     1      43.444  35.833  40.355  1.00  0.00     0.184 HD
ENDROOT
BRANCH   3   9
HETATM    9  N1  UNL     1      43.921  33.486  44.710  1.00  0.00    -0.374 N 
ATOM     10  H1  UNL     1      44.822  33.040  44.882  1.00  0.00     0.161 HD
BRANCH   9  11
HETATM   11  C6  UNL     1      42.923  33.394  45.743  1.00  0.00     0.141 C 
BRANCH  11  12
HETATM   12  C7  UNL     1      42.603  34.782  46.247  1.00  0.00     0.144 C 
BRANCH  12  13
HETATM   13  N2  UNL     1      42.249  34.845  47.619  1.00  0.00    -0.342 N 
HETATM   14  C8  UNL     1      40.910  35.015  48.028  1.00  0.00     0.316 C 
HETATM   15  O1  UNL     1      40.009  35.119  47.170  1.00  0.00    -0.247 OA
HETATM   16  N3  UNL     1      40.570  35.071  49.394  1.00  0.00    -0.343 N 
ATOM     17  H3  UNL     1      41.330  34.974  50.067  1.00  0.00     0.164 HD
ATOM     18  H2  UNL     1      42.980  34.766  48.326  1.00  0.00     0.164 HD
BRANCH  16  19
HETATM   19  C9  UNL     1      39.243  35.253  49.921  1.00  0.00     0.126 C 
BRANCH  19  20
HETATM   20  C10 UNL     1      38.924  36.659  50.304  1.00  0.00     0.048 C 
BRANCH  20  21
HETATM   21  C11 UNL     1      40.032  37.424  50.919  1.00  0.00     0.237 C 
BRANCH  21  22
HETATM   22  N4  UNL     1      40.485  38.596  50.257  1.00  0.00    -0.079 N 
HETATM   23  C12 UNL     1      39.908  38.786  48.941  1.00  0.00     0.271 C 
HETATM   24  C13 UNL     1      41.921  38.363  49.990  1.00  0.00     0.271 C 
HETATM   25  C14 UNL     1      40.406  39.810  51.025  1.00  0.00     0.271 C 
ENDBRANCH  21  22
ENDBRANCH  20  21
ENDBRANCH  19  20
ENDBRANCH  16  19
ENDBRANCH  12  13
ENDBRANCH  11  12
ENDBRANCH   9  11
ENDBRANCH   3   9
BRANCH   1  26
HETATM   26  C2  UNL     1      41.106  35.134  41.220  1.00  0.00     0.053 C 
HETATM   27  C1  UNL     1      40.048  34.961  42.298  1.00  0.00     0.011 C 
ENDBRANCH   1  26
BRANCH   6  28
HETATM   28  N6  UNL     1      45.813  35.603  41.184  1.00  0.00    -0.224 N 
ATOM     29  H6  UNL     1      45.964  36.609  41.114  1.00  0.00     0.177 HD
BRANCH  28  30
HETATM   30  C16 UNL     1      46.806  34.712  40.617  1.00  0.00     0.168 C 
BRANCH  30  31
HETATM   31  C17 UNL     1      46.437  34.222  39.259  1.00  0.00     0.291 C 
BRANCH  31  32
HETATM   32  N7  UNL     1      45.883  32.884  39.267  1.00  0.00     0.081 N 
HETATM   33  C18 UNL     1      44.577  32.819  38.646  1.00  0.00     0.309 C 
HETATM   34  C19 UNL     1      46.800  31.914  38.708  1.00  0.00     0.309 C 
ENDBRANCH  31  32
ENDBRANCH  30  31
ENDBRANCH  28  30
ENDBRANCH   6  28
TORSDOF 13
ENDMDL
MODEL 3
REMARK VINA RESULT: -7.354204208      2.034     10.272
REMARK  13 active torsions:
REMARK  status: ('A' for Active; 'I' for Inactive)
REMARK    1  A    between atoms: C2_2  and  C3_3 
REMARK    2  A    between atoms: C5_5  and  N1_6 
REMARK    3  A    between atoms: N1_6  and  C6_8 
REMARK    4  A    between atoms: C6_8  and  C7_9 
REMARK    5  A    between atoms: C7_9  and  N2_10 
REMARK       I    between atoms: N2_10  and  C8_12 
REMARK       I    between atoms: C8_12  and  N3_14 
REMARK    6  A    between atoms: N3_14  and  C9_16 
REMARK    7  A    between atoms: C9_16  and  C10_17 
REMARK    8  A    between atoms: C10_17  and  C11_18 
REMARK    9  A    between atoms: C11_18  and  N4_19 
REMARK   10  A    between atoms: C15_25  and  N6_26 
REMARK   11  A    between atoms: N6_26  and  C16_28 
REMARK   12  A    between atoms: C16_28  and  C17_29 
REMARK   13  A    between atoms: C17_29  and  N7_30 
ROOT
HETATM    1  C3  UNL     1      40.264  35.789  48.711  1.00  0.00     0.029 A 
HETATM    2  C4  UNL     1      40.882  35.237  47.615  1.00  0.00     0.074 A 
HETATM    3  C5  UNL     1      42.236  35.318  47.507  1.00  0.00     0.118 A 
HETATM    4  N5  UNL     1      42.960  35.939  48.480  1.00  0.00    -0.177 N 
ATOM      5  H5  UNL     1      43.975  35.996  48.397  1.00  0.00     0.185 HD
HETATM    6  C15 UNL     1      42.347  36.477  49.550  1.00  0.00     0.679 A 
HETATM    7  N8  UNL     1      41.013  36.389  49.640  1.00  0.00    -0.196 N 
ATOM      8  H8  UNL     1      40.550  36.797  50.452  1.00  0.00     0.184 HD
ENDROOT
BRANCH   3   9
HETATM    9  N1  UNL     1      42.858  34.829  46.514  1.00  0.00    -0.374 N 
ATOM     10  H1  UNL     1      43.716  34.311  46.702  1.00  0.00     0.161 HD
BRANCH   9  11
HETATM   11  C6  UNL     1      42.439  34.953  45.142  1.00  0.00     0.141 C 
BRANCH  11  12
HETATM   12  C7  UNL     1      43.336  34.102  44.274  1.00  0.00     0.144 C 
BRANCH  12  13
HETATM   13  N2  UNL     1      43.858  34.766  43.134  1.00  0.00    -0.342 N 
HETATM   14  C8  UNL     1      45.061  34.351  42.526  1.00  0.00     0.316 C 
HETATM   15  O1  UNL     1      45.691  33.382  42.997  1.00  0.00    -0.247 OA
HETATM   16  N3  UNL     1      45.567  35.016  41.391  1.00  0.00    -0.343 N 
ATOM     17  H3  UNL     1      45.022  35.798  41.028  1.00  0.00     0.164 HD
ATOM     18  H2  UNL     1      43.352  35.563  42.746  1.00  0.00     0.164 HD
BRANCH  16  19
HETATM   19  C9  UNL     1      46.786  34.685  40.701  1.00  0.00     0.126 C 
BRANCH  19  20
HETATM   20  C10 UNL     1      46.584  33.936  39.426  1.00  0.00     0.048 C 
BRANCH  20  21
HETATM   21  C11 UNL     1      46.612  32.461  39.537  1.00  0.00     0.237 C 
BRANCH  21  22
HETATM   22  N4  UNL     1      45.383  31.757  39.425  1.00  0.00    -0.079 N 
HETATM   23  C12 UNL     1      44.987  31.074  40.639  1.00  0.00     0.271 C 
HETATM   24  C13 UNL     1      45.647  30.663  38.465  1.00  0.00     0.271 C 
HETATM   25  C14 UNL     1      44.284  32.513  38.887  1.00  0.00     0.271 C 
ENDBRANCH  21  22
ENDBRANCH  20  21
ENDBRANCH  19  20
ENDBRANCH  16  19
ENDBRANCH  12  13
ENDBRANCH  11  12
ENDBRANCH   9  11
ENDBRANCH   3   9
BRANCH   1  26
HETATM   26  C2  UNL     1      38.800  35.731  48.869  1.00  0.00     0.053 C 
HETATM   27  C1  UNL     1      38.490  35.966  50.338  1.00  0.00     0.011 C 
ENDBRANCH   1  26
BRANCH   6  28
HETATM   28  N6  UNL     1      43.057  37.055  50.451  1.00  0.00    -0.224 N 
ATOM     29  H6  UNL     1      44.065  36.896  50.455  1.00  0.00     0.177 HD
BRANCH  28  30
HETATM   30  C16 UNL     1      42.489  37.925  51.461  1.00  0.00     0.168 C 
BRANCH  30  31
HETATM   31  C17 UNL     1      43.257  39.189  51.638  1.00  0.00     0.291 C 
BRANCH  31  32
HETATM   32  N7  UNL     1      42.437  40.376  51.511  1.00  0.00     0.081 N 
HETATM   33  C18 UNL     1      43.205  41.598  51.625  1.00  0.00     0.309 C 
HETATM   34  C19 UNL     1      41.629  40.351  50.311  1.00  0.00     0.309 C 
ENDBRANCH  31  32
ENDBRANCH  30  31
ENDBRANCH  28  30
ENDBRANCH   6  28
TORSDOF 13
ENDMDL
MODEL 4
REMARK VINA RESULT: -7.347142969      2.134      9.317
REMARK  13 active torsions:
REMARK  status: ('A' for Active; 'I' for Inactive)
REMARK    1  A    between atoms: C2_2  and  C3_3 
REMARK    2  A    between atoms: C5_5  and  N1_6 
REMARK    3  A    between atoms: N1_6  and  C6_8 
REMARK    4  A    between atoms: C6_8  and  C7_9 
REMARK    5  A    between atoms: C7_9  and  N2_10 
REMARK       I    between atoms: N2_10  and  C8_12 
REMARK       I    between atoms: C8_12  and  N3_14 
REMARK    6  A    between atoms: N3_14  and  C9_16 
REMARK    7  A    between atoms: C9_16  and  C10_17 
REMARK    8  A    between atoms: C10_17  and  C11_18 
REMARK    9  A    between atoms: C11_18  and  N4_19 
REMARK   10  A    between atoms: C15_25  and  N6_26 
REMARK   11  A    between atoms: N6_26  and  C16_28 
REMARK   12  A    between atoms: C16_28  and  C17_29 
REMARK   13  A    between atoms: C17_29  and  N7_30 
ROOT
HETATM    1  C3  UNL     1      42.667  32.596  45.658  1.00  0.00     0.029 A 
HETATM    2  C4  UNL     1      41.911  33.106  44.630  1.00  0.00     0.074 A 
HETATM    3  C5  UNL     1      41.295  34.308  44.795  1.00  0.00     0.118 A 
HETATM    4  N5  UNL     1      41.434  34.988  45.967  1.00  0.00    -0.177 N 
ATOM      5  H5  UNL     1      40.971  35.890  46.086  1.00  0.00     0.185 HD
HETATM    6  C15 UNL     1      42.175  34.482  46.968  1.00  0.00     0.679 A 
HETATM    7  N8  UNL     1      42.775  33.297  46.789  1.00  0.00    -0.196 N 
ATOM      8  H8  UNL     1      43.337  32.915  47.549  1.00  0.00     0.184 HD
ENDROOT
BRANCH   3   9
HETATM    9  N1  UNL     1      40.581  34.824  43.880  1.00  0.00    -0.374 N 
ATOM     10  H1  UNL     1      40.141  35.723  44.075  1.00  0.00     0.161 HD
BRANCH   9  11
HETATM   11  C6  UNL     1      40.348  34.232  42.589  1.00  0.00     0.141 C 
BRANCH  11  12
HETATM   12  C7  UNL     1      40.791  35.198  41.515  1.00  0.00     0.144 C 
BRANCH  12  13
HETATM   13  N2  UNL     1      42.010  34.853  40.877  1.00  0.00    -0.342 N 
HETATM   14  C8  UNL     1      43.257  35.241  41.409  1.00  0.00     0.316 C 
HETATM   15  O1  UNL     1      43.299  35.909  42.463  1.00  0.00    -0.247 OA
HETATM   16  N3  UNL     1      44.461  34.886  40.769  1.00  0.00    -0.343 N 
ATOM     17  H3  UNL     1      44.389  34.333  39.915  1.00  0.00     0.164 HD
ATOM     18  H2  UNL     1      41.983  34.311  40.012  1.00  0.00     0.164 HD
BRANCH  16  19
HETATM   19  C9  UNL     1      45.783  35.239  41.217  1.00  0.00     0.126 C 
BRANCH  19  20
HETATM   20  C10 UNL     1      46.769  34.121  41.152  1.00  0.00     0.048 C 
BRANCH  20  21
HETATM   21  C11 UNL     1      46.194  32.766  40.997  1.00  0.00     0.237 C 
BRANCH  21  22
HETATM   22  N4  UNL     1      46.420  32.078  39.775  1.00  0.00    -0.079 N 
HETATM   23  C12 UNL     1      46.965  32.913  38.724  1.00  0.00     0.271 C 
HETATM   24  C13 UNL     1      45.075  31.709  39.281  1.00  0.00     0.271 C 
HETATM   25  C14 UNL     1      47.163  30.851  39.884  1.00  0.00     0.271 C 
ENDBRANCH  21  22
ENDBRANCH  20  21
ENDBRANCH  19  20
ENDBRANCH  16  19
ENDBRANCH  12  13
ENDBRANCH  11  12
ENDBRANCH   9  11
ENDBRANCH   3   9
BRANCH   1  26
HETATM   26  C2  UNL     1      43.350  31.296  45.528  1.00  0.00     0.053 C 
HETATM   27  C1  UNL     1      42.423  30.236  46.101  1.00  0.00     0.011 C 
ENDBRANCH   1  26
BRANCH   6  28
HETATM   28  N6  UNL     1      42.287  35.148  48.061  1.00  0.00    -0.224 N 
ATOM     29  H6  UNL     1      43.029  34.895  48.713  1.00  0.00     0.177 HD
BRANCH  28  30
HETATM   30  C16 UNL     1      41.403  36.243  48.408  1.00  0.00     0.168 C 
BRANCH  30  31
HETATM   31  C17 UNL     1      40.777  36.081  49.750  1.00  0.00     0.291 C 
BRANCH  31  32
HETATM   32  N7  UNL     1      39.338  36.241  49.730  1.00  0.00     0.081 N 
HETATM   33  C18 UNL     1      38.731  35.667  48.549  1.00  0.00     0.309 C 
HETATM   34  C19 UNL     1      38.723  35.759  50.948  1.00  0.00     0.309 C 
ENDBRANCH  31  32
ENDBRANCH  30  31
ENDBRANCH  28  30
ENDBRANCH   6  28
TORSDOF 13
ENDMDL
MODEL 5
REMARK VINA RESULT: -7.309250515      1.851      9.699
REMARK  13 active torsions:
REMARK  status: ('A' for Active; 'I' for Inactive)
REMARK    1  A    between atoms: C2_2  and  C3_3 
REMARK    2  A    between atoms: C5_5  and  N1_6 
REMARK    3  A    between atoms: N1_6  and  C6_8 
REMARK    4  A    between atoms: C6_8  and  C7_9 
REMARK    5  A    between atoms: C7_9  and  N2_10 
REMARK       I    between atoms: N2_10  and  C8_12 
REMARK       I    between atoms: C8_12  and  N3_14 
REMARK    6  A    between atoms: N3_14  and  C9_16 
REMARK    7  A    between atoms: C9_16  and  C10_17 
REMARK    8  A    between atoms: C10_17  and  C11_18 
REMARK    9  A    between atoms: C11_18  and  N4_19 
REMARK   10  A    between atoms: C15_25  and  N6_26 
REMARK   11  A    between atoms: N6_26  and  C16_28 
REMARK   12  A    between atoms: C16_28  and  C17_29 
REMARK   13  A    between atoms: C17_29  and  N7_30 
ROOT
HETATM    1  C3  UNL     1      40.214  35.788  48.745  1.00  0.00     0.029 A 
HETATM    2  C4  UNL     1      40.797  35.200  47.649  1.00  0.00     0.074 A 
HETATM    3  C5  UNL     1      42.149  35.256  47.508  1.00  0.00     0.118 A 
HETATM    4  N5  UNL     1      42.905  35.890  48.447  1.00  0.00    -0.177 N 
ATOM      5  H5  UNL     1      43.919  35.929  48.339  1.00  0.00     0.185 HD
HETATM    6  C15 UNL     1      42.326  36.464  49.517  1.00  0.00     0.679 A 
HETATM    7  N8  UNL     1      40.993  36.399  49.640  1.00  0.00    -0.196 N 
ATOM      8  H8  UNL     1      40.556  36.834  50.452  1.00  0.00     0.184 HD
ENDROOT
BRANCH   3   9
HETATM    9  N1  UNL     1      42.740  34.733  46.512  1.00  0.00    -0.374 N 
ATOM     10  H1  UNL     1      43.255  35.355  45.889  1.00  0.00     0.161 HD
BRANCH   9  11
HETATM   11  C6  UNL     1      42.736  33.328  46.201  1.00  0.00     0.141 C 
BRANCH  11  12
HETATM   12  C7  UNL     1      43.785  33.052  45.150  1.00  0.00     0.144 C 
BRANCH  12  13
HETATM   13  N2  UNL     1      43.268  32.709  43.875  1.00  0.00    -0.342 N 
HETATM   14  C8  UNL     1      42.865  33.697  42.952  1.00  0.00     0.316 C 
HETATM   15  O1  UNL     1      42.955  34.904  43.259  1.00  0.00    -0.247 OA
HETATM   16  N3  UNL     1      42.358  33.343  41.687  1.00  0.00    -0.343 N 
ATOM     17  H3  UNL     1      42.306  32.349  41.466  1.00  0.00     0.164 HD
ATOM     18  H2  UNL     1      43.186  31.724  43.619  1.00  0.00     0.164 HD
BRANCH  16  19
HETATM   19  C9  UNL     1      41.907  34.266  40.677  1.00  0.00     0.126 C 
BRANCH  19  20
HETATM   20  C10 UNL     1      42.978  34.725  39.745  1.00  0.00     0.048 C 
BRANCH  20  21
HETATM   21  C11 UNL     1      44.025  33.728  39.430  1.00  0.00     0.237 C 
BRANCH  21  22
HETATM   22  N4  UNL     1      45.361  34.010  39.824  1.00  0.00    -0.079 N 
HETATM   23  C12 UNL     1      46.306  34.020  38.725  1.00  0.00     0.271 C 
HETATM   24  C13 UNL     1      45.777  32.854  40.646  1.00  0.00     0.271 C 
HETATM   25  C14 UNL     1      45.528  35.177  40.647  1.00  0.00     0.271 C 
ENDBRANCH  21  22
ENDBRANCH  20  21
ENDBRANCH  19  20
ENDBRANCH  16  19
ENDBRANCH  12  13
ENDBRANCH  11  12
ENDBRANCH   9  11
ENDBRANCH   3   9
BRANCH   1  26
HETATM   26  C2  UNL     1      38.753  35.757  48.938  1.00  0.00     0.053 C 
HETATM   27  C1  UNL     1      38.488  35.883  50.430  1.00  0.00     0.011 C 
ENDBRANCH   1  26
BRANCH   6  28
HETATM   28  N6  UNL     1      43.066  37.054  50.386  1.00  0.00    -0.224 N 
ATOM     29  H6  UNL     1      44.079  36.956  50.312  1.00  0.00     0.177 HD
BRANCH  28  30
HETATM   30  C16 UNL     1      42.524  37.853  51.467  1.00  0.00     0.168 C 
BRANCH  30  31
HETATM   31  C17 UNL     1      43.279  39.118  51.689  1.00  0.00     0.291 C 
BRANCH  31  32
HETATM   32  N7  UNL     1      42.703  40.254  51.001  1.00  0.00     0.081 N 
HETATM   33  C18 UNL     1      41.261  40.169  50.899  1.00  0.00     0.309 C 
HETATM   34  C19 UNL     1      43.134  41.510  51.573  1.00  0.00     0.309 C 
ENDBRANCH  31  32
ENDBRANCH  30  31
ENDBRANCH  28  30
ENDBRANCH   6  28
TORSDOF 13
ENDMDL
