MODEL 1
REMARK VINA RESULT: -7.393934007      0.000      0.000
REMARK  13 active torsions:
REMARK  status: ('A' for Active; 'I' for Inactive)
REMARK    1  A    between atoms: C2_2  and  C3_3 
REMARK       I    between atoms: C3_3  and  N1_5 
REMARK    2  A    between atoms: N1_5  and  C4_6 
REMARK    3  A    between atoms: C4_6  and  N2_7 
REMARK    4  A    between atoms: C4_6  and  C10_15 
REMARK    5  A    between atoms: N2_7  and  C5_9 
REMARK    6  A    between atoms: C5_9  and  C6_10 
REMARK    7  A    between atoms: C6_10  and  N3_11 
REMARK    8  A    between atoms: C10_15  and  N4_16 
REMARK    9  A    between atoms: C10_15  and  C19_29 
REMARK       I    between atoms: N4_16  and  C11_18 
REMARK   10  A    between atoms: C11_18  and  C12_20 
REMARK   11  A    between atoms: C13_21  and  C14_22 
REMARK   12  A    between atoms: C14_22  and  C15_23 
REMARK   13  A    between atoms: C17_25  and  C18_26 
ROOT
HETATM    1  C10 UNL     1      42.354  31.888  44.598  1.00  0.00     0.257 C 
ENDROOT
BRANCH   1   2
HETATM    2  C4  UNL     1      41.161  31.544  43.740  1.00  0.00     0.187 C 
BRANCH   2   3
HETATM    3  N1  UNL     1      40.616  32.392  43.110  1.00  0.00    -0.354 NA
HETATM    4  C3  UNL     1      39.987  33.355  42.479  1.00  0.00     0.292 C 
HETATM    5  O1  UNL     1      38.967  33.082  41.726  1.00  0.00    -0.257 OA
BRANCH   4   6
HETATM    6  C2  UNL     1      40.289  34.830  42.495  1.00  0.00     0.115 C 
HETATM    7  C1  UNL     1      41.259  35.112  41.376  1.00  0.00     0.016 C 
ENDBRANCH   4   6
ENDBRANCH   2   3
BRANCH   2   8
HETATM    8  N2  UNL     1      40.731  30.160  43.762  1.00  0.00    -0.365 N 
ATOM      9  H2  UNL     1      40.604  29.655  44.639  1.00  0.00     0.161 HD
BRANCH   8  10
HETATM   10  C5  UNL     1      40.492  29.532  42.494  1.00  0.00     0.150 C 
BRANCH  10  11
HETATM   11  C6  UNL     1      40.921  28.107  42.404  1.00  0.00     0.255 C 
BRANCH  11  12
HETATM   12  N3  UNL     1      42.004  27.835  41.504  1.00  0.00    -0.077 N 
HETATM   13  C7  UNL     1      43.313  27.918  42.061  1.00  0.00     0.271 C 
HETATM   14  C8  UNL     1      41.934  28.807  40.409  1.00  0.00     0.271 C 
HETATM   15  C9  UNL     1      41.815  26.511  40.886  1.00  0.00     0.271 C 
ENDBRANCH  11  12
ENDBRANCH  10  11
ENDBRANCH   8  10
ENDBRANCH   2   8
ENDBRANCH   1   2
BRANCH   1  16
HETATM   16  N4  UNL     1      43.415  32.431  43.813  1.00  0.00    -0.337 N 
HETATM   17  C11 UNL     1      43.848  33.764  43.751  1.00  0.00     0.241 C 
HETATM   18  O2  UNL     1      43.307  34.653  44.432  1.00  0.00    -0.269 OA
ATOM     19  H4  UNL     1      43.920  31.770  43.225  1.00  0.00     0.164 HD
BRANCH  17  20
HETATM   20  C12 UNL     1      44.950  34.144  42.884  1.00  0.00     0.070 C 
HETATM   21  C13 UNL     1      45.967  33.338  42.630  1.00  0.00    -0.017 C 
BRANCH  21  22
HETATM   22  C14 UNL     1      47.045  33.775  41.752  1.00  0.00     0.061 C 
BRANCH  22  23
HETATM   23  C15 UNL     1      46.911  33.237  40.361  1.00  0.00    -0.075 C 
HETATM   24  C16 UNL     1      46.719  34.211  39.272  1.00  0.00     0.044 C 
HETATM   25  C17 UNL     1      46.965  31.941  40.124  1.00  0.00     0.073 C 
BRANCH  25  26
HETATM   26  C18 UNL     1      46.851  31.301  38.835  1.00  0.00     0.254 C 
HETATM   27  N5  UNL     1      45.633  30.774  38.336  1.00  0.00    -0.058 NA
HETATM   28  O3  UNL     1      47.864  31.198  38.106  1.00  0.00    -0.272 OA
ENDBRANCH  25  26
ENDBRANCH  22  23
ENDBRANCH  21  22
ENDBRANCH  17  20
ENDBRANCH   1  16
BRANCH   1  29
HETATM   29  C19 UNL     1      42.724  30.849  45.553  1.00  0.00     0.262 C 
HETATM   30  N6  UNL     1      43.694  29.862  45.141  1.00  0.00    -0.060 NA
HETATM   31  O4  UNL     1      42.271  30.719  46.732  1.00  0.00    -0.274 OA
ENDBRANCH   1  29
TORSDOF 13
ENDMDL
MODEL 2
REMARK VINA RESULT: -7.369827164      4.259      8.057
REMARK  13 active torsions:
REMARK  status: ('A' for Active; 'I' for Inactive)
REMARK    1  A    between atoms: C2_2  and  C3_3 
REMARK       I    between atoms: C3_3  and  N1_5 
REMARK    2  A    between atoms: N1_5  and  C4_6 
REMARK    3  A    between atoms: C4_6  and  N2_7 
REMARK    4  A    between atoms: C4_6  and  C10_15 
REMARK    5  A    between atoms: N2_7  and  C5_9 
REMARK    6  A    between atoms: C5_9  and  C6_10 
REMARK    7  A    between atoms: C6_10  and  N3_11 
REMARK    8  A    between atoms: C10_15  and  N4_16 
REMARK    9  A    between atoms: C10_15  and  C19_29 
REMARK       I    between atoms: N4_16  and  C11_18 
REMARK   10  A    between atoms: C11_18  and  C12_20 
REMARK   11  A    between atoms: C13_21  and  C14_22 
REMARK   12  A    between atoms: C14_22  and  C15_23 
REMARK   13  A    between atoms: C17_25  and  C18_26 
ROOT
HETATM    1  C10 UNL     1      41.378  33.709  43.320  1.00  0.00     0.257 C 
ENDROOT
BRANCH   1   2
HETATM    2  C4  UNL     1      41.958  32.326  43.149  1.00  0.00     0.187 C 
BRANCH   2   3
HETATM    3  N1  UNL     1      42.148  31.637  44.098  1.00  0.00    -0.354 NA
HETATM    4  C3  UNL     1      42.289  30.849  45.137  1.00  0.00     0.292 C 
HETATM    5  O1  UNL     1      42.326  31.349  46.333  1.00  0.00    -0.257 OA
BRANCH   4   6
HETATM    6  C2  UNL     1      42.425  29.350  45.155  1.00  0.00     0.115 C 
HETATM    7  C1  UNL     1      43.378  28.961  44.053  1.00  0.00     0.016 C 
ENDBRANCH   4   6
ENDBRANCH   2   3
BRANCH   2   8
HETATM    8  N2  UNL     1      42.278  31.928  41.792  1.00  0.00    -0.365 N 
ATOM      9  H2  UNL     1      41.760  31.190  41.316  1.00  0.00     0.161 HD
BRANCH   8  10
HETATM   10  C5  UNL     1      43.359  32.620  41.148  1.00  0.00     0.150 C 
BRANCH  10  11
HETATM   11  C6  UNL     1      44.708  32.364  41.730  1.00  0.00     0.255 C 
BRANCH  11  12
HETATM   12  N3  UNL     1      45.335  33.485  42.369  1.00  0.00    -0.077 N 
HETATM   13  C7  UNL     1      44.797  34.766  42.051  1.00  0.00     0.271 C 
HETATM   14  C8  UNL     1      46.747  33.495  41.975  1.00  0.00     0.271 C 
HETATM   15  C9  UNL     1      45.322  33.295  43.830  1.00  0.00     0.271 C 
ENDBRANCH  11  12
ENDBRANCH  10  11
ENDBRANCH   8  10
ENDBRANCH   2   8
ENDBRANCH   1   2
BRANCH   1  16
HETATM   16  N4  UNL     1      41.173  34.015  44.699  1.00  0.00    -0.337 N 
HETATM   17  C11 UNL     1      41.893  34.913  45.501  1.00  0.00     0.241 C 
HETATM   18  O2  UNL     1      42.840  35.575  45.042  1.00  0.00    -0.269 OA
ATOM     19  H4  UNL     1      40.409  33.520  45.159  1.00  0.00     0.164 HD
BRANCH  17  20
HETATM   20  C12 UNL     1      41.547  35.097  46.901  1.00  0.00     0.070 C 
HETATM   21  C13 UNL     1      42.328  35.745  47.748  1.00  0.00    -0.017 C 
BRANCH  21  22
HETATM   22  C14 UNL     1      41.928  35.897  49.141  1.00  0.00     0.061 C 
BRANCH  22  23
HETATM   23  C15 UNL     1      40.846  36.915  49.324  1.00  0.00    -0.075 C 
HETATM   24  C16 UNL     1      39.588  36.464  49.943  1.00  0.00     0.044 C 
HETATM   25  C17 UNL     1      41.018  38.167  48.945  1.00  0.00     0.073 C 
BRANCH  25  26
HETATM   26  C18 UNL     1      40.057  39.237  49.068  1.00  0.00     0.254 C 
HETATM   27  N5  UNL     1      39.921  40.026  50.239  1.00  0.00    -0.058 NA
HETATM   28  O3  UNL     1      39.298  39.498  48.107  1.00  0.00    -0.272 OA
ENDBRANCH  25  26
ENDBRANCH  22  23
ENDBRANCH  21  22
ENDBRANCH  17  20
ENDBRANCH   1  16
BRANCH   1  29
HETATM   29  C19 UNL     1      40.270  34.010  42.421  1.00  0.00     0.262 C 
HETATM   30  N6  UNL     1      39.413  32.923  42.011  1.00  0.00    -0.060 NA
HETATM   31  O4  UNL     1      39.975  35.152  41.950  1.00  0.00    -0.274 OA
ENDBRANCH   1  29
TORSDOF 13
ENDMDL
MODEL 3
REMARK VINA RESULT: -7.293014348      2.586      5.698
REMARK  13 active torsions:
REMARK  status: ('A' for Active; 'I' for Inactive)
REMARK    1  A    between atoms: C2_2  and  C3_3 
REMARK       I    between atoms: C3_3  and  N1_5 
REMARK    2  A    between atoms: N1_5  and  C4_6 
REMARK    3  A    between atoms: C4_6  and  N2_7 
REMARK    4  A    between atoms: C4_6  and  C10_15 
REMARK    5  A    between atoms: N2_7  and  C5_9 
REMARK    6  A    between atoms: C5_9  and  C6_10 
REMARK    7  A    between atoms: C6_10  and  N3_11 
REMARK    8  A    between atoms: C10_15  and  N4_16 
REMARK    9  A    between atoms: C10_15  and  C19_29 
REMARK       I    between atoms: N4_16  and  C11_18 
REMARK   10  A    between atoms: C11_18  and  C12_20 
REMARK   11  A    between atoms: C13_21  and  C14_22 
REMARK   12  A    between atoms: C14_22  and  C15_23 
REMARK   13  A    between atoms: C17_25  and  C18_26 
ROOT
HETATM    1  C10 UNL     1      42.709  34.456  44.872  1.00  0.00     0.257 C 
ENDROOT
BRANCH   1   2
HETATM    2  C4  UNL     1      42.442  34.787  43.423  1.00  0.00     0.187 C 
BRANCH   2   3
HETATM    3  N1  UNL     1      41.520  34.292  42.860  1.00  0.00    -0.354 NA
HETATM    4  C3  UNL     1      40.541  33.684  42.235  1.00  0.00     0.292 C 
HETATM    5  O1  UNL     1      40.255  33.999  41.010  1.00  0.00    -0.257 OA
BRANCH   4   6
HETATM    6  C2  UNL     1      39.635  32.601  42.757  1.00  0.00     0.115 C 
HETATM    7  C1  UNL     1      40.427  31.319  42.800  1.00  0.00     0.016 C 
ENDBRANCH   4   6
ENDBRANCH   2   3
BRANCH   2   8
HETATM    8  N2  UNL     1      43.376  35.697  42.789  1.00  0.00    -0.365 N 
ATOM      9  H2  UNL     1      43.315  36.706  42.928  1.00  0.00     0.161 HD
BRANCH   8  10
HETATM   10  C5  UNL     1      44.390  35.115  41.957  1.00  0.00     0.150 C 
BRANCH  10  11
HETATM   11  C6  UNL     1      44.108  35.158  40.494  1.00  0.00     0.255 C 
BRANCH  11  12
HETATM   12  N3  UNL     1      44.209  33.907  39.800  1.00  0.00    -0.077 N 
HETATM   13  C7  UNL     1      45.388  33.720  39.021  1.00  0.00     0.271 C 
HETATM   14  C8  UNL     1      43.065  33.804  38.889  1.00  0.00     0.271 C 
HETATM   15  C9  UNL     1      44.069  32.796  40.757  1.00  0.00     0.271 C 
ENDBRANCH  11  12
ENDBRANCH  10  11
ENDBRANCH   8  10
ENDBRANCH   2   8
ENDBRANCH   1   2
BRANCH   1  16
HETATM   16  N4  UNL     1      42.696  33.046  45.090  1.00  0.00    -0.337 N 
HETATM   17  C11 UNL     1      43.691  32.112  44.763  1.00  0.00     0.241 C 
HETATM   18  O2  UNL     1      44.753  32.461  44.219  1.00  0.00    -0.269 OA
ATOM     19  H4  UNL     1      41.862  32.670  45.539  1.00  0.00     0.164 HD
BRANCH  17  20
HETATM   20  C12 UNL     1      43.506  30.701  45.055  1.00  0.00     0.070 C 
HETATM   21  C13 UNL     1      43.420  29.783  44.108  1.00  0.00    -0.017 C 
BRANCH  21  22
HETATM   22  C14 UNL     1      43.233  28.382  44.463  1.00  0.00     0.061 C 
BRANCH  22  23
HETATM   23  C15 UNL     1      42.847  27.535  43.290  1.00  0.00    -0.075 C 
HETATM   24  C16 UNL     1      43.920  26.788  42.611  1.00  0.00     0.044 C 
HETATM   25  C17 UNL     1      41.595  27.464  42.884  1.00  0.00     0.073 C 
BRANCH  25  26
HETATM   26  C18 UNL     1      41.098  26.686  41.773  1.00  0.00     0.254 C 
HETATM   27  N5  UNL     1      40.670  25.340  41.899  1.00  0.00    -0.058 NA
HETATM   28  O3  UNL     1      41.035  27.207  40.636  1.00  0.00    -0.272 OA
ENDBRANCH  25  26
ENDBRANCH  22  23
ENDBRANCH  21  22
ENDBRANCH  17  20
ENDBRANCH   1  16
BRANCH   1  29
HETATM   29  C19 UNL     1      41.950  35.263  45.820  1.00  0.00     0.262 C 
HETATM   30  N6  UNL     1      40.641  34.799  46.212  1.00  0.00    -0.060 NA
HETATM   31  O4  UNL     1      42.327  36.356  46.346  1.00  0.00    -0.274 OA
ENDBRANCH   1  29
TORSDOF 13
ENDMDL
MODEL 4
REMARK VINA RESULT: -7.290324581      4.291      8.137
REMARK  13 active torsions:
REMARK  status: ('A' for Active; 'I' for Inactive)
REMARK    1  A    between atoms: C2_2  and  C3_3 
REMARK       I    between atoms: C3_3  and  N1_5 
REMARK    2  A    between atoms: N1_5  and  C4_6 
REMARK    3  A    between atoms: C4_6  and  N2_7 
REMARK    4  A    between atoms: C4_6  and  C10_15 
REMARK    5  A    between atoms: N2_7  and  C5_9 
REMARK    6  A    between atoms: C5_9  and  C6_10 
REMARK    7  A    between atoms: C6_10  and  N3_11 
REMARK    8  A    between atoms: C10_15  and  N4_16 
REMARK    9  A    between atoms: C10_15  and  C19_29 
REMARK       I    between atoms: N4_16  and  C11_18 
REMARK   10  A    between atoms: C11_18  and  C12_20 
REMARK   11  A    between atoms: C13_21  and  C14_22 
REMARK   12  A    between atoms: C14_22  and  C15_23 
REMARK   13  A    between atoms: C17_25  and  C18_26 
ROOT
HETATM    1  C10 UNL     1      41.373  33.556  43.296  1.00  0.00     0.257 C 
ENDROOT
BRANCH   1   2
HETATM    2  C4  UNL     1      42.001  32.191  43.156  1.00  0.00     0.187 C 
BRANCH   2   3
HETATM    3  N1  UNL     1      42.185  31.518  44.118  1.00  0.00    -0.354 NA
HETATM    4  C3  UNL     1      42.320  30.746  45.170  1.00  0.00     0.292 C 
HETATM    5  O1  UNL     1      42.336  31.264  46.358  1.00  0.00    -0.257 OA
BRANCH   4   6
HETATM    6  C2  UNL     1      42.471  29.249  45.212  1.00  0.00     0.115 C 
HETATM    7  C1  UNL     1      43.848  28.940  45.741  1.00  0.00     0.016 C 
ENDBRANCH   4   6
ENDBRANCH   2   3
BRANCH   2   8
HETATM    8  N2  UNL     1      42.374  31.790  41.813  1.00  0.00    -0.365 N 
ATOM      9  H2  UNL     1      41.741  31.252  41.222  1.00  0.00     0.161 HD
BRANCH   8  10
HETATM   10  C5  UNL     1      43.675  32.186  41.353  1.00  0.00     0.150 C 
BRANCH  10  11
HETATM   11  C6  UNL     1      43.711  33.464  40.586  1.00  0.00     0.255 C 
BRANCH  11  12
HETATM   12  N3  UNL     1      44.488  34.520  41.168  1.00  0.00    -0.077 N 
HETATM   13  C7  UNL     1      44.997  34.271  42.476  1.00  0.00     0.271 C 
HETATM   14  C8  UNL     1      43.638  35.711  41.252  1.00  0.00     0.271 C 
HETATM   15  C9  UNL     1      45.598  34.874  40.267  1.00  0.00     0.271 C 
ENDBRANCH  11  12
ENDBRANCH  10  11
ENDBRANCH   8  10
ENDBRANCH   2   8
ENDBRANCH   1   2
BRANCH   1  16
HETATM   16  N4  UNL     1      41.156  33.886  44.667  1.00  0.00    -0.337 N 
HETATM   17  C11 UNL     1      41.827  34.844  45.442  1.00  0.00     0.241 C 
HETATM   18  O2  UNL     1      42.734  35.545  44.961  1.00  0.00    -0.269 OA
ATOM     19  H4  UNL     1      40.422  33.362  45.143  1.00  0.00     0.164 HD
BRANCH  17  20
HETATM   20  C12 UNL     1      41.477  35.044  46.838  1.00  0.00     0.070 C 
HETATM   21  C13 UNL     1      42.276  35.660  47.692  1.00  0.00    -0.017 C 
BRANCH  21  22
HETATM   22  C14 UNL     1      41.870  35.831  49.080  1.00  0.00     0.061 C 
BRANCH  22  23
HETATM   23  C15 UNL     1      40.789  36.854  49.245  1.00  0.00    -0.075 C 
HETATM   24  C16 UNL     1      39.490  36.390  49.763  1.00  0.00     0.044 C 
HETATM   25  C17 UNL     1      40.996  38.119  48.937  1.00  0.00     0.073 C 
BRANCH  25  26
HETATM   26  C18 UNL     1      40.039  39.194  49.051  1.00  0.00     0.254 C 
HETATM   27  N5  UNL     1      39.862  39.952  50.237  1.00  0.00    -0.058 NA
HETATM   28  O3  UNL     1      39.321  39.488  48.068  1.00  0.00    -0.272 OA
ENDBRANCH  25  26
ENDBRANCH  22  23
ENDBRANCH  21  22
ENDBRANCH  17  20
ENDBRANCH   1  16
BRANCH   1  29
HETATM   29  C19 UNL     1      40.256  33.797  42.389  1.00  0.00     0.262 C 
HETATM   30  N6  UNL     1      40.026  35.148  41.938  1.00  0.00    -0.060 NA
HETATM   31  O4  UNL     1      39.446  32.923  41.949  1.00  0.00    -0.274 OA
ENDBRANCH   1  29
TORSDOF 13
ENDMDL
MODEL 5
REMARK VINA RESULT: -7.285038434      4.245      7.959
REMARK  13 active torsions:
REMARK  status: ('A' for Active; 'I' for Inactive)
REMARK    1  A    between atoms: C2_2  and  C3_3 
REMARK       I    between atoms: C3_3  and  N1_5 
REMARK    2  A    between atoms: N1_5  and  C4_6 
REMARK    3  A    between atoms: C4_6  and  N2_7 
REMARK    4  A    between atoms: C4_6  and  C10_15 
REMARK    5  A    between atoms: N2_7  and  C5_9 
REMARK    6  A    between atoms: C5_9  and  C6_10 
REMARK    7  A    between atoms: C6_10  and  N3_11 
REMARK    8  A    between atoms: C10_15  and  N4_16 
REMARK    9  A    between atoms: C10_15  and  C19_29 
REMARK       I    between atoms: N4_16  and  C11_18 
REMARK   10  A    between atoms: C11_18  and  C12_20 
REMARK   11  A    between atoms: C13_21  and  C14_22 
REMARK   12  A    between atoms: C14_22  and  C15_23 
REMARK   13  A    between atoms: C17_25  and  C18_26 
ROOT
HETATM    1  C10 UNL     1      43.445  33.322  43.878  1.00  0.00     0.257 C 
ENDROOT
BRANCH   1   2
HETATM    2  C4  UNL     1      44.512  33.973  43.033  1.00  0.00     0.187 C 
BRANCH   2   3
HETATM    3  N1  UNL     1      44.235  34.879  42.316  1.00  0.00    -0.354 NA
HETATM    4  C3  UNL     1      43.938  35.834  41.467  1.00  0.00     0.292 C 
HETATM    5  O1  UNL     1      44.745  36.836  41.308  1.00  0.00    -0.257 OA
BRANCH   4   6
HETATM    6  C2  UNL     1      42.721  35.954  40.589  1.00  0.00     0.115 C 
HETATM    7  C1  UNL     1      41.583  35.247  41.282  1.00  0.00     0.016 C 
ENDBRANCH   4   6
ENDBRANCH   2   3
BRANCH   2   8
HETATM    8  N2  UNL     1      45.846  33.413  43.137  1.00  0.00    -0.365 N 
ATOM      9  H2  UNL     1      46.151  32.916  43.974  1.00  0.00     0.161 HD
BRANCH   8  10
HETATM   10  C5  UNL     1      46.716  33.589  42.010  1.00  0.00     0.150 C 
BRANCH  10  11
HETATM   11  C6  UNL     1      46.608  32.537  40.959  1.00  0.00     0.255 C 
BRANCH  11  12
HETATM   12  N3  UNL     1      46.273  32.999  39.643  1.00  0.00    -0.077 N 
HETATM   13  C7  UNL     1      44.897  32.909  39.282  1.00  0.00     0.271 C 
HETATM   14  C8  UNL     1      47.030  32.197  38.678  1.00  0.00     0.271 C 
HETATM   15  C9  UNL     1      46.737  34.387  39.472  1.00  0.00     0.271 C 
ENDBRANCH  11  12
ENDBRANCH  10  11
ENDBRANCH   8  10
ENDBRANCH   2   8
ENDBRANCH   1   2
BRANCH   1  16
HETATM   16  N4  UNL     1      43.222  34.055  45.082  1.00  0.00    -0.337 N 
HETATM   17  C11 UNL     1      42.073  34.766  45.460  1.00  0.00     0.241 C 
HETATM   18  O2  UNL     1      41.072  34.817  44.726  1.00  0.00    -0.269 OA
ATOM     19  H4  UNL     1      43.993  34.064  45.750  1.00  0.00     0.164 HD
BRANCH  17  20
HETATM   20  C12 UNL     1      42.022  35.467  46.733  1.00  0.00     0.070 C 
HETATM   21  C13 UNL     1      41.520  34.921  47.827  1.00  0.00    -0.017 C 
BRANCH  21  22
HETATM   22  C14 UNL     1      41.495  35.673  49.074  1.00  0.00     0.061 C 
BRANCH  22  23
HETATM   23  C15 UNL     1      40.445  36.740  49.085  1.00  0.00    -0.075 C 
HETATM   24  C16 UNL     1      39.038  36.306  49.143  1.00  0.00     0.044 C 
HETATM   25  C17 UNL     1      40.771  38.017  49.044  1.00  0.00     0.073 C 
BRANCH  25  26
HETATM   26  C18 UNL     1      39.856  39.134  49.050  1.00  0.00     0.254 C 
HETATM   27  N5  UNL     1      39.455  39.802  50.235  1.00  0.00    -0.058 NA
HETATM   28  O3  UNL     1      39.382  39.548  47.967  1.00  0.00    -0.272 OA
ENDBRANCH  25  26
ENDBRANCH  22  23
ENDBRANCH  21  22
ENDBRANCH  17  20
ENDBRANCH   1  16
BRANCH   1  29
HETATM   29  C19 UNL     1      43.591  31.878  44.020  1.00  0.00     0.262 C 
HETATM   30  N6  UNL     1      43.654  31.080  42.819  1.00  0.00    -0.060 NA
HETATM   31  O4  UNL     1      43.669  31.236  45.113  1.00  0.00    -0.274 OA
ENDBRANCH   1  29
TORSDOF 13
ENDMDL
