MODEL 1
REMARK VINA RESULT: -6.452845890      0.000      0.000
REMARK  5 active torsions:
REMARK  status: ('A' for Active; 'I' for Inactive)
REMARK       I    between atoms: N1_1  and  C1_4 
REMARK       I    between atoms: C1_4  and  N3_6 
REMARK    1  A    between atoms: N3_6  and  N4_8 
REMARK    2  A    between atoms: N4_8  and  C2_10 
REMARK    3  A    between atoms: C2_10  and  N5_11 
REMARK    4  A    between atoms: N5_11  and  N6_13 
REMARK    5  A    between atoms: N6_13  and  C3_15 
ROOT
HETATM    1  C3  UNL     1      -1.603  -7.994   1.825  1.00  0.00     0.713 A 
HETATM    2  N7  UNL     1      -2.251  -8.968   1.158  1.00  0.00    -0.170 N 
ATOM      3  H7  UNL     1      -1.999  -9.169   0.191  1.00  0.00     0.186 HD
HETATM    4  C4  UNL     1      -3.241  -9.688   1.760  1.00  0.00     0.168 A 
HETATM    5  N8  UNL     1      -4.040 -10.690   1.359  1.00  0.00    -0.335 N 
ATOM      6  H8  UNL     1      -4.023 -11.112   0.431  1.00  0.00     0.168 HD
HETATM    7  C5  UNL     1      -4.865 -11.057   2.353  1.00  0.00     0.183 A 
HETATM    8  N9  UNL     1      -4.597 -10.278   3.424  1.00  0.00    -0.334 N 
ATOM      9  H9  UNL     1      -5.061 -10.320   4.331  1.00  0.00     0.168 HD
HETATM   10  C6  UNL     1      -3.596  -9.429   3.069  1.00  0.00     0.167 A 
HETATM   11  N10 UNL     1      -2.926  -8.449   3.703  1.00  0.00    -0.268 N 
ATOM     12  H10 UNL     1      -3.163  -8.232   4.671  1.00  0.00     0.189 HD
HETATM   13  N11 UNL     1      -1.957  -7.752   3.097  1.00  0.00    -0.129 N 
ATOM     14  H11 UNL     1      -1.474  -7.017   3.615  1.00  0.00     0.205 HD
ENDROOT
BRANCH   1  15
HETATM   15  N6  UNL     1      -0.660  -7.278   1.314  1.00  0.00    -0.130 N 
ATOM     16  H6  UNL     1       0.278  -7.361   1.707  1.00  0.00     0.205 HD
BRANCH  15  17
HETATM   17  N5  UNL     1      -0.855  -6.404   0.262  1.00  0.00    -0.281 N 
ATOM     18  H5  UNL     1      -1.207  -6.747  -0.632  1.00  0.00     0.188 HD
BRANCH  17  19
HETATM   19  C2  UNL     1      -0.562  -5.032   0.431  1.00  0.00     0.214 C 
BRANCH  19  20
HETATM   20  N4  UNL     1       0.520  -4.685   1.030  1.00  0.00    -0.293 N 
ATOM     21  H4  UNL     1       1.423  -4.832   0.580  1.00  0.00     0.187 HD
BRANCH  20  22
HETATM   22  N3  UNL     1       0.458  -4.111   2.293  1.00  0.00    -0.273 N 
HETATM   23  C1  UNL     1       0.975  -4.799   3.415  1.00  0.00     0.200 C 
HETATM   24  N1  UNL     1       2.220  -4.689   3.739  1.00  0.00    -0.372 N 
HETATM   25  N2  UNL     1       0.124  -5.624   4.203  1.00  0.00    -0.062 NA
ATOM     26  H12 UNL     1       2.592  -5.184   4.548  1.00  0.00     0.158 HD
ATOM     27  H11 UNL     1       2.830  -4.098   3.175  1.00  0.00     0.158 HD
ATOM     28  H3  UNL     1       0.038  -3.189   2.412  1.00  0.00     0.189 HD
ENDBRANCH  20  22
ENDBRANCH  19  20
ENDBRANCH  17  19
ENDBRANCH  15  17
ENDBRANCH   1  15
TORSDOF 5
ENDMDL
MODEL 2
REMARK VINA RESULT: -6.411345466      1.771      2.356
REMARK  5 active torsions:
REMARK  status: ('A' for Active; 'I' for Inactive)
REMARK       I    between atoms: N1_1  and  C1_4 
REMARK       I    between atoms: C1_4  and  N3_6 
REMARK    1  A    between atoms: N3_6  and  N4_8 
REMARK    2  A    between atoms: N4_8  and  C2_10 
REMARK    3  A    between atoms: C2_10  and  N5_11 
REMARK    4  A    between atoms: N5_11  and  N6_13 
REMARK    5  A    between atoms: N6_13  and  C3_15 
ROOT
HETATM    1  C3  UNL     1      -2.150  -7.249   2.166  1.00  0.00     0.713 A 
HETATM    2  N7  UNL     1      -0.963  -7.748   2.557  1.00  0.00    -0.170 N 
ATOM      3  H7  UNL     1      -0.111  -7.455   2.080  1.00  0.00     0.186 HD
HETATM    4  C4  UNL     1      -0.884  -8.642   3.585  1.00  0.00     0.168 A 
HETATM    5  N8  UNL     1       0.130  -9.293   4.180  1.00  0.00    -0.335 N 
ATOM      6  H8  UNL     1       1.112  -9.203   3.918  1.00  0.00     0.168 HD
HETATM    7  C5  UNL     1      -0.332 -10.078   5.166  1.00  0.00     0.183 A 
HETATM    8  N9  UNL     1      -1.674  -9.936   5.216  1.00  0.00    -0.334 N 
ATOM      9  H9  UNL     1      -2.307 -10.405   5.863  1.00  0.00     0.168 HD
HETATM   10  C6  UNL     1      -2.027  -9.052   4.244  1.00  0.00     0.167 A 
HETATM   11  N10 UNL     1      -3.195  -8.532   3.825  1.00  0.00    -0.268 N 
ATOM     12  H10 UNL     1      -4.058  -8.813   4.290  1.00  0.00     0.189 HD
HETATM   13  N11 UNL     1      -3.254  -7.655   2.814  1.00  0.00    -0.129 N 
ATOM     14  H11 UNL     1      -4.161  -7.285   2.529  1.00  0.00     0.205 HD
ENDROOT
BRANCH   1  15
HETATM   15  N6  UNL     1      -2.293  -6.403   1.204  1.00  0.00    -0.130 N 
ATOM     16  H6  UNL     1      -3.177  -5.900   1.129  1.00  0.00     0.205 HD
BRANCH  15  17
HETATM   17  N5  UNL     1      -1.308  -6.142   0.270  1.00  0.00    -0.281 N 
ATOM     18  H5  UNL     1      -1.113  -6.814  -0.472  1.00  0.00     0.188 HD
BRANCH  17  19
HETATM   19  C2  UNL     1      -0.571  -4.938   0.351  1.00  0.00     0.214 C 
BRANCH  19  20
HETATM   20  N4  UNL     1       0.497  -4.897   1.062  1.00  0.00    -0.293 N 
ATOM     21  H4  UNL     1       1.326  -5.414   0.770  1.00  0.00     0.187 HD
BRANCH  20  22
HETATM   22  N3  UNL     1       0.522  -4.147   2.231  1.00  0.00    -0.273 N 
HETATM   23  C1  UNL     1       1.000  -4.715   3.433  1.00  0.00     0.200 C 
HETATM   24  N1  UNL     1       2.257  -4.682   3.724  1.00  0.00    -0.372 N 
HETATM   25  N2  UNL     1       0.095  -5.334   4.341  1.00  0.00    -0.062 NA
ATOM     26  H12 UNL     1       2.602  -5.092   4.591  1.00  0.00     0.158 HD
ATOM     27  H11 UNL     1       2.905  -4.239   3.074  1.00  0.00     0.158 HD
ATOM     28  H3  UNL     1       0.194  -3.181   2.221  1.00  0.00     0.189 HD
ENDBRANCH  20  22
ENDBRANCH  19  20
ENDBRANCH  17  19
ENDBRANCH  15  17
ENDBRANCH   1  15
TORSDOF 5
ENDMDL
MODEL 3
REMARK VINA RESULT: -6.408099501      1.634      2.616
REMARK  5 active torsions:
REMARK  status: ('A' for Active; 'I' for Inactive)
REMARK       I    between atoms: N1_1  and  C1_4 
REMARK       I    between atoms: C1_4  and  N3_6 
REMARK    1  A    between atoms: N3_6  and  N4_8 
REMARK    2  A    between atoms: N4_8  and  C2_10 
REMARK    3  A    between atoms: C2_10  and  N5_11 
REMARK    4  A    between atoms: N5_11  and  N6_13 
REMARK    5  A    between atoms: N6_13  and  C3_15 
ROOT
HETATM    1  C3  UNL     1      -1.631  -6.223   0.829  1.00  0.00     0.713 A 
HETATM    2  N7  UNL     1      -2.214  -6.957   1.795  1.00  0.00    -0.170 N 
ATOM      3  H7  UNL     1      -2.274  -6.586   2.743  1.00  0.00     0.186 HD
HETATM    4  C4  UNL     1      -2.727  -8.192   1.522  1.00  0.00     0.168 A 
HETATM    5  N8  UNL     1      -3.348  -9.128   2.259  1.00  0.00    -0.335 N 
ATOM      6  H8  UNL     1      -3.554  -9.042   3.255  1.00  0.00     0.168 HD
HETATM    7  C5  UNL     1      -3.659 -10.191   1.501  1.00  0.00     0.183 A 
HETATM    8  N9  UNL     1      -3.233  -9.943   0.244  1.00  0.00    -0.334 N 
ATOM      9  H9  UNL     1      -3.327 -10.565  -0.559  1.00  0.00     0.168 HD
HETATM   10  C6  UNL     1      -2.655  -8.712   0.245  1.00  0.00     0.167 A 
HETATM   11  N10 UNL     1      -2.065  -7.949  -0.694  1.00  0.00    -0.268 N 
ATOM     12  H10 UNL     1      -1.996  -8.302  -1.648  1.00  0.00     0.189 HD
HETATM   13  N11 UNL     1      -1.568  -6.739  -0.409  1.00  0.00    -0.129 N 
ATOM     14  H11 UNL     1      -1.129  -6.194  -1.152  1.00  0.00     0.205 HD
ENDROOT
BRANCH   1  15
HETATM   15  N6  UNL     1      -1.129  -5.051   1.021  1.00  0.00    -0.130 N 
ATOM     16  H6  UNL     1      -0.449  -4.700   0.347  1.00  0.00     0.205 HD
BRANCH  15  17
HETATM   17  N5  UNL     1      -1.465  -4.248   2.094  1.00  0.00    -0.281 N 
ATOM     18  H5  UNL     1      -2.386  -3.812   2.141  1.00  0.00     0.188 HD
BRANCH  17  19
HETATM   19  C2  UNL     1      -0.523  -4.032   3.126  1.00  0.00     0.214 C 
BRANCH  19  20
HETATM   20  N4  UNL     1       0.729  -3.993   2.841  1.00  0.00    -0.293 N 
ATOM     21  H4  UNL     1       1.098  -3.239   2.262  1.00  0.00     0.187 HD
BRANCH  20  22
HETATM   22  N3  UNL     1       1.579  -4.980   3.322  1.00  0.00    -0.273 N 
HETATM   23  C1  UNL     1       1.578  -6.268   2.740  1.00  0.00     0.200 C 
HETATM   24  N1  UNL     1       2.320  -6.529   1.717  1.00  0.00    -0.372 N 
HETATM   25  N2  UNL     1       0.754  -7.296   3.279  1.00  0.00    -0.062 NA
ATOM     26  H12 UNL     1       2.319  -7.458   1.298  1.00  0.00     0.158 HD
ATOM     27  H11 UNL     1       2.910  -5.793   1.331  1.00  0.00     0.158 HD
ATOM     28  H3  UNL     1       2.207  -4.774   4.100  1.00  0.00     0.189 HD
ENDBRANCH  20  22
ENDBRANCH  19  20
ENDBRANCH  17  19
ENDBRANCH  15  17
ENDBRANCH   1  15
TORSDOF 5
ENDMDL
MODEL 4
REMARK VINA RESULT: -6.392090556      1.097      1.308
REMARK  5 active torsions:
REMARK  status: ('A' for Active; 'I' for Inactive)
REMARK       I    between atoms: N1_1  and  C1_4 
REMARK       I    between atoms: C1_4  and  N3_6 
REMARK    1  A    between atoms: N3_6  and  N4_8 
REMARK    2  A    between atoms: N4_8  and  C2_10 
REMARK    3  A    between atoms: C2_10  and  N5_11 
REMARK    4  A    between atoms: N5_11  and  N6_13 
REMARK    5  A    between atoms: N6_13  and  C3_15 
ROOT
HETATM    1  C3  UNL     1      -2.366  -7.404   1.894  1.00  0.00     0.713 A 
HETATM    2  N7  UNL     1      -3.066  -8.553   1.833  1.00  0.00    -0.170 N 
ATOM      3  H7  UNL     1      -3.632  -8.754   1.010  1.00  0.00     0.186 HD
HETATM    4  C4  UNL     1      -3.027  -9.450   2.861  1.00  0.00     0.168 A 
HETATM    5  N8  UNL     1      -3.603 -10.644   3.077  1.00  0.00    -0.335 N 
ATOM      6  H8  UNL     1      -4.231 -11.114   2.425  1.00  0.00     0.168 HD
HETATM    7  C5  UNL     1      -3.234 -11.131   4.273  1.00  0.00     0.183 A 
HETATM    8  N9  UNL     1      -2.402 -10.236   4.847  1.00  0.00    -0.334 N 
ATOM      9  H9  UNL     1      -1.956 -10.326   5.760  1.00  0.00     0.168 HD
HETATM   10  C6  UNL     1      -2.267  -9.194   3.984  1.00  0.00     0.167 A 
HETATM   11  N10 UNL     1      -1.581  -8.036   4.008  1.00  0.00    -0.268 N 
ATOM     12  H10 UNL     1      -1.009  -7.815   4.823  1.00  0.00     0.189 HD
HETATM   13  N11 UNL     1      -1.630  -7.166   2.991  1.00  0.00    -0.129 N 
ATOM     14  H11 UNL     1      -1.094  -6.300   3.052  1.00  0.00     0.205 HD
ENDROOT
BRANCH   1  15
HETATM   15  N6  UNL     1      -2.359  -6.516   0.959  1.00  0.00    -0.130 N 
ATOM     16  H6  UNL     1      -3.219  -5.998   0.777  1.00  0.00     0.205 HD
BRANCH  15  17
HETATM   17  N5  UNL     1      -1.247  -6.231   0.191  1.00  0.00    -0.281 N 
ATOM     18  H5  UNL     1      -0.913  -6.904  -0.499  1.00  0.00     0.188 HD
BRANCH  17  19
HETATM   19  C2  UNL     1      -0.573  -5.001   0.367  1.00  0.00     0.214 C 
BRANCH  19  20
HETATM   20  N4  UNL     1       0.494  -4.961   1.080  1.00  0.00    -0.293 N 
ATOM     21  H4  UNL     1       1.314  -5.503   0.804  1.00  0.00     0.187 HD
BRANCH  20  22
HETATM   22  N3  UNL     1       0.532  -4.180   2.228  1.00  0.00    -0.273 N 
HETATM   23  C1  UNL     1       1.027  -4.716   3.439  1.00  0.00     0.200 C 
HETATM   24  N1  UNL     1       2.287  -4.671   3.712  1.00  0.00    -0.372 N 
HETATM   25  N2  UNL     1       0.135  -5.313   4.374  1.00  0.00    -0.062 NA
ATOM     26  H12 UNL     1       2.644  -5.057   4.586  1.00  0.00     0.158 HD
ATOM     27  H11 UNL     1       2.926  -4.244   3.042  1.00  0.00     0.158 HD
ATOM     28  H3  UNL     1       0.201  -3.216   2.197  1.00  0.00     0.189 HD
ENDBRANCH  20  22
ENDBRANCH  19  20
ENDBRANCH  17  19
ENDBRANCH  15  17
ENDBRANCH   1  15
TORSDOF 5
ENDMDL
MODEL 5
REMARK VINA RESULT: -6.388314709      1.443      2.712
REMARK  5 active torsions:
REMARK  status: ('A' for Active; 'I' for Inactive)
REMARK       I    between atoms: N1_1  and  C1_4 
REMARK       I    between atoms: C1_4  and  N3_6 
REMARK    1  A    between atoms: N3_6  and  N4_8 
REMARK    2  A    between atoms: N4_8  and  C2_10 
REMARK    3  A    between atoms: C2_10  and  N5_11 
REMARK    4  A    between atoms: N5_11  and  N6_13 
REMARK    5  A    between atoms: N6_13  and  C3_15 
ROOT
HETATM    1  C3  UNL     1      -1.300  -6.226   0.278  1.00  0.00     0.713 A 
HETATM    2  N7  UNL     1      -1.862  -6.791   1.363  1.00  0.00    -0.170 N 
ATOM      3  H7  UNL     1      -1.797  -6.322   2.266  1.00  0.00     0.186 HD
HETATM    4  C4  UNL     1      -2.518  -7.984   1.270  1.00  0.00     0.168 A 
HETATM    5  N8  UNL     1      -3.159  -8.766   2.153  1.00  0.00    -0.335 N 
ATOM      6  H8  UNL     1      -3.263  -8.559   3.147  1.00  0.00     0.168 HD
HETATM    7  C5  UNL     1      -3.644  -9.860   1.543  1.00  0.00     0.183 A 
HETATM    8  N9  UNL     1      -3.313  -9.788   0.236  1.00  0.00    -0.334 N 
ATOM      9  H9  UNL     1      -3.542 -10.474  -0.483  1.00  0.00     0.168 HD
HETATM   10  C6  UNL     1      -2.617  -8.634   0.055  1.00  0.00     0.167 A 
HETATM   11  N10 UNL     1      -2.043  -8.038  -1.006  1.00  0.00    -0.268 N 
ATOM     12  H10 UNL     1      -2.097  -8.491  -1.918  1.00  0.00     0.189 HD
HETATM   13  N11 UNL     1      -1.403  -6.867  -0.897  1.00  0.00    -0.129 N 
ATOM     14  H11 UNL     1      -0.982  -6.451  -1.728  1.00  0.00     0.205 HD
ENDROOT
BRANCH   1  15
HETATM   15  N6  UNL     1      -0.667  -5.103   0.299  1.00  0.00    -0.130 N 
ATOM     16  H6  UNL     1      -1.181  -4.253   0.065  1.00  0.00     0.205 HD
BRANCH  15  17
HETATM   17  N5  UNL     1       0.672  -4.991   0.623  1.00  0.00    -0.281 N 
ATOM     18  H5  UNL     1       1.226  -4.217   0.256  1.00  0.00     0.188 HD
BRANCH  17  19
HETATM   19  C2  UNL     1       1.268  -5.956   1.465  1.00  0.00     0.214 C 
BRANCH  19  20
HETATM   20  N4  UNL     1       2.000  -5.572   2.448  1.00  0.00    -0.293 N 
ATOM     21  H4  UNL     1       2.996  -5.794   2.462  1.00  0.00     0.187 HD
BRANCH  20  22
HETATM   22  N3  UNL     1       1.433  -4.854   3.493  1.00  0.00    -0.273 N 
HETATM   23  C1  UNL     1       0.029  -4.806   3.647  1.00  0.00     0.200 C 
HETATM   24  N1  UNL     1      -0.592  -5.718   4.316  1.00  0.00    -0.372 N 
HETATM   25  N2  UNL     1      -0.719  -3.746   3.061  1.00  0.00    -0.062 NA
ATOM     26  H12 UNL     1      -1.605  -5.684   4.427  1.00  0.00     0.158 HD
ATOM     27  H11 UNL     1      -0.056  -6.478   4.735  1.00  0.00     0.158 HD
ATOM     28  H3  UNL     1       2.033  -4.358   4.153  1.00  0.00     0.189 HD
ENDBRANCH  20  22
ENDBRANCH  19  20
ENDBRANCH  17  19
ENDBRANCH  15  17
ENDBRANCH   1  15
TORSDOF 5
ENDMDL
