MODEL 1
REMARK VINA RESULT: -6.382258530      0.000      0.000
REMARK  4 active torsions:
REMARK  status: ('A' for Active; 'I' for Inactive)
REMARK    1  A    between atoms: N1_1  and  C1_4 
REMARK    2  A    between atoms: C4_9  and  N3_10 
REMARK    3  A    between atoms: C6_14  and  C7_15 
REMARK       I    between atoms: C7_15  and  N5_17 
REMARK    4  A    between atoms: N5_17  and  N6_19 
ROOT
HETATM    1  N3  UNL     1      -1.462  -8.011   2.453  1.00  0.00    -0.203 N 
HETATM    2  N4  UNL     1      -1.152  -9.061   3.188  1.00  0.00    -0.300 N 
ATOM      3  H4  UNL     1      -0.349  -9.109   3.816  1.00  0.00     0.186 HD
HETATM    4  C5  UNL     1      -2.043 -10.070   3.000  1.00  0.00     0.130 A 
HETATM    5  C6  UNL     1      -2.967  -9.617   2.088  1.00  0.00     0.120 A 
HETATM    6  C8  UNL     1      -2.586  -8.339   1.763  1.00  0.00     0.285 A 
HETATM    7  O2  UNL     1      -3.183  -7.576   0.950  1.00  0.00    -0.265 OA
ENDROOT
BRANCH   1   8
HETATM    8  C4  UNL     1      -0.727  -6.795   2.425  1.00  0.00     0.147 A 
HETATM    9  C3  UNL     1      -0.415  -6.217   3.635  1.00  0.00     0.068 A 
HETATM   10  C2  UNL     1       0.302  -5.031   3.634  1.00  0.00     0.110 A 
HETATM   11  N2  UNL     1       0.672  -4.476   2.467  1.00  0.00    -0.202 N 
HETATM   12  C1  UNL     1       0.375  -5.030   1.280  1.00  0.00     0.677 A 
ATOM     13  H2  UNL     1       1.199  -3.603   2.483  1.00  0.00     0.183 HD
HETATM   14  N7  UNL     1      -0.329  -6.195   1.292  1.00  0.00    -0.175 N 
ATOM     15  H7  UNL     1      -0.564  -6.632   0.402  1.00  0.00     0.186 HD
BRANCH  12  16
HETATM   16  N1  UNL     1       0.734  -4.492   0.157  1.00  0.00    -0.234 N 
ATOM     17  H12 UNL     1       1.714  -4.490  -0.126  1.00  0.00     0.174 HD
ATOM     18  H11 UNL     1       0.064  -4.057  -0.478  1.00  0.00     0.174 HD
ENDBRANCH  12  16
ENDBRANCH   1   8
BRANCH   5  19
HETATM   19  C7  UNL     1      -4.108 -10.378   1.593  1.00  0.00     0.276 C 
HETATM   20  O1  UNL     1      -4.833 -11.058   2.392  1.00  0.00    -0.266 OA
HETATM   21  N5  UNL     1      -4.427 -10.375   0.227  1.00  0.00    -0.272 N 
ATOM     22  H5  UNL     1      -3.862  -9.839  -0.431  1.00  0.00     0.189 HD
BRANCH  21  23
HETATM   23  N6  UNL     1      -5.522 -11.110  -0.224  1.00  0.00    -0.342 N 
ATOM     24  H62 UNL     1      -5.436 -11.656  -1.081  1.00  0.00     0.176 HD
ATOM     25  H61 UNL     1      -6.393 -11.091   0.306  1.00  0.00     0.176 HD
ENDBRANCH  21  23
ENDBRANCH   5  19
TORSDOF 4
ENDMDL
MODEL 2
REMARK VINA RESULT: -6.280255102      1.368      1.684
REMARK  4 active torsions:
REMARK  status: ('A' for Active; 'I' for Inactive)
REMARK    1  A    between atoms: N1_1  and  C1_4 
REMARK    2  A    between atoms: C4_9  and  N3_10 
REMARK    3  A    between atoms: C6_14  and  C7_15 
REMARK       I    between atoms: C7_15  and  N5_17 
REMARK    4  A    between atoms: N5_17  and  N6_19 
ROOT
HETATM    1  N3  UNL     1      -1.988  -7.975   1.914  1.00  0.00    -0.203 N 
HETATM    2  N4  UNL     1      -2.595  -8.146   3.073  1.00  0.00    -0.300 N 
ATOM      3  H4  UNL     1      -2.411  -7.590   3.908  1.00  0.00     0.186 HD
HETATM    4  C5  UNL     1      -3.498  -9.160   3.007  1.00  0.00     0.130 A 
HETATM    5  C6  UNL     1      -3.449  -9.651   1.723  1.00  0.00     0.120 A 
HETATM    6  C8  UNL     1      -2.506  -8.901   1.065  1.00  0.00     0.285 A 
HETATM    7  O2  UNL     1      -2.166  -9.041  -0.146  1.00  0.00    -0.265 OA
ENDROOT
BRANCH   1   8
HETATM    8  C4  UNL     1      -0.991  -6.995   1.658  1.00  0.00     0.147 A 
HETATM    9  C3  UNL     1      -1.391  -5.834   1.033  1.00  0.00     0.068 A 
HETATM   10  C2  UNL     1      -0.437  -4.863   0.773  1.00  0.00     0.110 A 
HETATM   11  N2  UNL     1       0.842  -5.072   1.131  1.00  0.00    -0.202 N 
HETATM   12  C1  UNL     1       1.245  -6.199   1.741  1.00  0.00     0.677 A 
ATOM     13  H2  UNL     1       1.532  -4.347   0.932  1.00  0.00     0.183 HD
HETATM   14  N7  UNL     1       0.300  -7.146   1.993  1.00  0.00    -0.175 N 
ATOM     15  H7  UNL     1       0.585  -8.008   2.456  1.00  0.00     0.186 HD
BRANCH  12  16
HETATM   16  N1  UNL     1       2.479  -6.396   2.084  1.00  0.00    -0.234 N 
ATOM     17  H12 UNL     1       3.178  -5.667   1.940  1.00  0.00     0.174 HD
ATOM     18  H11 UNL     1       2.795  -7.270   2.504  1.00  0.00     0.174 HD
ENDBRANCH  12  16
ENDBRANCH   1   8
BRANCH   5  19
HETATM   19  C7  UNL     1      -4.256 -10.750   1.208  1.00  0.00     0.276 C 
HETATM   20  O1  UNL     1      -4.371 -11.837   1.865  1.00  0.00    -0.266 OA
HETATM   21  N5  UNL     1      -4.920 -10.630  -0.022  1.00  0.00    -0.272 N 
ATOM     22  H5  UNL     1      -4.843  -9.771  -0.566  1.00  0.00     0.189 HD
BRANCH  21  23
HETATM   23  N6  UNL     1      -5.686 -11.693  -0.496  1.00  0.00    -0.342 N 
ATOM     24  H62 UNL     1      -5.740 -12.551   0.053  1.00  0.00     0.176 HD
ATOM     25  H61 UNL     1      -6.182 -11.600  -1.383  1.00  0.00     0.176 HD
ENDBRANCH  21  23
ENDBRANCH   5  19
TORSDOF 4
ENDMDL
MODEL 3
REMARK VINA RESULT: -6.165436125      1.241      1.321
REMARK  4 active torsions:
REMARK  status: ('A' for Active; 'I' for Inactive)
REMARK    1  A    between atoms: N1_1  and  C1_4 
REMARK    2  A    between atoms: C4_9  and  N3_10 
REMARK    3  A    between atoms: C6_14  and  C7_15 
REMARK       I    between atoms: C7_15  and  N5_17 
REMARK    4  A    between atoms: N5_17  and  N6_19 
ROOT
HETATM    1  N3  UNL     1      -1.574  -8.291   2.350  1.00  0.00    -0.203 N 
HETATM    2  N4  UNL     1      -2.185  -8.399   3.513  1.00  0.00    -0.300 N 
ATOM      3  H4  UNL     1      -1.882  -7.934   4.369  1.00  0.00     0.186 HD
HETATM    4  C5  UNL     1      -3.271  -9.212   3.422  1.00  0.00     0.130 A 
HETATM    5  C6  UNL     1      -3.339  -9.635   2.115  1.00  0.00     0.120 A 
HETATM    6  C8  UNL     1      -2.277  -9.052   1.470  1.00  0.00     0.285 A 
HETATM    7  O2  UNL     1      -1.989  -9.193   0.246  1.00  0.00    -0.265 OA
ENDROOT
BRANCH   1   8
HETATM    8  C4  UNL     1      -0.407  -7.513   2.116  1.00  0.00     0.147 A 
HETATM    9  C3  UNL     1       0.764  -7.939   2.701  1.00  0.00     0.068 A 
HETATM   10  C2  UNL     1       1.916  -7.197   2.488  1.00  0.00     0.110 A 
HETATM   11  N2  UNL     1       1.865  -6.092   1.724  1.00  0.00    -0.202 N 
HETATM   12  C1  UNL     1       0.729  -5.666   1.148  1.00  0.00     0.677 A 
ATOM     13  H2  UNL     1       2.721  -5.557   1.577  1.00  0.00     0.183 HD
HETATM   14  N7  UNL     1      -0.395  -6.402   1.363  1.00  0.00    -0.175 N 
ATOM     15  H7  UNL     1      -1.268  -6.096   0.934  1.00  0.00     0.186 HD
BRANCH  12  16
HETATM   16  N1  UNL     1       0.685  -4.599   0.413  1.00  0.00    -0.234 N 
ATOM     17  H12 UNL     1      -0.206  -4.255   0.055  1.00  0.00     0.174 HD
ATOM     18  H11 UNL     1       1.523  -4.072   0.167  1.00  0.00     0.174 HD
ENDBRANCH  12  16
ENDBRANCH   1   8
BRANCH   5  19
HETATM   19  C7  UNL     1      -4.354 -10.527   1.569  1.00  0.00     0.276 C 
HETATM   20  O1  UNL     1      -5.018 -11.303   2.332  1.00  0.00    -0.266 OA
HETATM   21  N5  UNL     1      -4.618 -10.545   0.191  1.00  0.00    -0.272 N 
ATOM     22  H5  UNL     1      -4.101  -9.934  -0.440  1.00  0.00     0.189 HD
BRANCH  21  23
HETATM   23  N6  UNL     1      -5.593 -11.406  -0.310  1.00  0.00    -0.342 N 
ATOM     24  H62 UNL     1      -6.500 -11.027  -0.581  1.00  0.00     0.176 HD
ATOM     25  H61 UNL     1      -5.388 -12.401  -0.399  1.00  0.00     0.176 HD
ENDBRANCH  21  23
ENDBRANCH   5  19
TORSDOF 4
ENDMDL
MODEL 4
REMARK VINA RESULT: -6.089947471      1.924      2.370
REMARK  4 active torsions:
REMARK  status: ('A' for Active; 'I' for Inactive)
REMARK    1  A    between atoms: N1_1  and  C1_4 
REMARK    2  A    between atoms: C4_9  and  N3_10 
REMARK    3  A    between atoms: C6_14  and  C7_15 
REMARK       I    between atoms: C7_15  and  N5_17 
REMARK    4  A    between atoms: N5_17  and  N6_19 
ROOT
HETATM    1  N3  UNL     1      -0.877  -7.195   1.318  1.00  0.00    -0.203 N 
HETATM    2  N4  UNL     1      -1.232  -7.022   0.059  1.00  0.00    -0.300 N 
ATOM      3  H4  UNL     1      -0.843  -6.308  -0.557  1.00  0.00     0.186 HD
HETATM    4  C5  UNL     1      -2.184  -7.920  -0.308  1.00  0.00     0.130 A 
HETATM    5  C6  UNL     1      -2.436  -8.703   0.794  1.00  0.00     0.120 A 
HETATM    6  C8  UNL     1      -1.615  -8.234   1.790  1.00  0.00     0.285 A 
HETATM    7  O2  UNL     1      -1.547  -8.693   2.967  1.00  0.00    -0.265 OA
ENDROOT
BRANCH   1   8
HETATM    8  C4  UNL     1       0.096  -6.415   2.000  1.00  0.00     0.147 A 
HETATM    9  C3  UNL     1      -0.354  -5.330   2.720  1.00  0.00     0.068 A 
HETATM   10  C2  UNL     1       0.576  -4.555   3.394  1.00  0.00     0.110 A 
HETATM   11  N2  UNL     1       1.881  -4.873   3.331  1.00  0.00    -0.202 N 
HETATM   12  C1  UNL     1       2.333  -5.927   2.633  1.00  0.00     0.677 A 
ATOM     13  H2  UNL     1       2.553  -4.292   3.833  1.00  0.00     0.183 HD
HETATM   14  N7  UNL     1       1.411  -6.683   1.975  1.00  0.00    -0.175 N 
ATOM     15  H7  UNL     1       1.734  -7.489   1.440  1.00  0.00     0.186 HD
BRANCH  12  16
HETATM   16  N1  UNL     1       3.592  -6.230   2.575  1.00  0.00    -0.234 N 
ATOM     17  H12 UNL     1       4.124  -6.393   3.430  1.00  0.00     0.174 HD
ATOM     18  H11 UNL     1       4.091  -6.316   1.690  1.00  0.00     0.174 HD
ENDBRANCH  12  16
ENDBRANCH   1   8
BRANCH   5  19
HETATM   19  C7  UNL     1      -3.394  -9.800   0.849  1.00  0.00     0.276 C 
HETATM   20  O1  UNL     1      -4.369  -9.855   0.029  1.00  0.00    -0.266 OA
HETATM   21  N5  UNL     1      -3.259 -10.815   1.808  1.00  0.00    -0.272 N 
ATOM     22  H5  UNL     1      -2.487 -10.793   2.475  1.00  0.00     0.189 HD
BRANCH  21  23
HETATM   23  N6  UNL     1      -4.186 -11.855   1.843  1.00  0.00    -0.342 N 
ATOM     24  H62 UNL     1      -4.041 -12.672   1.251  1.00  0.00     0.176 HD
ATOM     25  H61 UNL     1      -4.997 -11.785   2.459  1.00  0.00     0.176 HD
ENDBRANCH  21  23
ENDBRANCH   5  19
TORSDOF 4
ENDMDL
MODEL 5
REMARK VINA RESULT: -6.052714806      1.139      1.139
REMARK  4 active torsions:
REMARK  status: ('A' for Active; 'I' for Inactive)
REMARK    1  A    between atoms: N1_1  and  C1_4 
REMARK    2  A    between atoms: C4_9  and  N3_10 
REMARK    3  A    between atoms: C6_14  and  C7_15 
REMARK       I    between atoms: C7_15  and  N5_17 
REMARK    4  A    between atoms: N5_17  and  N6_19 
ROOT
HETATM    1  N3  UNL     1      -1.786  -7.696   2.599  1.00  0.00    -0.203 N 
HETATM    2  N4  UNL     1      -2.274  -8.191   3.719  1.00  0.00    -0.300 N 
ATOM      3  H4  UNL     1      -2.046  -7.844   4.651  1.00  0.00     0.186 HD
HETATM    4  C5  UNL     1      -3.121  -9.225   3.468  1.00  0.00     0.130 A 
HETATM    5  C6  UNL     1      -3.161  -9.381   2.103  1.00  0.00     0.120 A 
HETATM    6  C8  UNL     1      -2.326  -8.422   1.585  1.00  0.00     0.285 A 
HETATM    7  O2  UNL     1      -2.089  -8.235   0.357  1.00  0.00    -0.265 OA
ENDROOT
BRANCH   1   8
HETATM    8  C4  UNL     1      -0.873  -6.609   2.524  1.00  0.00     0.147 A 
HETATM    9  C3  UNL     1      -0.376  -6.117   3.710  1.00  0.00     0.068 A 
HETATM   10  C2  UNL     1       0.516  -5.057   3.663  1.00  0.00     0.110 A 
HETATM   11  N2  UNL     1       0.872  -4.538   2.475  1.00  0.00    -0.202 N 
HETATM   12  C1  UNL     1       0.394  -5.007   1.311  1.00  0.00     0.677 A 
ATOM     13  H2  UNL     1       1.529  -3.758   2.457  1.00  0.00     0.183 HD
HETATM   14  N7  UNL     1      -0.480  -6.049   1.369  1.00  0.00    -0.175 N 
ATOM     15  H7  UNL     1      -0.854  -6.421   0.496  1.00  0.00     0.186 HD
BRANCH  12  16
HETATM   16  N1  UNL     1       0.740  -4.503   0.168  1.00  0.00    -0.234 N 
ATOM     17  H12 UNL     1       0.472  -3.551  -0.079  1.00  0.00     0.174 HD
ATOM     18  H11 UNL     1       1.282  -5.029  -0.517  1.00  0.00     0.174 HD
ENDBRANCH  12  16
ENDBRANCH   1   8
BRANCH   5  19
HETATM   19  C7  UNL     1      -3.948 -10.380   1.390  1.00  0.00     0.276 C 
HETATM   20  O1  UNL     1      -4.484 -10.106   0.266  1.00  0.00    -0.266 OA
HETATM   21  N5  UNL     1      -4.130 -11.661   1.931  1.00  0.00    -0.272 N 
ATOM     22  H5  UNL     1      -3.711 -11.905   2.828  1.00  0.00     0.189 HD
BRANCH  21  23
HETATM   23  N6  UNL     1      -4.886 -12.601   1.233  1.00  0.00    -0.342 N 
ATOM     24  H62 UNL     1      -5.073 -12.453   0.242  1.00  0.00     0.176 HD
ATOM     25  H61 UNL     1      -5.244 -13.422   1.721  1.00  0.00     0.176 HD
ENDBRANCH  21  23
ENDBRANCH   5  19
TORSDOF 4
ENDMDL
