MODEL 1
REMARK VINA RESULT: -6.040772913      0.000      0.000
REMARK  3 active torsions:
REMARK  status: ('A' for Active; 'I' for Inactive)
REMARK    1  A    between atoms: C1_4  and  C2_5 
REMARK       I    between atoms: C2_5  and  N2_7 
REMARK    2  A    between atoms: N2_7  and  N3_9 
REMARK    3  A    between atoms: C3_11  and  C4_12 
ROOT
HETATM    1  C4  UNL     1      -2.964  -9.280   2.017  1.00  0.00     0.090 A 
HETATM    2  C5  UNL     1      -3.243  -9.680   0.729  1.00  0.00     0.137 A 
HETATM    3  N4  UNL     1      -2.466  -9.236  -0.356  1.00  0.00    -0.081 NA
HETATM    4  N5  UNL     1      -4.270 -10.506   0.483  1.00  0.00    -0.296 N 
ATOM      5  H5  UNL     1      -4.470 -10.797  -0.474  1.00  0.00     0.171 HD
HETATM    6  C6  UNL     1      -5.047 -10.958   1.502  1.00  0.00     0.328 A 
HETATM    7  O2  UNL     1      -6.014 -11.739   1.256  1.00  0.00    -0.247 OA
HETATM    8  N6  UNL     1      -4.795 -10.583   2.766  1.00  0.00    -0.275 N 
ATOM      9  H6  UNL     1      -5.380 -10.925   3.528  1.00  0.00     0.173 HD
HETATM   10  C7  UNL     1      -3.774  -9.760   3.018  1.00  0.00     0.264 A 
HETATM   11  O3  UNL     1      -3.552  -9.415   4.224  1.00  0.00    -0.267 OA
ENDROOT
BRANCH   1  12
HETATM   12  C3  UNL     1      -1.847  -8.376   2.319  1.00  0.00     0.127 C 
HETATM   13  N3  UNL     1      -2.112  -7.266   2.900  1.00  0.00    -0.308 N 
ATOM     14  H3  UNL     1      -3.081  -7.050   3.131  1.00  0.00     0.186 HD
BRANCH  13  15
HETATM   15  N2  UNL     1      -1.122  -6.343   3.226  1.00  0.00    -0.266 N 
HETATM   16  C2  UNL     1      -0.977  -5.161   2.466  1.00  0.00     0.274 C 
HETATM   17  O1  UNL     1      -1.744  -4.927   1.481  1.00  0.00    -0.265 OA
ATOM     18  H2  UNL     1      -0.500  -6.522   4.015  1.00  0.00     0.190 HD
BRANCH  16  19
HETATM   19  C1  UNL     1       0.047  -4.173   2.776  1.00  0.00     0.157 C 
HETATM   20  N1  UNL     1       1.193  -4.610   3.168  1.00  0.00    -0.404 N 
ATOM     21  H12 UNL     1       1.362  -5.612   3.253  1.00  0.00     0.155 HD
ATOM     22  H11 UNL     1       1.910  -3.917   3.385  1.00  0.00     0.155 HD
ENDBRANCH  16  19
ENDBRANCH  13  15
ENDBRANCH   1  12
TORSDOF 3
ENDMDL
MODEL 2
REMARK VINA RESULT: -5.954087286      1.910      6.177
REMARK  3 active torsions:
REMARK  status: ('A' for Active; 'I' for Inactive)
REMARK    1  A    between atoms: C1_4  and  C2_5 
REMARK       I    between atoms: C2_5  and  N2_7 
REMARK    2  A    between atoms: N2_7  and  N3_9 
REMARK    3  A    between atoms: C3_11  and  C4_12 
ROOT
HETATM    1  C4  UNL     1      -1.683  -7.246   2.662  1.00  0.00     0.090 A 
HETATM    2  C5  UNL     1      -2.068  -6.303   1.734  1.00  0.00     0.137 A 
HETATM    3  N4  UNL     1      -2.969  -6.621   0.703  1.00  0.00    -0.081 NA
HETATM    4  N5  UNL     1      -1.586  -5.053   1.799  1.00  0.00    -0.296 N 
ATOM      5  H5  UNL     1      -1.876  -4.361   1.108  1.00  0.00     0.171 HD
HETATM    6  C6  UNL     1      -0.713  -4.703   2.779  1.00  0.00     0.328 A 
HETATM    7  O2  UNL     1      -0.265  -3.519   2.829  1.00  0.00    -0.247 OA
HETATM    8  N6  UNL     1      -0.323  -5.604   3.694  1.00  0.00    -0.275 N 
ATOM      9  H6  UNL     1       0.333  -5.339   4.429  1.00  0.00     0.173 HD
HETATM   10  C7  UNL     1      -0.798  -6.852   3.636  1.00  0.00     0.264 A 
HETATM   11  O3  UNL     1      -0.415  -7.692   4.514  1.00  0.00    -0.267 OA
ENDROOT
BRANCH   1  12
HETATM   12  C3  UNL     1      -2.192  -8.623   2.618  1.00  0.00     0.127 C 
HETATM   13  N3  UNL     1      -3.444  -8.808   2.815  1.00  0.00    -0.308 N 
ATOM     14  H3  UNL     1      -4.039  -7.999   2.995  1.00  0.00     0.186 HD
BRANCH  13  15
HETATM   15  N2  UNL     1      -4.020 -10.075   2.794  1.00  0.00    -0.266 N 
HETATM   16  C2  UNL     1      -4.478 -10.624   1.575  1.00  0.00     0.274 C 
HETATM   17  O1  UNL     1      -4.369  -9.972   0.490  1.00  0.00    -0.265 OA
ATOM     18  H2  UNL     1      -4.112 -10.607   3.659  1.00  0.00     0.190 HD
BRANCH  16  19
HETATM   19  C1  UNL     1      -5.087 -11.945   1.512  1.00  0.00     0.157 C 
HETATM   20  N1  UNL     1      -5.631 -12.294   0.398  1.00  0.00    -0.404 N 
ATOM     21  H12 UNL     1      -5.627 -11.659  -0.399  1.00  0.00     0.155 HD
ATOM     22  H11 UNL     1      -6.057 -13.220   0.354  1.00  0.00     0.155 HD
ENDBRANCH  16  19
ENDBRANCH  13  15
ENDBRANCH   1  12
TORSDOF 3
ENDMDL
MODEL 3
REMARK VINA RESULT: -5.902205293      1.295      2.039
REMARK  3 active torsions:
REMARK  status: ('A' for Active; 'I' for Inactive)
REMARK    1  A    between atoms: C1_4  and  C2_5 
REMARK       I    between atoms: C2_5  and  N2_7 
REMARK    2  A    between atoms: N2_7  and  N3_9 
REMARK    3  A    between atoms: C3_11  and  C4_12 
ROOT
HETATM    1  C4  UNL     1      -2.999  -9.310   1.959  1.00  0.00     0.090 A 
HETATM    2  C5  UNL     1      -3.802  -9.780   2.975  1.00  0.00     0.137 A 
HETATM    3  N4  UNL     1      -3.565  -9.424   4.315  1.00  0.00    -0.081 NA
HETATM    4  N5  UNL     1      -4.834 -10.593   2.702  1.00  0.00    -0.296 N 
ATOM      5  H5  UNL     1      -5.423 -10.936   3.461  1.00  0.00     0.171 HD
HETATM    6  C6  UNL     1      -5.098 -10.962   1.422  1.00  0.00     0.328 A 
HETATM    7  O2  UNL     1      -6.075 -11.730   1.178  1.00  0.00    -0.247 OA
HETATM    8  N6  UNL     1      -4.329 -10.518   0.415  1.00  0.00    -0.275 N 
ATOM      9  H6  UNL     1      -4.531 -10.796  -0.545  1.00  0.00     0.173 HD
HETATM   10  C7  UNL     1      -3.300  -9.708   0.679  1.00  0.00     0.264 A 
HETATM   11  O3  UNL     1      -2.583  -9.297  -0.291  1.00  0.00    -0.267 OA
ENDROOT
BRANCH   1  12
HETATM   12  C3  UNL     1      -1.862  -8.419   2.225  1.00  0.00     0.127 C 
HETATM   13  N3  UNL     1      -2.082  -7.342   2.881  1.00  0.00    -0.308 N 
ATOM     14  H3  UNL     1      -3.032  -7.142   3.194  1.00  0.00     0.186 HD
BRANCH  13  15
HETATM   15  N2  UNL     1      -1.070  -6.435   3.182  1.00  0.00    -0.266 N 
HETATM   16  C2  UNL     1      -0.962  -5.228   2.456  1.00  0.00     0.274 C 
HETATM   17  O1  UNL     1      -1.784  -4.957   1.525  1.00  0.00    -0.265 OA
ATOM     18  H2  UNL     1      -0.406  -6.643   3.927  1.00  0.00     0.190 HD
BRANCH  16  19
HETATM   19  C1  UNL     1       0.082  -4.255   2.740  1.00  0.00     0.157 C 
HETATM   20  N1  UNL     1       1.235  -4.709   3.093  1.00  0.00    -0.404 N 
ATOM     21  H12 UNL     1       1.393  -5.713   3.166  1.00  0.00     0.155 HD
ATOM     22  H11 UNL     1       1.967  -4.026   3.292  1.00  0.00     0.155 HD
ENDBRANCH  16  19
ENDBRANCH  13  15
ENDBRANCH   1  12
TORSDOF 3
ENDMDL
MODEL 4
REMARK VINA RESULT: -5.863297995      2.117      6.708
REMARK  3 active torsions:
REMARK  status: ('A' for Active; 'I' for Inactive)
REMARK    1  A    between atoms: C1_4  and  C2_5 
REMARK       I    between atoms: C2_5  and  N2_7 
REMARK    2  A    between atoms: N2_7  and  N3_9 
REMARK    3  A    between atoms: C3_11  and  C4_12 
ROOT
HETATM    1  C4  UNL     1      -2.599  -8.189   0.690  1.00  0.00     0.090 A 
HETATM    2  C5  UNL     1      -2.866  -7.580   1.897  1.00  0.00     0.137 A 
HETATM    3  N4  UNL     1      -3.643  -8.219   2.879  1.00  0.00    -0.081 NA
HETATM    4  N5  UNL     1      -2.386  -6.355   2.158  1.00  0.00    -0.296 N 
ATOM      5  H5  UNL     1      -2.589  -5.911   3.054  1.00  0.00     0.171 HD
HETATM    6  C6  UNL     1      -1.631  -5.702   1.236  1.00  0.00     0.328 A 
HETATM    7  O2  UNL     1      -1.184  -4.545   1.495  1.00  0.00    -0.247 OA
HETATM    8  N6  UNL     1      -1.357  -6.274   0.054  1.00  0.00    -0.275 N 
ATOM      9  H6  UNL     1      -0.790  -5.782  -0.636  1.00  0.00     0.173 HD
HETATM   10  C7  UNL     1      -1.833  -7.494  -0.214  1.00  0.00     0.264 A 
HETATM   11  O3  UNL     1      -1.561  -8.020  -1.342  1.00  0.00    -0.267 OA
ENDROOT
BRANCH   1  12
HETATM   12  C3  UNL     1      -3.110  -9.529   0.373  1.00  0.00     0.127 C 
HETATM   13  N3  UNL     1      -4.374  -9.671   0.227  1.00  0.00    -0.308 N 
ATOM     14  H3  UNL     1      -4.977  -8.856   0.335  1.00  0.00     0.186 HD
BRANCH  13  15
HETATM   15  N2  UNL     1      -4.953 -10.901  -0.073  1.00  0.00    -0.266 N 
HETATM   16  C2  UNL     1      -5.786 -11.541   0.872  1.00  0.00     0.274 C 
HETATM   17  O1  UNL     1      -6.015 -11.005   2.001  1.00  0.00    -0.265 OA
ATOM     18  H2  UNL     1      -4.777 -11.339  -0.977  1.00  0.00     0.190 HD
BRANCH  16  19
HETATM   19  C1  UNL     1      -6.409 -12.827   0.595  1.00  0.00     0.157 C 
HETATM   20  N1  UNL     1      -7.166 -12.908  -0.445  1.00  0.00    -0.404 N 
ATOM     21  H12 UNL     1      -7.313 -12.093  -1.040  1.00  0.00     0.155 HD
ATOM     22  H11 UNL     1      -7.603 -13.809  -0.638  1.00  0.00     0.155 HD
ENDBRANCH  16  19
ENDBRANCH  13  15
ENDBRANCH   1  12
TORSDOF 3
ENDMDL
MODEL 5
REMARK VINA RESULT: -5.804343325      1.972      6.374
REMARK  3 active torsions:
REMARK  status: ('A' for Active; 'I' for Inactive)
REMARK    1  A    between atoms: C1_4  and  C2_5 
REMARK       I    between atoms: C2_5  and  N2_7 
REMARK    2  A    between atoms: N2_7  and  N3_9 
REMARK    3  A    between atoms: C3_11  and  C4_12 
ROOT
HETATM    1  C4  UNL     1      -1.751  -7.258   2.555  1.00  0.00     0.090 A 
HETATM    2  C5  UNL     1      -0.869  -6.929   3.560  1.00  0.00     0.137 A 
HETATM    3  N4  UNL     1      -0.453  -7.884   4.505  1.00  0.00    -0.081 NA
HETATM    4  N5  UNL     1      -0.387  -5.681   3.657  1.00  0.00    -0.296 N 
ATOM      5  H5  UNL     1       0.266  -5.446   4.405  1.00  0.00     0.171 HD
HETATM    6  C6  UNL     1      -0.763  -4.728   2.766  1.00  0.00     0.328 A 
HETATM    7  O2  UNL     1      -0.301  -3.553   2.869  1.00  0.00    -0.247 OA
HETATM    8  N6  UNL     1      -1.622  -5.024   1.777  1.00  0.00    -0.275 N 
ATOM      9  H6  UNL     1      -1.902  -4.306   1.109  1.00  0.00     0.173 HD
HETATM   10  C7  UNL     1      -2.107  -6.265   1.674  1.00  0.00     0.264 A 
HETATM   11  O3  UNL     1      -2.920  -6.525   0.729  1.00  0.00    -0.267 OA
ENDROOT
BRANCH   1  12
HETATM   12  C3  UNL     1      -2.298  -8.615   2.421  1.00  0.00     0.127 C 
HETATM   13  N3  UNL     1      -3.476  -8.835   2.870  1.00  0.00    -0.308 N 
ATOM     14  H3  UNL     1      -3.991  -8.067   3.301  1.00  0.00     0.186 HD
BRANCH  13  15
HETATM   15  N2  UNL     1      -4.079 -10.087   2.790  1.00  0.00    -0.266 N 
HETATM   16  C2  UNL     1      -4.512 -10.587   1.542  1.00  0.00     0.274 C 
HETATM   17  O1  UNL     1      -4.357  -9.903   0.482  1.00  0.00    -0.265 OA
ATOM     18  H2  UNL     1      -4.209 -10.645   3.635  1.00  0.00     0.190 HD
BRANCH  16  19
HETATM   19  C1  UNL     1      -5.147 -11.891   1.418  1.00  0.00     0.157 C 
HETATM   20  N1  UNL     1      -5.683 -12.184   0.284  1.00  0.00    -0.404 N 
ATOM     21  H12 UNL     1      -5.655 -11.517  -0.488  1.00  0.00     0.155 HD
ATOM     22  H11 UNL     1      -6.128 -13.098   0.197  1.00  0.00     0.155 HD
ENDBRANCH  16  19
ENDBRANCH  13  15
ENDBRANCH   1  12
TORSDOF 3
ENDMDL
