MODEL 1
REMARK VINA RESULT: -5.562620063      0.000      0.000
REMARK  3 active torsions:
REMARK  status: ('A' for Active; 'I' for Inactive)
REMARK    1  A    between atoms: N1_1  and  S1_4 
REMARK    2  A    between atoms: S1_4  and  N2_7 
REMARK    3  A    between atoms: N2_7  and  C1_9 
ROOT
HETATM    1  C1  UNL     1      36.180  45.261  13.668  1.00  0.00     0.701 A 
HETATM    2  N3  UNL     1      37.283  44.661  13.192  1.00  0.00    -0.140 N 
ATOM      3  H3  UNL     1      38.061  44.510  13.833  1.00  0.00     0.189 HD
HETATM    4  C2  UNL     1      37.422  44.248  11.922  1.00  0.00     0.342 A 
HETATM    5  O3  UNL     1      38.478  43.686  11.509  1.00  0.00    -0.246 OA
HETATM    6  N4  UNL     1      36.404  44.437  11.052  1.00  0.00    -0.260 N 
ATOM      7  H4  UNL     1      36.480  44.134  10.081  1.00  0.00     0.175 HD
HETATM    8  C3  UNL     1      35.302  45.029  11.499  1.00  0.00     0.342 A 
HETATM    9  O4  UNL     1      34.356  45.201  10.677  1.00  0.00    -0.246 OA
HETATM   10  N5  UNL     1      35.180  45.442  12.794  1.00  0.00    -0.140 N 
ATOM     11  H5  UNL     1      34.318  45.893  13.101  1.00  0.00     0.189 HD
ENDROOT
BRANCH   1  12
HETATM   12  N2  UNL     1      36.064  45.694  15.013  1.00  0.00    -0.099 N 
ATOM     13  H2  UNL     1      36.092  44.970  15.732  1.00  0.00     0.199 HD
BRANCH  12  14
HETATM   14  S1  UNL     1      35.883  47.295  15.548  1.00  0.00     0.330 S 
HETATM   15  O1  UNL     1      37.174  47.890  15.957  1.00  0.00    -0.182 OA
HETATM   16  O2  UNL     1      35.366  48.125  14.371  1.00  0.00    -0.182 OA
BRANCH  14  17
HETATM   17  N1  UNL     1      34.719  47.445  16.833  1.00  0.00    -0.311 N 
ATOM     18  H12 UNL     1      34.813  46.997  17.745  1.00  0.00     0.170 HD
ATOM     19  H11 UNL     1      33.944  48.039  16.538  1.00  0.00     0.170 HD
ENDBRANCH  14  17
ENDBRANCH  12  14
ENDBRANCH   1  12
TORSDOF 3
ENDMDL
MODEL 2
REMARK VINA RESULT: -5.545584388      0.023      2.165
REMARK  3 active torsions:
REMARK  status: ('A' for Active; 'I' for Inactive)
REMARK    1  A    between atoms: N1_1  and  S1_4 
REMARK    2  A    between atoms: S1_4  and  N2_7 
REMARK    3  A    between atoms: N2_7  and  C1_9 
ROOT
HETATM    1  C1  UNL     1      36.191  45.270  13.657  1.00  0.00     0.701 A 
HETATM    2  N3  UNL     1      35.211  45.432  12.753  1.00  0.00    -0.140 N 
ATOM      3  H3  UNL     1      34.349  45.885  13.056  1.00  0.00     0.189 HD
HETATM    4  C2  UNL     1      35.298  45.032  11.474  1.00  0.00     0.342 A 
HETATM    5  O3  UNL     1      34.352  45.201  10.651  1.00  0.00    -0.246 OA
HETATM    6  N4  UNL     1      36.430  44.427  11.048  1.00  0.00    -0.260 N 
ATOM      7  H4  UNL     1      36.526  44.113  10.083  1.00  0.00     0.175 HD
HETATM    8  C3  UNL     1      37.414  44.256  11.925  1.00  0.00     0.342 A 
HETATM    9  O4  UNL     1      38.469  43.689  11.515  1.00  0.00    -0.246 OA
HETATM   10  N5  UNL     1      37.306  44.669  13.221  1.00  0.00    -0.140 N 
ATOM     11  H5  UNL     1      38.083  44.520  13.865  1.00  0.00     0.189 HD
ENDROOT
BRANCH   1  12
HETATM   12  N2  UNL     1      36.067  45.696  15.004  1.00  0.00    -0.099 N 
ATOM     13  H2  UNL     1      36.092  44.970  15.720  1.00  0.00     0.199 HD
BRANCH  12  14
HETATM   14  S1  UNL     1      35.882  47.295  15.545  1.00  0.00     0.330 S 
HETATM   15  O1  UNL     1      37.171  47.892  15.955  1.00  0.00    -0.182 OA
HETATM   16  O2  UNL     1      35.360  48.127  14.371  1.00  0.00    -0.182 OA
BRANCH  14  17
HETATM   17  N1  UNL     1      34.719  47.436  16.832  1.00  0.00    -0.311 N 
ATOM     18  H12 UNL     1      34.808  46.973  17.736  1.00  0.00     0.170 HD
ATOM     19  H11 UNL     1      33.950  48.043  16.546  1.00  0.00     0.170 HD
ENDBRANCH  14  17
ENDBRANCH  12  14
ENDBRANCH   1  12
TORSDOF 3
ENDMDL
MODEL 3
REMARK VINA RESULT: -5.301415749      2.732      5.064
REMARK  3 active torsions:
REMARK  status: ('A' for Active; 'I' for Inactive)
REMARK    1  A    between atoms: N1_1  and  S1_4 
REMARK    2  A    between atoms: S1_4  and  N2_7 
REMARK    3  A    between atoms: N2_7  and  C1_9 
ROOT
HETATM    1  C1  UNL     1      37.762  46.193  12.575  1.00  0.00     0.701 A 
HETATM    2  N3  UNL     1      37.789  47.058  13.602  1.00  0.00    -0.140 N 
ATOM      3  H3  UNL     1      38.357  47.900  13.505  1.00  0.00     0.189 HD
HETATM    4  C2  UNL     1      37.112  46.882  14.748  1.00  0.00     0.342 A 
HETATM    5  O3  UNL     1      37.162  47.720  15.694  1.00  0.00    -0.246 OA
HETATM    6  N4  UNL     1      36.352  45.774  14.901  1.00  0.00    -0.260 N 
ATOM      7  H4  UNL     1      35.827  45.612  15.760  1.00  0.00     0.175 HD
HETATM    8  C3  UNL     1      36.310  44.902  13.899  1.00  0.00     0.342 A 
HETATM    9  O4  UNL     1      35.595  43.869  14.053  1.00  0.00    -0.246 OA
HETATM   10  N5  UNL     1      37.005  45.100  12.741  1.00  0.00    -0.140 N 
ATOM     11  H5  UNL     1      36.948  44.408  11.994  1.00  0.00     0.189 HD
ENDROOT
BRANCH   1  12
HETATM   12  N2  UNL     1      38.493  46.402  11.378  1.00  0.00    -0.099 N 
ATOM     13  H2  UNL     1      39.070  47.242  11.334  1.00  0.00     0.199 HD
BRANCH  12  14
HETATM   14  S1  UNL     1      38.504  45.396  10.011  1.00  0.00     0.330 S 
HETATM   15  O1  UNL     1      39.626  45.713   9.101  1.00  0.00    -0.182 OA
HETATM   16  O2  UNL     1      38.716  43.958  10.492  1.00  0.00    -0.182 OA
BRANCH  14  17
HETATM   17  N1  UNL     1      36.998  45.430   9.142  1.00  0.00    -0.311 N 
ATOM     18  H12 UNL     1      36.146  44.962   9.454  1.00  0.00     0.170 HD
ATOM     19  H11 UNL     1      37.096  45.979   8.288  1.00  0.00     0.170 HD
ENDBRANCH  14  17
ENDBRANCH  12  14
ENDBRANCH   1  12
TORSDOF 3
ENDMDL
MODEL 4
REMARK VINA RESULT: -5.285916536      2.430      5.182
REMARK  3 active torsions:
REMARK  status: ('A' for Active; 'I' for Inactive)
REMARK    1  A    between atoms: N1_1  and  S1_4 
REMARK    2  A    between atoms: S1_4  and  N2_7 
REMARK    3  A    between atoms: N2_7  and  C1_9 
ROOT
HETATM    1  C1  UNL     1      36.880  46.655  13.834  1.00  0.00     0.701 A 
HETATM    2  N3  UNL     1      35.764  47.232  13.360  1.00  0.00    -0.140 N 
ATOM      3  H3  UNL     1      35.418  46.930  12.449  1.00  0.00     0.189 HD
HETATM    4  C2  UNL     1      35.075  48.182  14.014  1.00  0.00     0.342 A 
HETATM    5  O3  UNL     1      34.027  48.702  13.534  1.00  0.00    -0.246 OA
HETATM    6  N4  UNL     1      35.514  48.598  15.223  1.00  0.00    -0.260 N 
ATOM      7  H4  UNL     1      35.012  49.318  15.744  1.00  0.00     0.175 HD
HETATM    8  C3  UNL     1      36.616  48.042  15.714  1.00  0.00     0.342 A 
HETATM    9  O4  UNL     1      37.017  48.440  16.846  1.00  0.00    -0.246 OA
HETATM   10  N5  UNL     1      37.302  47.078  15.033  1.00  0.00    -0.140 N 
ATOM     11  H5  UNL     1      38.145  46.675  15.442  1.00  0.00     0.189 HD
ENDROOT
BRANCH   1  12
HETATM   12  N2  UNL     1      37.591  45.659  13.117  1.00  0.00    -0.099 N 
ATOM     13  H2  UNL     1      38.600  45.782  13.038  1.00  0.00     0.199 HD
BRANCH  12  14
HETATM   14  S1  UNL     1      36.930  44.281  12.377  1.00  0.00     0.330 S 
HETATM   15  O1  UNL     1      36.305  43.371  13.361  1.00  0.00    -0.182 OA
HETATM   16  O2  UNL     1      35.816  44.747  11.434  1.00  0.00    -0.182 OA
BRANCH  14  17
HETATM   17  N1  UNL     1      38.091  43.416  11.412  1.00  0.00    -0.311 N 
ATOM     18  H12 UNL     1      38.980  43.808  11.100  1.00  0.00     0.170 HD
ATOM     19  H11 UNL     1      37.750  42.476  11.210  1.00  0.00     0.170 HD
ENDBRANCH  14  17
ENDBRANCH  12  14
ENDBRANCH   1  12
TORSDOF 3
ENDMDL
MODEL 5
REMARK VINA RESULT: -5.281182837      2.730      5.100
REMARK  3 active torsions:
REMARK  status: ('A' for Active; 'I' for Inactive)
REMARK    1  A    between atoms: N1_1  and  S1_4 
REMARK    2  A    between atoms: S1_4  and  N2_7 
REMARK    3  A    between atoms: N2_7  and  C1_9 
ROOT
HETATM    1  C1  UNL     1      37.802  46.194  12.621  1.00  0.00     0.701 A 
HETATM    2  N3  UNL     1      37.046  45.102  12.826  1.00  0.00    -0.140 N 
ATOM      3  H3  UNL     1      37.009  44.399  12.088  1.00  0.00     0.189 HD
HETATM    4  C2  UNL     1      36.336  44.882  13.945  1.00  0.00     0.342 A 
HETATM    5  O3  UNL     1      35.635  43.841  14.102  1.00  0.00    -0.246 OA
HETATM    6  N4  UNL     1      36.368  45.800  14.937  1.00  0.00    -0.260 N 
ATOM      7  H4  UNL     1      35.840  45.661  15.798  1.00  0.00     0.175 HD
HETATM    8  C3  UNL     1      37.109  46.889  14.757  1.00  0.00     0.342 A 
HETATM    9  O4  UNL     1      37.131  47.741  15.692  1.00  0.00    -0.246 OA
HETATM   10  N5  UNL     1      37.823  47.094  13.613  1.00  0.00    -0.140 N 
ATOM     11  H5  UNL     1      38.380  47.943  13.511  1.00  0.00     0.189 HD
ENDROOT
BRANCH   1  12
HETATM   12  N2  UNL     1      38.535  46.403  11.425  1.00  0.00    -0.099 N 
ATOM     13  H2  UNL     1      39.131  47.230  11.391  1.00  0.00     0.199 HD
BRANCH  12  14
HETATM   14  S1  UNL     1      38.522  45.414  10.045  1.00  0.00     0.330 S 
HETATM   15  O1  UNL     1      39.638  45.731   9.128  1.00  0.00    -0.182 OA
HETATM   16  O2  UNL     1      38.723  43.968  10.505  1.00  0.00    -0.182 OA
BRANCH  14  17
HETATM   17  N1  UNL     1      37.007  45.475   9.192  1.00  0.00    -0.311 N 
ATOM     18  H12 UNL     1      36.375  44.680   9.092  1.00  0.00     0.170 HD
ATOM     19  H11 UNL     1      36.852  46.410   8.815  1.00  0.00     0.170 HD
ENDBRANCH  14  17
ENDBRANCH  12  14
ENDBRANCH   1  12
TORSDOF 3
ENDMDL
