MODEL 1
REMARK VINA RESULT: -5.992467191      0.000      0.000
REMARK  3 active torsions:
REMARK  status: ('A' for Active; 'I' for Inactive)
REMARK    1  A    between atoms: N1_1  and  C1_5 
REMARK    2  A    between atoms: C1_5  and  C2_6 
REMARK    3  A    between atoms: C1_5  and  C5_17 
ROOT
HETATM    1  C1  UNL     1      36.751  44.369  11.793  1.00  0.00     0.309 C 
ENDROOT
BRANCH   1   2
HETATM    2  N1  UNL     1      37.702  43.369  12.176  1.00  0.00    -0.064 N 
ATOM      3  H13 UNL     1      38.136  43.590  13.072  1.00  0.00     0.275 HD
ATOM      4  H12 UNL     1      37.242  42.496  12.435  1.00  0.00     0.275 HD
ATOM      5  H11 UNL     1      38.400  43.222  11.447  1.00  0.00     0.275 HD
ENDBRANCH   1   2
BRANCH   1   6
HETATM    6  C2  UNL     1      36.247  45.117  12.974  1.00  0.00     0.134 A 
HETATM    7  N2  UNL     1      36.517  44.751  14.238  1.00  0.00    -0.284 N 
HETATM    8  N3  UNL     1      36.052  45.439  15.265  1.00  0.00    -0.260 N 
ATOM      9  H2  UNL     1      37.092  43.926  14.407  1.00  0.00     0.188 HD
HETATM   10  C3  UNL     1      35.291  46.531  15.088  1.00  0.00     0.328 A 
ATOM     11  H3  UNL     1      36.277  45.134  16.212  1.00  0.00     0.190 HD
HETATM   12  O1  UNL     1      34.877  47.146  16.098  1.00  0.00    -0.261 OA
HETATM   13  C4  UNL     1      35.003  46.923  13.811  1.00  0.00     0.316 A 
HETATM   14  O2  UNL     1      34.287  47.951  13.627  1.00  0.00    -0.262 OA
HETATM   15  N4  UNL     1      35.485  46.210  12.792  1.00  0.00    -0.305 N 
ATOM     16  H4  UNL     1      35.268  46.505  11.839  1.00  0.00     0.170 HD
ENDBRANCH   1   6
BRANCH   1  17
HETATM   17  C5  UNL     1      37.330  45.382  10.838  1.00  0.00     0.420 C 
HETATM   18  N5  UNL     1      38.489  46.063  11.399  1.00  0.00    -0.042 N 
HETATM   19  C6  UNL     1      39.114  46.550  10.163  1.00  0.00     0.262 C 
ATOM     20  H52 UNL     1      38.292  46.770  12.108  1.00  0.00     0.279 HD
ATOM     21  H51 UNL     1      39.084  45.503  12.010  1.00  0.00     0.279 HD
HETATM   22  C7  UNL     1      39.103  45.281   9.335  1.00  0.00     0.262 C 
HETATM   23  N6  UNL     1      37.856  44.680   9.682  1.00  0.00    -0.042 N 
ATOM     24  H62 UNL     1      37.930  43.674   9.831  1.00  0.00     0.279 HD
ATOM     25  H61 UNL     1      37.198  44.653   8.902  1.00  0.00     0.279 HD
ENDBRANCH   1  17
TORSDOF 3
ENDMDL
MODEL 2
REMARK VINA RESULT: -5.793712766      1.698      1.890
REMARK  3 active torsions:
REMARK  status: ('A' for Active; 'I' for Inactive)
REMARK    1  A    between atoms: N1_1  and  C1_5 
REMARK    2  A    between atoms: C1_5  and  C2_6 
REMARK    3  A    between atoms: C1_5  and  C5_17 
ROOT
HETATM    1  C1  UNL     1      37.151  44.486  11.645  1.00  0.00     0.309 C 
ENDROOT
BRANCH   1   2
HETATM    2  N1  UNL     1      37.881  43.293  11.952  1.00  0.00    -0.064 N 
ATOM      3  H13 UNL     1      38.885  43.465  11.979  1.00  0.00     0.275 HD
ATOM      4  H12 UNL     1      37.744  43.010  12.922  1.00  0.00     0.275 HD
ATOM      5  H11 UNL     1      37.647  42.538  11.306  1.00  0.00     0.275 HD
ENDBRANCH   1   2
BRANCH   1   6
HETATM    6  C2  UNL     1      37.069  45.388  12.823  1.00  0.00     0.134 A 
HETATM    7  N2  UNL     1      36.437  45.048  13.958  1.00  0.00    -0.284 N 
HETATM    8  N3  UNL     1      36.383  45.874  14.987  1.00  0.00    -0.260 N 
ATOM      9  H2  UNL     1      35.990  44.133  14.027  1.00  0.00     0.188 HD
HETATM   10  C3  UNL     1      36.957  47.088  14.940  1.00  0.00     0.328 A 
ATOM     11  H3  UNL     1      35.896  45.585  15.834  1.00  0.00     0.190 HD
HETATM   12  O1  UNL     1      36.875  47.831  15.945  1.00  0.00    -0.261 OA
HETATM   13  C4  UNL     1      37.607  47.456  13.795  1.00  0.00     0.316 A 
HETATM   14  O2  UNL     1      38.154  48.596  13.735  1.00  0.00    -0.262 OA
HETATM   15  N4  UNL     1      37.646  46.602  12.771  1.00  0.00    -0.305 N 
ATOM     16  H4  UNL     1      38.131  46.880  11.918  1.00  0.00     0.170 HD
ENDBRANCH   1   6
BRANCH   1  17
HETATM   17  C5  UNL     1      37.778  45.274  10.523  1.00  0.00     0.420 C 
HETATM   18  N5  UNL     1      38.694  44.464   9.730  1.00  0.00    -0.042 N 
HETATM   19  C6  UNL     1      38.732  45.264   8.500  1.00  0.00     0.262 C 
ATOM     20  H52 UNL     1      39.597  44.262  10.159  1.00  0.00     0.279 HD
ATOM     21  H51 UNL     1      38.439  43.483   9.617  1.00  0.00     0.279 HD
HETATM   22  C7  UNL     1      37.250  45.474   8.265  1.00  0.00     0.262 C 
HETATM   23  N6  UNL     1      36.736  45.652   9.585  1.00  0.00    -0.042 N 
ATOM     24  H62 UNL     1      35.863  45.149   9.741  1.00  0.00     0.279 HD
ATOM     25  H61 UNL     1      36.381  46.594   9.748  1.00  0.00     0.279 HD
ENDBRANCH   1  17
TORSDOF 3
ENDMDL
MODEL 3
REMARK VINA RESULT: -5.765537110      2.211      3.531
REMARK  3 active torsions:
REMARK  status: ('A' for Active; 'I' for Inactive)
REMARK    1  A    between atoms: N1_1  and  C1_5 
REMARK    2  A    between atoms: C1_5  and  C2_6 
REMARK    3  A    between atoms: C1_5  and  C5_17 
ROOT
HETATM    1  C1  UNL     1      39.097  45.488   9.631  1.00  0.00     0.309 C 
ENDROOT
BRANCH   1   2
HETATM    2  N1  UNL     1      38.826  46.872   9.383  1.00  0.00    -0.064 N 
ATOM      3  H13 UNL     1      38.126  47.237  10.028  1.00  0.00     0.275 HD
ATOM      4  H12 UNL     1      39.613  47.462   9.655  1.00  0.00     0.275 HD
ATOM      5  H11 UNL     1      38.559  47.030   8.411  1.00  0.00     0.275 HD
ENDBRANCH   1   2
BRANCH   1   6
HETATM    6  C2  UNL     1      38.296  44.976  10.773  1.00  0.00     0.134 A 
HETATM    7  N2  UNL     1      38.267  43.679  11.120  1.00  0.00    -0.284 N 
HETATM    8  N3  UNL     1      37.543  43.258  12.141  1.00  0.00    -0.260 N 
ATOM      9  H2  UNL     1      38.816  43.006  10.585  1.00  0.00     0.188 HD
HETATM   10  C3  UNL     1      36.806  44.109  12.873  1.00  0.00     0.328 A 
ATOM     11  H3  UNL     1      37.545  42.266  12.378  1.00  0.00     0.190 HD
HETATM   12  O1  UNL     1      36.138  43.655  13.830  1.00  0.00    -0.261 OA
HETATM   13  C4  UNL     1      36.819  45.434  12.539  1.00  0.00     0.316 A 
HETATM   14  O2  UNL     1      36.129  46.249  13.219  1.00  0.00    -0.262 OA
HETATM   15  N4  UNL     1      37.559  45.832  11.503  1.00  0.00    -0.305 N 
ATOM     16  H4  UNL     1      37.566  46.822  11.255  1.00  0.00     0.170 HD
ENDBRANCH   1   6
BRANCH   1  17
HETATM   17  C5  UNL     1      38.788  44.615   8.441  1.00  0.00     0.420 C 
HETATM   18  N5  UNL     1      37.550  45.010   7.781  1.00  0.00    -0.042 N 
HETATM   19  C6  UNL     1      37.764  44.397   6.465  1.00  0.00     0.262 C 
ATOM     20  H52 UNL     1      36.687  44.751   8.259  1.00  0.00     0.279 HD
ATOM     21  H51 UNL     1      37.343  46.009   7.780  1.00  0.00     0.279 HD
HETATM   22  C7  UNL     1      39.166  44.886   6.161  1.00  0.00     0.262 C 
HETATM   23  N6  UNL     1      39.811  44.827   7.434  1.00  0.00    -0.042 N 
ATOM     24  H62 UNL     1      40.388  45.647   7.623  1.00  0.00     0.279 HD
ATOM     25  H61 UNL     1      40.552  44.128   7.470  1.00  0.00     0.279 HD
ENDBRANCH   1  17
TORSDOF 3
ENDMDL
MODEL 4
REMARK VINA RESULT: -5.765450844      2.750      5.258
REMARK  3 active torsions:
REMARK  status: ('A' for Active; 'I' for Inactive)
REMARK    1  A    between atoms: N1_1  and  C1_5 
REMARK    2  A    between atoms: C1_5  and  C2_6 
REMARK    3  A    between atoms: C1_5  and  C5_17 
ROOT
HETATM    1  C1  UNL     1      37.088  44.565  12.884  1.00  0.00     0.309 C 
ENDROOT
BRANCH   1   2
HETATM    2  N1  UNL     1      36.042  43.615  12.651  1.00  0.00    -0.064 N 
ATOM      3  H13 UNL     1      35.770  43.592  11.669  1.00  0.00     0.275 HD
ATOM      4  H12 UNL     1      36.381  42.656  12.742  1.00  0.00     0.275 HD
ATOM      5  H11 UNL     1      35.241  43.787  13.259  1.00  0.00     0.275 HD
ENDBRANCH   1   2
BRANCH   1   6
HETATM    6  C2  UNL     1      37.841  44.858  11.637  1.00  0.00     0.134 A 
HETATM    7  N2  UNL     1      38.009  43.954  10.658  1.00  0.00    -0.284 N 
HETATM    8  N3  UNL     1      38.684  44.248   9.562  1.00  0.00    -0.260 N 
ATOM      9  H2  UNL     1      37.607  43.022  10.763  1.00  0.00     0.188 HD
HETATM   10  C3  UNL     1      39.230  45.462   9.381  1.00  0.00     0.328 A 
ATOM     11  H3  UNL     1      38.793  43.539   8.837  1.00  0.00     0.190 HD
HETATM   12  O1  UNL     1      39.860  45.686   8.322  1.00  0.00    -0.261 OA
HETATM   13  C4  UNL     1      39.071  46.398  10.364  1.00  0.00     0.316 A 
HETATM   14  O2  UNL     1      39.580  47.548  10.208  1.00  0.00    -0.262 OA
HETATM   15  N4  UNL     1      38.385  46.075  11.461  1.00  0.00    -0.305 N 
ATOM     16  H4  UNL     1      38.269  46.776  12.193  1.00  0.00     0.170 HD
ENDBRANCH   1   6
BRANCH   1  17
HETATM   17  C5  UNL     1      36.569  45.878  13.411  1.00  0.00     0.420 C 
HETATM   18  N5  UNL     1      35.251  46.199  12.877  1.00  0.00    -0.042 N 
HETATM   19  C6  UNL     1      34.803  47.166  13.886  1.00  0.00     0.262 C 
ATOM     20  H52 UNL     1      35.227  46.521  11.910  1.00  0.00     0.279 HD
ATOM     21  H51 UNL     1      34.631  45.407  12.712  1.00  0.00     0.279 HD
HETATM   22  C7  UNL     1      35.122  46.403  15.156  1.00  0.00     0.262 C 
HETATM   23  N6  UNL     1      36.352  45.750  14.840  1.00  0.00    -0.042 N 
ATOM     24  H62 UNL     1      36.378  44.782  15.158  1.00  0.00     0.279 HD
ATOM     25  H61 UNL     1      37.137  46.096  15.392  1.00  0.00     0.279 HD
ENDBRANCH   1  17
TORSDOF 3
ENDMDL
MODEL 5
REMARK VINA RESULT: -5.694966465      1.509      1.919
REMARK  3 active torsions:
REMARK  status: ('A' for Active; 'I' for Inactive)
REMARK    1  A    between atoms: N1_1  and  C1_5 
REMARK    2  A    between atoms: C1_5  and  C2_6 
REMARK    3  A    between atoms: C1_5  and  C5_17 
ROOT
HETATM    1  C1  UNL     1      37.214  44.563  11.618  1.00  0.00     0.309 C 
ENDROOT
BRANCH   1   2
HETATM    2  N1  UNL     1      37.876  43.340  11.958  1.00  0.00    -0.064 N 
ATOM      3  H13 UNL     1      38.716  43.511  12.511  1.00  0.00     0.275 HD
ATOM      4  H12 UNL     1      37.343  42.804  12.644  1.00  0.00     0.275 HD
ATOM      5  H11 UNL     1      38.080  42.785  11.127  1.00  0.00     0.275 HD
ENDBRANCH   1   2
BRANCH   1   6
HETATM    6  C2  UNL     1      37.199  45.508  12.765  1.00  0.00     0.134 A 
HETATM    7  N2  UNL     1      38.200  46.366  13.016  1.00  0.00    -0.284 N 
HETATM    8  N3  UNL     1      38.155  47.192  14.045  1.00  0.00    -0.260 N 
ATOM      9  H2  UNL     1      39.012  46.382  12.398  1.00  0.00     0.188 HD
HETATM   10  C3  UNL     1      37.106  47.207  14.884  1.00  0.00     0.328 A 
ATOM     11  H3  UNL     1      38.932  47.832  14.206  1.00  0.00     0.190 HD
HETATM   12  O1  UNL     1      37.114  48.010  15.844  1.00  0.00    -0.261 OA
HETATM   13  C4  UNL     1      36.074  46.341  14.649  1.00  0.00     0.316 A 
HETATM   14  O2  UNL     1      35.077  46.343  15.430  1.00  0.00    -0.262 OA
HETATM   15  N4  UNL     1      36.146  45.518  13.602  1.00  0.00    -0.305 N 
ATOM     16  H4  UNL     1      35.375  44.873  13.430  1.00  0.00     0.170 HD
ENDBRANCH   1   6
BRANCH   1  17
HETATM   17  C5  UNL     1      37.872  45.275  10.463  1.00  0.00     0.420 C 
HETATM   18  N5  UNL     1      38.711  44.381   9.676  1.00  0.00    -0.042 N 
HETATM   19  C6  UNL     1      38.781  45.143   8.424  1.00  0.00     0.262 C 
ATOM     20  H52 UNL     1      39.606  44.126  10.093  1.00  0.00     0.279 HD
ATOM     21  H51 UNL     1      38.385  43.418   9.595  1.00  0.00     0.279 HD
HETATM   22  C7  UNL     1      37.313  45.453   8.211  1.00  0.00     0.262 C 
HETATM   23  N6  UNL     1      36.841  45.702   9.535  1.00  0.00    -0.042 N 
ATOM     24  H62 UNL     1      35.937  45.267   9.721  1.00  0.00     0.279 HD
ATOM     25  H61 UNL     1      36.557  46.671   9.678  1.00  0.00     0.279 HD
ENDBRANCH   1  17
TORSDOF 3
ENDMDL
