MODEL 1
REMARK VINA RESULT: -5.858544717      0.000      0.000
REMARK  5 active torsions:
REMARK  status: ('A' for Active; 'I' for Inactive)
REMARK    1  A    between atoms: N1_1  and  C1_4 
REMARK    2  A    between atoms: C3_10  and  N4_11 
REMARK    3  A    between atoms: N5_14  and  C4_15 
REMARK    4  A    between atoms: C4_15  and  O1_16 
REMARK    5  A    between atoms: O1_16  and  S1_17 
ROOT
HETATM    1  C1  UNL     1      38.724  44.916   9.883  1.00  0.00     0.679 A 
HETATM    2  N2  UNL     1      38.319  43.784  10.454  1.00  0.00    -0.172 N 
ATOM      3  H2  UNL     1      38.459  42.843  10.086  1.00  0.00     0.186 HD
HETATM    4  C2  UNL     1      37.690  44.099  11.603  1.00  0.00     0.181 A 
HETATM    5  N3  UNL     1      37.045  43.622  12.682  1.00  0.00    -0.172 N 
ATOM      6  H3  UNL     1      36.866  42.637  12.873  1.00  0.00     0.186 HD
HETATM    7  C3  UNL     1      36.673  44.643  13.469  1.00  0.00     0.683 A 
HETATM    8  N5  UNL     1      37.101  45.771  12.857  1.00  0.00    -0.141 N 
HETATM    9  C5  UNL     1      37.736  45.475  11.698  1.00  0.00     0.186 A 
HETATM   10  N6  UNL     1      38.380  45.985  10.624  1.00  0.00    -0.172 N 
ATOM     11  H6  UNL     1      38.566  46.967  10.420  1.00  0.00     0.186 HD
ENDROOT
BRANCH   8  12
HETATM   12  C4  UNL     1      36.929  47.132  13.336  1.00  0.00     0.344 C 
BRANCH  12  13
HETATM   13  O1  UNL     1      37.539  47.304  14.567  1.00  0.00    -0.236 OA
BRANCH  13  14
HETATM   14  S1  UNL     1      36.589  48.088  15.674  1.00  0.00     0.253 S 
HETATM   15  O2  UNL     1      36.135  49.436  15.206  1.00  0.00    -0.572 OA
HETATM   16  O3  UNL     1      37.370  48.263  16.946  1.00  0.00    -0.572 OA
HETATM   17  O4  UNL     1      35.266  47.101  16.042  1.00  0.00    -0.572 OA
ENDBRANCH  13  14
ENDBRANCH  12  13
ENDBRANCH   8  12
BRANCH   7  18
HETATM   18  N4  UNL     1      36.034  44.614  14.594  1.00  0.00    -0.234 N 
ATOM     19  H42 UNL     1      35.073  44.932  14.724  1.00  0.00     0.174 HD
ATOM     20  H41 UNL     1      36.353  44.288  15.506  1.00  0.00     0.174 HD
ENDBRANCH   7  18
BRANCH   1  21
HETATM   21  N1  UNL     1      39.358  44.970   8.768  1.00  0.00    -0.234 N 
ATOM     22  H12 UNL     1      39.054  44.527   7.902  1.00  0.00     0.174 HD
ATOM     23  H11 UNL     1      40.239  45.467   8.638  1.00  0.00     0.174 HD
ENDBRANCH   1  21
TORSDOF 5
ENDMDL
MODEL 2
REMARK VINA RESULT: -5.857185499      0.073      1.094
REMARK  5 active torsions:
REMARK  status: ('A' for Active; 'I' for Inactive)
REMARK    1  A    between atoms: N1_1  and  C1_4 
REMARK    2  A    between atoms: C3_10  and  N4_11 
REMARK    3  A    between atoms: N5_14  and  C4_15 
REMARK    4  A    between atoms: C4_15  and  O1_16 
REMARK    5  A    between atoms: O1_16  and  S1_17 
ROOT
HETATM    1  C1  UNL     1      38.770  44.936   9.884  1.00  0.00     0.679 A 
HETATM    2  N2  UNL     1      38.373  43.797  10.448  1.00  0.00    -0.172 N 
ATOM      3  H2  UNL     1      38.534  42.859  10.082  1.00  0.00     0.186 HD
HETATM    4  C2  UNL     1      37.722  44.102  11.587  1.00  0.00     0.181 A 
HETATM    5  N3  UNL     1      37.067  43.614  12.656  1.00  0.00    -0.172 N 
ATOM      6  H3  UNL     1      36.900  42.626  12.844  1.00  0.00     0.186 HD
HETATM    7  C3  UNL     1      36.667  44.629  13.438  1.00  0.00     0.683 A 
HETATM    8  N5  UNL     1      37.087  45.763  12.833  1.00  0.00    -0.141 N 
HETATM    9  C5  UNL     1      37.745  45.478  11.684  1.00  0.00     0.186 A 
HETATM   10  N6  UNL     1      38.398  45.998  10.621  1.00  0.00    -0.172 N 
ATOM     11  H6  UNL     1      38.572  46.983  10.421  1.00  0.00     0.186 HD
ENDROOT
BRANCH   8  12
HETATM   12  C4  UNL     1      36.887  47.121  13.310  1.00  0.00     0.344 C 
BRANCH  12  13
HETATM   13  O1  UNL     1      37.508  47.313  14.532  1.00  0.00    -0.236 OA
BRANCH  13  14
HETATM   14  S1  UNL     1      36.526  47.999  15.675  1.00  0.00     0.253 S 
HETATM   15  O2  UNL     1      35.291  47.196  15.946  1.00  0.00    -0.572 OA
HETATM   16  O3  UNL     1      36.112  49.365  15.203  1.00  0.00    -0.572 OA
HETATM   17  O4  UNL     1      37.423  48.220  17.092  1.00  0.00    -0.572 OA
ENDBRANCH  13  14
ENDBRANCH  12  13
ENDBRANCH   8  12
BRANCH   7  18
HETATM   18  N4  UNL     1      36.011  44.589  14.553  1.00  0.00    -0.234 N 
ATOM     19  H42 UNL     1      35.654  43.737  14.986  1.00  0.00     0.174 HD
ATOM     20  H41 UNL     1      35.745  45.357  15.169  1.00  0.00     0.174 HD
ENDBRANCH   7  18
BRANCH   1  21
HETATM   21  N1  UNL     1      39.421  45.001   8.780  1.00  0.00    -0.234 N 
ATOM     22  H12 UNL     1      40.214  44.408   8.536  1.00  0.00     0.174 HD
ATOM     23  H11 UNL     1      39.209  45.659   8.031  1.00  0.00     0.174 HD
ENDBRANCH   1  21
TORSDOF 5
ENDMDL
MODEL 3
REMARK VINA RESULT: -5.814569232      3.503      5.126
REMARK  5 active torsions:
REMARK  status: ('A' for Active; 'I' for Inactive)
REMARK    1  A    between atoms: N1_1  and  C1_4 
REMARK    2  A    between atoms: C3_10  and  N4_11 
REMARK    3  A    between atoms: N5_14  and  C4_15 
REMARK    4  A    between atoms: C4_15  and  O1_16 
REMARK    5  A    between atoms: O1_16  and  S1_17 
ROOT
HETATM    1  C1  UNL     1      35.751  46.250  14.756  1.00  0.00     0.679 A 
HETATM    2  N2  UNL     1      36.164  44.991  14.877  1.00  0.00    -0.172 N 
ATOM      3  H2  UNL     1      36.052  44.400  15.701  1.00  0.00     0.186 HD
HETATM    4  C2  UNL     1      36.756  44.634  13.721  1.00  0.00     0.181 A 
HETATM    5  N3  UNL     1      37.383  43.649  13.053  1.00  0.00    -0.172 N 
ATOM      6  H3  UNL     1      37.577  42.719  13.421  1.00  0.00     0.186 HD
HETATM    7  C3  UNL     1      37.714  44.081  11.826  1.00  0.00     0.683 A 
HETATM    8  N5  UNL     1      37.279  45.359  11.742  1.00  0.00    -0.141 N 
HETATM    9  C5  UNL     1      36.680  45.737  12.897  1.00  0.00     0.186 A 
HETATM   10  N6  UNL     1      36.053  46.746  13.543  1.00  0.00    -0.172 N 
ATOM     11  H6  UNL     1      35.853  47.681  13.187  1.00  0.00     0.186 HD
ENDROOT
BRANCH   8  12
HETATM   12  C4  UNL     1      37.411  46.242  10.596  1.00  0.00     0.344 C 
BRANCH  12  13
HETATM   13  O1  UNL     1      36.647  45.791   9.534  1.00  0.00    -0.236 OA
BRANCH  13  14
HETATM   14  S1  UNL     1      35.030  46.109   9.698  1.00  0.00     0.253 S 
HETATM   15  O2  UNL     1      34.261  44.959  10.269  1.00  0.00    -0.572 OA
HETATM   16  O3  UNL     1      34.461  46.439   8.346  1.00  0.00    -0.572 OA
HETATM   17  O4  UNL     1      34.849  47.490  10.658  1.00  0.00    -0.572 OA
ENDBRANCH  13  14
ENDBRANCH  12  13
ENDBRANCH   8  12
BRANCH   7  18
HETATM   18  N4  UNL     1      38.324  43.448  10.877  1.00  0.00    -0.234 N 
ATOM     19  H42 UNL     1      39.241  43.010  10.968  1.00  0.00     0.174 HD
ATOM     20  H41 UNL     1      38.020  43.279   9.918  1.00  0.00     0.174 HD
ENDBRANCH   7  18
BRANCH   1  21
HETATM   21  N1  UNL     1      35.144  46.899  15.683  1.00  0.00    -0.234 N 
ATOM     22  H12 UNL     1      35.598  47.313  16.497  1.00  0.00     0.174 HD
ATOM     23  H11 UNL     1      34.138  47.065  15.697  1.00  0.00     0.174 HD
ENDBRANCH   1  21
TORSDOF 5
ENDMDL
MODEL 4
REMARK VINA RESULT: -5.736317959      1.670      2.432
REMARK  5 active torsions:
REMARK  status: ('A' for Active; 'I' for Inactive)
REMARK    1  A    between atoms: N1_1  and  C1_4 
REMARK    2  A    between atoms: C3_10  and  N4_11 
REMARK    3  A    between atoms: N5_14  and  C4_15 
REMARK    4  A    between atoms: C4_15  and  O1_16 
REMARK    5  A    between atoms: O1_16  and  S1_17 
ROOT
HETATM    1  C1  UNL     1      37.502  44.067  11.902  1.00  0.00     0.679 A 
HETATM    2  N2  UNL     1      36.186  43.901  12.003  1.00  0.00    -0.172 N 
ATOM      3  H2  UNL     1      35.641  43.154  11.572  1.00  0.00     0.186 HD
HETATM    4  C2  UNL     1      35.699  44.893  12.773  1.00  0.00     0.181 A 
HETATM    5  N3  UNL     1      34.597  45.430  13.328  1.00  0.00    -0.172 N 
ATOM      6  H3  UNL     1      33.651  45.064  13.229  1.00  0.00     0.186 HD
HETATM    7  C3  UNL     1      34.936  46.521  14.032  1.00  0.00     0.683 A 
HETATM    8  N5  UNL     1      36.276  46.654  13.905  1.00  0.00    -0.141 N 
HETATM    9  C5  UNL     1      36.785  45.664  13.133  1.00  0.00     0.186 A 
HETATM   10  N6  UNL     1      37.910  45.149  12.589  1.00  0.00    -0.172 N 
ATOM     11  H6  UNL     1      38.862  45.505  12.679  1.00  0.00     0.186 HD
ENDROOT
BRANCH   8  12
HETATM   12  C4  UNL     1      37.099  47.695  14.497  1.00  0.00     0.344 C 
BRANCH  12  13
HETATM   13  O1  UNL     1      37.383  47.409  15.821  1.00  0.00    -0.236 OA
BRANCH  13  14
HETATM   14  S1  UNL     1      36.870  48.576  16.877  1.00  0.00     0.253 S 
HETATM   15  O2  UNL     1      35.426  48.439  17.247  1.00  0.00    -0.572 OA
HETATM   16  O3  UNL     1      37.074  49.926  16.245  1.00  0.00    -0.572 OA
HETATM   17  O4  UNL     1      37.853  48.525  18.253  1.00  0.00    -0.572 OA
ENDBRANCH  13  14
ENDBRANCH  12  13
ENDBRANCH   8  12
BRANCH   7  18
HETATM   18  N4  UNL     1      34.178  47.319  14.713  1.00  0.00    -0.234 N 
ATOM     19  H42 UNL     1      33.223  47.105  15.003  1.00  0.00     0.174 HD
ATOM     20  H41 UNL     1      34.382  48.254  15.064  1.00  0.00     0.174 HD
ENDBRANCH   7  18
BRANCH   1  21
HETATM   21  N1  UNL     1      38.274  43.289  11.234  1.00  0.00    -0.234 N 
ATOM     22  H12 UNL     1      38.418  42.299  11.433  1.00  0.00     0.174 HD
ATOM     23  H11 UNL     1      38.827  43.587  10.430  1.00  0.00     0.174 HD
ENDBRANCH   1  21
TORSDOF 5
ENDMDL
MODEL 5
REMARK VINA RESULT: -5.733131959      3.749      5.280
REMARK  5 active torsions:
REMARK  status: ('A' for Active; 'I' for Inactive)
REMARK    1  A    between atoms: N1_1  and  C1_4 
REMARK    2  A    between atoms: C3_10  and  N4_11 
REMARK    3  A    between atoms: N5_14  and  C4_15 
REMARK    4  A    between atoms: C4_15  and  O1_16 
REMARK    5  A    between atoms: O1_16  and  S1_17 
ROOT
HETATM    1  C1  UNL     1      35.921  45.789  14.469  1.00  0.00     0.679 A 
HETATM    2  N2  UNL     1      36.373  44.550  14.288  1.00  0.00    -0.172 N 
ATOM      3  H2  UNL     1      36.300  43.782  14.954  1.00  0.00     0.186 HD
HETATM    4  C2  UNL     1      36.944  44.490  13.069  1.00  0.00     0.181 A 
HETATM    5  N3  UNL     1      37.582  43.709  12.179  1.00  0.00    -0.172 N 
ATOM      6  H3  UNL     1      37.811  42.725  12.318  1.00  0.00     0.186 HD
HETATM    7  C3  UNL     1      37.868  44.423  11.080  1.00  0.00     0.683 A 
HETATM    8  N5  UNL     1      37.394  45.670  11.303  1.00  0.00    -0.141 N 
HETATM    9  C5  UNL     1      36.815  45.751  12.525  1.00  0.00     0.186 A 
HETATM   10  N6  UNL     1      36.177  46.562  13.398  1.00  0.00    -0.172 N 
ATOM     11  H6  UNL     1      35.941  47.546  13.273  1.00  0.00     0.186 HD
ENDROOT
BRANCH   8  12
HETATM   12  C4  UNL     1      37.471  46.799  10.390  1.00  0.00     0.344 C 
BRANCH  12  13
HETATM   13  O1  UNL     1      36.211  47.306  10.124  1.00  0.00    -0.236 OA
BRANCH  13  14
HETATM   14  S1  UNL     1      35.429  46.526   8.891  1.00  0.00     0.253 S 
HETATM   15  O2  UNL     1      36.322  45.604   8.120  1.00  0.00    -0.572 OA
HETATM   16  O3  UNL     1      34.872  47.551   7.943  1.00  0.00    -0.572 OA
HETATM   17  O4  UNL     1      34.111  45.686   9.536  1.00  0.00    -0.572 OA
ENDBRANCH  13  14
ENDBRANCH  12  13
ENDBRANCH   8  12
BRANCH   7  18
HETATM   18  N4  UNL     1      38.470  44.047   9.998  1.00  0.00    -0.234 N 
ATOM     19  H42 UNL     1      38.034  43.513   9.246  1.00  0.00     0.174 HD
ATOM     20  H41 UNL     1      39.437  44.206   9.712  1.00  0.00     0.174 HD
ENDBRANCH   7  18
BRANCH   1  21
HETATM   21  N1  UNL     1      35.320  46.185  15.533  1.00  0.00    -0.234 N 
ATOM     22  H12 UNL     1      35.774  46.649  16.319  1.00  0.00     0.174 HD
ATOM     23  H11 UNL     1      34.321  46.072  15.698  1.00  0.00     0.174 HD
ENDBRANCH   1  21
TORSDOF 5
ENDMDL
