MODEL 1
REMARK VINA RESULT: -5.453823569      0.000      0.000
REMARK  5 active torsions:
REMARK  status: ('A' for Active; 'I' for Inactive)
REMARK    1  A    between atoms: N1_1  and  C1_4 
REMARK    2  A    between atoms: C2_7  and  S1_8 
REMARK    3  A    between atoms: S1_8  and  C3_11 
REMARK    4  A    between atoms: C3_11  and  N3_12 
REMARK    5  A    between atoms: C3_11  and  N4_16 
ROOT
HETATM    1  C1  UNL     1      35.021  48.113  13.500  1.00  0.00     0.682 A 
HETATM    2  N2  UNL     1      35.191  46.971  12.816  1.00  0.00    -0.166 N 
ATOM      3  H2  UNL     1      34.634  46.798  11.979  1.00  0.00     0.186 HD
HETATM    4  C2  UNL     1      36.100  46.038  13.224  1.00  0.00     0.225 A 
HETATM    5  N5  UNL     1      36.842  46.249  14.323  1.00  0.00    -0.284 N 
ATOM      6  H5  UNL     1      37.521  45.553  14.630  1.00  0.00     0.172 HD
HETATM    7  C4  UNL     1      36.677  47.394  15.014  1.00  0.00     0.340 A 
HETATM    8  O3  UNL     1      37.388  47.571  16.047  1.00  0.00    -0.246 OA
HETATM    9  N6  UNL     1      35.778  48.300  14.597  1.00  0.00    -0.141 N 
ATOM     10  H6  UNL     1      35.665  49.162  15.132  1.00  0.00     0.189 HD
ENDROOT
BRANCH   4  11
HETATM   11  S1  UNL     1      36.277  44.573  12.304  1.00  0.00     0.263 S 
HETATM   12  O1  UNL     1      35.093  44.373  11.388  1.00  0.00    -0.216 OA
HETATM   13  O2  UNL     1      36.396  43.394  13.226  1.00  0.00    -0.216 OA
BRANCH  11  14
HETATM   14  C3  UNL     1      37.727  44.620  11.300  1.00  0.00     0.505 C 
BRANCH  14  15
HETATM   15  N3  UNL     1      37.484  45.058   9.947  1.00  0.00    -0.036 N 
ATOM     16  H33 UNL     1      36.600  44.686   9.602  1.00  0.00     0.278 HD
ATOM     17  H32 UNL     1      37.271  46.055   9.925  1.00  0.00     0.278 HD
ATOM     18  H31 UNL     1      38.243  44.839   9.302  1.00  0.00     0.278 HD
ENDBRANCH  14  15
BRANCH  14  19
HETATM   19  N4  UNL     1      38.293  43.262  11.171  1.00  0.00    -0.036 N 
ATOM     20  H43 UNL     1      38.436  42.818  12.079  1.00  0.00     0.278 HD
ATOM     21  H42 UNL     1      37.618  42.601  10.787  1.00  0.00     0.278 HD
ATOM     22  H41 UNL     1      39.152  43.295  10.622  1.00  0.00     0.278 HD
ENDBRANCH  14  19
ENDBRANCH  11  14
ENDBRANCH   4  11
BRANCH   1  23
HETATM   23  N1  UNL     1      34.154  49.015  13.119  1.00  0.00    -0.234 N 
ATOM     24  H12 UNL     1      33.260  48.743  12.708  1.00  0.00     0.174 HD
ATOM     25  H11 UNL     1      34.342  50.012  13.220  1.00  0.00     0.174 HD
ENDBRANCH   1  23
TORSDOF 5
ENDMDL
MODEL 2
REMARK VINA RESULT: -5.412131243      2.445      5.032
REMARK  5 active torsions:
REMARK  status: ('A' for Active; 'I' for Inactive)
REMARK    1  A    between atoms: N1_1  and  C1_4 
REMARK    2  A    between atoms: C2_7  and  S1_8 
REMARK    3  A    between atoms: S1_8  and  C3_11 
REMARK    4  A    between atoms: C3_11  and  N3_12 
REMARK    5  A    between atoms: C3_11  and  N4_16 
ROOT
HETATM    1  C1  UNL     1      37.693  45.318   8.795  1.00  0.00     0.682 A 
HETATM    2  N2  UNL     1      37.842  44.993  10.088  1.00  0.00    -0.166 N 
ATOM      3  H2  UNL     1      38.762  44.720  10.435  1.00  0.00     0.186 HD
HETATM    4  C2  UNL     1      36.781  45.024  10.946  1.00  0.00     0.225 A 
HETATM    5  N5  UNL     1      35.564  45.382  10.506  1.00  0.00    -0.284 N 
ATOM      6  H5  UNL     1      34.769  45.404  11.145  1.00  0.00     0.172 HD
HETATM    7  C4  UNL     1      35.407  45.710   9.209  1.00  0.00     0.340 A 
HETATM    8  O3  UNL     1      34.250  46.044   8.817  1.00  0.00    -0.246 OA
HETATM    9  N6  UNL     1      36.463  45.674   8.380  1.00  0.00    -0.141 N 
ATOM     10  H6  UNL     1      36.327  45.925   7.401  1.00  0.00     0.189 HD
ENDROOT
BRANCH   4  11
HETATM   11  S1  UNL     1      37.029  44.589  12.611  1.00  0.00     0.263 S 
HETATM   12  O1  UNL     1      38.441  44.102  12.831  1.00  0.00    -0.216 OA
HETATM   13  O2  UNL     1      36.064  43.511  13.013  1.00  0.00    -0.216 OA
BRANCH  11  14
HETATM   14  C3  UNL     1      36.768  45.969  13.678  1.00  0.00     0.505 C 
BRANCH  14  15
HETATM   15  N3  UNL     1      37.972  46.700  13.990  1.00  0.00    -0.036 N 
ATOM     16  H33 UNL     1      37.808  47.704  13.931  1.00  0.00     0.278 HD
ATOM     17  H32 UNL     1      38.193  46.620  14.983  1.00  0.00     0.278 HD
ATOM     18  H31 UNL     1      38.775  46.432  13.421  1.00  0.00     0.278 HD
ENDBRANCH  14  15
BRANCH  14  19
HETATM   19  N4  UNL     1      36.248  45.506  14.981  1.00  0.00    -0.036 N 
ATOM     20  H43 UNL     1      35.499  44.822  14.873  1.00  0.00     0.278 HD
ATOM     21  H42 UNL     1      36.919  44.916  15.473  1.00  0.00     0.278 HD
ATOM     22  H41 UNL     1      35.957  46.306  15.543  1.00  0.00     0.278 HD
ENDBRANCH  14  19
ENDBRANCH  11  14
ENDBRANCH   4  11
BRANCH   1  23
HETATM   23  N1  UNL     1      38.702  45.292   7.963  1.00  0.00    -0.234 N 
ATOM     24  H12 UNL     1      39.399  46.038   7.959  1.00  0.00     0.174 HD
ATOM     25  H11 UNL     1      38.824  44.530   7.297  1.00  0.00     0.174 HD
ENDBRANCH   1  23
TORSDOF 5
ENDMDL
MODEL 3
REMARK VINA RESULT: -5.376163360      2.823      3.867
REMARK  5 active torsions:
REMARK  status: ('A' for Active; 'I' for Inactive)
REMARK    1  A    between atoms: N1_1  and  C1_4 
REMARK    2  A    between atoms: C2_7  and  S1_8 
REMARK    3  A    between atoms: S1_8  and  C3_11 
REMARK    4  A    between atoms: C3_11  and  N3_12 
REMARK    5  A    between atoms: C3_11  and  N4_16 
ROOT
HETATM    1  C1  UNL     1      36.166  45.033  13.867  1.00  0.00     0.682 A 
HETATM    2  N2  UNL     1      35.290  45.363  12.906  1.00  0.00    -0.166 N 
ATOM      3  H2  UNL     1      34.442  45.874  13.152  1.00  0.00     0.186 HD
HETATM    4  C2  UNL     1      35.517  45.025  11.604  1.00  0.00     0.225 A 
HETATM    5  N5  UNL     1      36.628  44.353  11.261  1.00  0.00    -0.284 N 
ATOM      6  H5  UNL     1      36.799  44.098  10.288  1.00  0.00     0.172 HD
HETATM    7  C4  UNL     1      37.512  44.018  12.220  1.00  0.00     0.340 A 
HETATM    8  O3  UNL     1      38.552  43.385  11.873  1.00  0.00    -0.246 OA
HETATM    9  N6  UNL     1      37.271  44.359  13.497  1.00  0.00    -0.141 N 
ATOM     10  H6  UNL     1      37.951  44.099  14.211  1.00  0.00     0.189 HD
ENDROOT
BRANCH   4  11
HETATM   11  S1  UNL     1      34.346  45.473  10.399  1.00  0.00     0.263 S 
HETATM   12  O1  UNL     1      33.249  46.314  11.007  1.00  0.00    -0.216 OA
HETATM   13  O2  UNL     1      33.744  44.245   9.780  1.00  0.00    -0.216 OA
BRANCH  11  14
HETATM   14  C3  UNL     1      35.088  46.418   9.106  1.00  0.00     0.505 C 
BRANCH  14  15
HETATM   15  N3  UNL     1      36.175  45.741   8.441  1.00  0.00    -0.036 N 
ATOM     16  H33 UNL     1      37.072  46.056   8.809  1.00  0.00     0.278 HD
ATOM     17  H32 UNL     1      36.211  44.761   8.718  1.00  0.00     0.278 HD
ATOM     18  H31 UNL     1      36.153  45.827   7.425  1.00  0.00     0.278 HD
ENDBRANCH  14  15
BRANCH  14  19
HETATM   19  N4  UNL     1      35.683  47.650   9.663  1.00  0.00    -0.036 N 
ATOM     20  H43 UNL     1      36.702  47.613   9.672  1.00  0.00     0.278 HD
ATOM     21  H42 UNL     1      35.569  48.447   9.036  1.00  0.00     0.278 HD
ATOM     22  H41 UNL     1      35.298  47.834  10.589  1.00  0.00     0.278 HD
ENDBRANCH  14  19
ENDBRANCH  11  14
ENDBRANCH   4  11
BRANCH   1  23
HETATM   23  N1  UNL     1      35.959  45.351  15.119  1.00  0.00    -0.234 N 
ATOM     24  H12 UNL     1      36.664  45.161  15.832  1.00  0.00     0.174 HD
ATOM     25  H11 UNL     1      35.091  45.795  15.419  1.00  0.00     0.174 HD
ENDBRANCH   1  23
TORSDOF 5
ENDMDL
MODEL 4
REMARK VINA RESULT: -5.323414143      1.490      1.623
REMARK  5 active torsions:
REMARK  status: ('A' for Active; 'I' for Inactive)
REMARK    1  A    between atoms: N1_1  and  C1_4 
REMARK    2  A    between atoms: C2_7  and  S1_8 
REMARK    3  A    between atoms: S1_8  and  C3_11 
REMARK    4  A    between atoms: C3_11  and  N3_12 
REMARK    5  A    between atoms: C3_11  and  N4_16 
ROOT
HETATM    1  C1  UNL     1      35.664  47.108  15.369  1.00  0.00     0.682 A 
HETATM    2  N2  UNL     1      35.654  46.044  14.550  1.00  0.00    -0.166 N 
ATOM      3  H2  UNL     1      35.022  45.267  14.742  1.00  0.00     0.186 HD
HETATM    4  C2  UNL     1      36.478  45.989  13.463  1.00  0.00     0.225 A 
HETATM    5  N5  UNL     1      37.316  47.003  13.194  1.00  0.00    -0.284 N 
ATOM      6  H5  UNL     1      37.933  46.963  12.384  1.00  0.00     0.172 HD
HETATM    7  C4  UNL     1      37.330  48.074  14.012  1.00  0.00     0.340 A 
HETATM    8  O3  UNL     1      38.128  49.018  13.738  1.00  0.00    -0.246 OA
HETATM    9  N6  UNL     1      36.512  48.111  15.076  1.00  0.00    -0.141 N 
ATOM     10  H6  UNL     1      36.535  48.928  15.686  1.00  0.00     0.189 HD
ENDROOT
BRANCH   4  11
HETATM   11  S1  UNL     1      36.429  44.585  12.438  1.00  0.00     0.263 S 
HETATM   12  O1  UNL     1      35.153  44.558  11.631  1.00  0.00    -0.216 OA
HETATM   13  O2  UNL     1      36.519  43.336  13.265  1.00  0.00    -0.216 OA
BRANCH  11  14
HETATM   14  C3  UNL     1      37.779  44.577  11.302  1.00  0.00     0.505 C 
BRANCH  14  15
HETATM   15  N3  UNL     1      37.424  45.009   9.972  1.00  0.00    -0.036 N 
ATOM     16  H33 UNL     1      38.053  44.601   9.281  1.00  0.00     0.278 HD
ATOM     17  H32 UNL     1      36.546  44.581   9.678  1.00  0.00     0.278 HD
ATOM     18  H31 UNL     1      37.382  46.023   9.866  1.00  0.00     0.278 HD
ENDBRANCH  14  15
BRANCH  14  19
HETATM   19  N4  UNL     1      38.288  43.200  11.137  1.00  0.00    -0.036 N 
ATOM     20  H43 UNL     1      37.773  42.530  11.708  1.00  0.00     0.278 HD
ATOM     21  H42 UNL     1      38.064  42.816  10.218  1.00  0.00     0.278 HD
ATOM     22  H41 UNL     1      39.290  43.175  11.328  1.00  0.00     0.278 HD
ENDBRANCH  14  19
ENDBRANCH  11  14
ENDBRANCH   4  11
BRANCH   1  23
HETATM   23  N1  UNL     1      34.879  47.172  16.413  1.00  0.00    -0.234 N 
ATOM     24  H12 UNL     1      33.917  46.836  16.368  1.00  0.00     0.174 HD
ATOM     25  H11 UNL     1      35.204  47.558  17.300  1.00  0.00     0.174 HD
ENDBRANCH   1  23
TORSDOF 5
ENDMDL
MODEL 5
REMARK VINA RESULT: -5.285587563      2.325      4.802
REMARK  5 active torsions:
REMARK  status: ('A' for Active; 'I' for Inactive)
REMARK    1  A    between atoms: N1_1  and  C1_4 
REMARK    2  A    between atoms: C2_7  and  S1_8 
REMARK    3  A    between atoms: S1_8  and  C3_11 
REMARK    4  A    between atoms: C3_11  and  N3_12 
REMARK    5  A    between atoms: C3_11  and  N4_16 
ROOT
HETATM    1  C1  UNL     1      38.995  47.202  10.766  1.00  0.00     0.682 A 
HETATM    2  N2  UNL     1      38.097  46.602  11.563  1.00  0.00    -0.166 N 
ATOM      3  H2  UNL     1      37.728  47.103  12.371  1.00  0.00     0.186 HD
HETATM    4  C2  UNL     1      37.672  45.331  11.307  1.00  0.00     0.225 A 
HETATM    5  N5  UNL     1      38.148  44.656  10.248  1.00  0.00    -0.284 N 
ATOM      6  H5  UNL     1      37.832  43.706  10.056  1.00  0.00     0.172 HD
HETATM    7  C4  UNL     1      39.048  45.253   9.444  1.00  0.00     0.340 A 
HETATM    8  O3  UNL     1      39.483  44.598   8.450  1.00  0.00    -0.246 OA
HETATM    9  N6  UNL     1      39.455  46.505   9.711  1.00  0.00    -0.141 N 
ATOM     10  H6  UNL     1      40.138  46.942   9.092  1.00  0.00     0.189 HD
ENDROOT
BRANCH   4  11
HETATM   11  S1  UNL     1      36.511  44.599  12.375  1.00  0.00     0.263 S 
HETATM   12  O1  UNL     1      37.088  43.362  13.022  1.00  0.00    -0.216 OA
HETATM   13  O2  UNL     1      35.270  44.228  11.616  1.00  0.00    -0.216 OA
BRANCH  11  14
HETATM   14  C3  UNL     1      36.041  45.706  13.665  1.00  0.00     0.505 C 
BRANCH  14  15
HETATM   15  N3  UNL     1      36.249  45.178  14.991  1.00  0.00    -0.036 N 
ATOM     16  H33 UNL     1      35.549  44.469  15.209  1.00  0.00     0.278 HD
ATOM     17  H32 UNL     1      37.091  44.602  15.020  1.00  0.00     0.278 HD
ATOM     18  H31 UNL     1      36.277  45.892  15.719  1.00  0.00     0.278 HD
ENDBRANCH  14  15
BRANCH  14  19
HETATM   19  N4  UNL     1      34.593  45.987  13.584  1.00  0.00    -0.036 N 
ATOM     20  H43 UNL     1      34.404  46.973  13.403  1.00  0.00     0.278 HD
ATOM     21  H42 UNL     1      34.174  45.597  12.740  1.00  0.00     0.278 HD
ATOM     22  H41 UNL     1      34.128  45.657  14.430  1.00  0.00     0.278 HD
ENDBRANCH  14  19
ENDBRANCH  11  14
ENDBRANCH   4  11
BRANCH   1  23
HETATM   23  N1  UNL     1      39.411  48.420  11.001  1.00  0.00    -0.234 N 
ATOM     24  H12 UNL     1      38.903  49.227  10.638  1.00  0.00     0.174 HD
ATOM     25  H11 UNL     1      40.251  48.599  11.551  1.00  0.00     0.174 HD
ENDBRANCH   1  23
TORSDOF 5
ENDMDL
