MODEL 1
REMARK VINA RESULT: -5.750005165      0.000      0.000
REMARK  5 active torsions:
REMARK  status: ('A' for Active; 'I' for Inactive)
REMARK    1  A    between atoms: N1_1  and  N2_4 
REMARK    2  A    between atoms: N2_4  and  C1_6 
REMARK    3  A    between atoms: C4_14  and  C5_15 
REMARK    4  A    between atoms: C5_15  and  O2_16 
REMARK    5  A    between atoms: C5_15  and  C6_18 
ROOT
HETATM    1  C1  UNL     1      35.678  44.924  13.025  1.00  0.00     0.175 C 
HETATM    2  N3  UNL     1      34.544  45.404  12.483  1.00  0.00    -0.290 N 
ATOM      3  H3  UNL     1      33.770  45.512  13.139  1.00  0.00     0.172 HD
HETATM    4  C2  UNL     1      34.259  45.766  11.211  1.00  0.00     0.325 C 
HETATM    5  O1  UNL     1      33.042  45.972  10.930  1.00  0.00    -0.247 OA
HETATM    6  N4  UNL     1      35.097  45.946  10.172  1.00  0.00    -0.318 N 
ATOM      7  H4  UNL     1      34.669  46.350   9.339  1.00  0.00     0.170 HD
HETATM    8  C3  UNL     1      36.422  45.674  10.062  1.00  0.00     0.107 C 
HETATM    9  C4  UNL     1      37.173  45.024  11.027  1.00  0.00     0.046 C 
HETATM   10  C7  UNL     1      36.857  44.727  12.337  1.00  0.00     0.227 C 
HETATM   11  O4  UNL     1      37.784  44.199  13.002  1.00  0.00    -0.284 OA
ENDROOT
BRANCH   1  12
HETATM   12  N2  UNL     1      35.641  44.629  14.291  1.00  0.00    -0.289 N 
ATOM     13  H2  UNL     1      35.350  43.687  14.551  1.00  0.00     0.188 HD
BRANCH  12  14
HETATM   14  N1  UNL     1      35.966  45.495  15.296  1.00  0.00    -0.344 N 
ATOM     15  H12 UNL     1      35.818  46.487  15.113  1.00  0.00     0.176 HD
ATOM     16  H11 UNL     1      36.341  45.214  16.201  1.00  0.00     0.176 HD
ENDBRANCH  12  14
ENDBRANCH   1  12
BRANCH   9  17
HETATM   17  C5  UNL     1      38.529  44.585  10.555  1.00  0.00     0.217 C 
BRANCH  17  18
HETATM   18  O2  UNL     1      38.556  43.197  10.643  1.00  0.00    -0.384 OA
ATOM     19  H2  UNL     1      39.197  42.894  10.009  1.00  0.00     0.211 HD
ENDBRANCH  17  18
BRANCH  17  20
HETATM   20  C6  UNL     1      38.726  44.989   9.138  1.00  0.00     0.267 C 
HETATM   21  O3  UNL     1      39.661  45.713   8.870  1.00  0.00    -0.304 OA
ENDBRANCH  17  20
ENDBRANCH   9  17
TORSDOF 5
ENDMDL
MODEL 2
REMARK VINA RESULT: -5.580403209      2.472      4.712
REMARK  5 active torsions:
REMARK  status: ('A' for Active; 'I' for Inactive)
REMARK    1  A    between atoms: N1_1  and  N2_4 
REMARK    2  A    between atoms: N2_4  and  C1_6 
REMARK    3  A    between atoms: C4_14  and  C5_15 
REMARK    4  A    between atoms: C5_15  and  O2_16 
REMARK    5  A    between atoms: C5_15  and  C6_18 
ROOT
HETATM    1  C1  UNL     1      35.641  44.968  11.127  1.00  0.00     0.175 C 
HETATM    2  N3  UNL     1      36.801  44.902  10.448  1.00  0.00    -0.290 N 
ATOM      3  H3  UNL     1      36.731  44.470   9.527  1.00  0.00     0.172 HD
HETATM    4  C2  UNL     1      38.044  45.314  10.785  1.00  0.00     0.325 C 
HETATM    5  O1  UNL     1      38.998  44.925  10.049  1.00  0.00    -0.247 OA
HETATM    6  N4  UNL     1      38.430  46.097  11.811  1.00  0.00    -0.318 N 
ATOM      7  H4  UNL     1      39.409  46.383  11.789  1.00  0.00     0.170 HD
HETATM    8  C3  UNL     1      37.720  46.563  12.868  1.00  0.00     0.107 C 
HETATM    9  C4  UNL     1      36.412  46.208  13.154  1.00  0.00     0.046 C 
HETATM   10  C7  UNL     1      35.491  45.539  12.374  1.00  0.00     0.227 C 
HETATM   11  O4  UNL     1      34.344  45.434  12.877  1.00  0.00    -0.284 OA
ENDROOT
BRANCH   1  12
HETATM   12  N2  UNL     1      34.596  44.451  10.552  1.00  0.00    -0.289 N 
ATOM     13  H2  UNL     1      34.087  43.725  11.055  1.00  0.00     0.188 HD
BRANCH  12  14
HETATM   14  N1  UNL     1      34.135  44.813   9.318  1.00  0.00    -0.344 N 
ATOM     15  H12 UNL     1      33.767  45.760   9.225  1.00  0.00     0.176 HD
ATOM     16  H11 UNL     1      34.136  44.204   8.500  1.00  0.00     0.176 HD
ENDBRANCH  12  14
ENDBRANCH   1  12
BRANCH   9  17
HETATM   17  C5  UNL     1      35.950  46.621  14.521  1.00  0.00     0.217 C 
BRANCH  17  18
HETATM   18  O2  UNL     1      36.107  45.516  15.351  1.00  0.00    -0.384 OA
ATOM     19  H2  UNL     1      36.463  44.817  14.815  1.00  0.00     0.211 HD
ENDBRANCH  17  18
BRANCH  17  20
HETATM   20  C6  UNL     1      36.795  47.735  15.024  1.00  0.00     0.267 C 
HETATM   21  O3  UNL     1      37.380  47.585  16.076  1.00  0.00    -0.304 OA
ENDBRANCH  17  20
ENDBRANCH   9  17
TORSDOF 5
ENDMDL
MODEL 3
REMARK VINA RESULT: -5.342573230      2.499      3.973
REMARK  5 active torsions:
REMARK  status: ('A' for Active; 'I' for Inactive)
REMARK    1  A    between atoms: N1_1  and  N2_4 
REMARK    2  A    between atoms: N2_4  and  C1_6 
REMARK    3  A    between atoms: C4_14  and  C5_15 
REMARK    4  A    between atoms: C5_15  and  O2_16 
REMARK    5  A    between atoms: C5_15  and  C6_18 
ROOT
HETATM    1  C1  UNL     1      36.732  44.963  11.029  1.00  0.00     0.175 C 
HETATM    2  N3  UNL     1      35.793  45.089  10.073  1.00  0.00    -0.290 N 
ATOM      3  H3  UNL     1      36.075  44.754   9.152  1.00  0.00     0.172 HD
HETATM    4  C2  UNL     1      34.537  45.587  10.132  1.00  0.00     0.325 C 
HETATM    5  O1  UNL     1      33.948  45.794   9.030  1.00  0.00    -0.247 OA
HETATM    6  N4  UNL     1      33.800  45.904  11.213  1.00  0.00    -0.318 N 
ATOM      7  H4  UNL     1      32.826  46.140  11.016  1.00  0.00     0.170 HD
HETATM    8  C3  UNL     1      34.149  45.959  12.522  1.00  0.00     0.107 C 
HETATM    9  C4  UNL     1      35.438  45.789  12.999  1.00  0.00     0.046 C 
HETATM   10  C7  UNL     1      36.562  45.318  12.351  1.00  0.00     0.227 C 
HETATM   11  O4  UNL     1      37.582  45.195  13.074  1.00  0.00    -0.284 OA
ENDROOT
BRANCH   1  12
HETATM   12  N2  UNL     1      37.877  44.469  10.661  1.00  0.00    -0.289 N 
ATOM     13  H2  UNL     1      38.470  45.041  10.060  1.00  0.00     0.188 HD
BRANCH  12  14
HETATM   14  N1  UNL     1      38.340  43.236  11.025  1.00  0.00    -0.344 N 
ATOM     15  H12 UNL     1      37.835  42.429  10.658  1.00  0.00     0.176 HD
ATOM     16  H11 UNL     1      39.144  43.078  11.632  1.00  0.00     0.176 HD
ENDBRANCH  12  14
ENDBRANCH   1  12
BRANCH   9  17
HETATM   17  C5  UNL     1      35.616  46.181  14.437  1.00  0.00     0.217 C 
BRANCH  17  18
HETATM   18  O2  UNL     1      36.137  45.072  15.096  1.00  0.00    -0.384 OA
ATOM     19  H2  UNL     1      36.065  44.337  14.497  1.00  0.00     0.211 HD
ENDBRANCH  17  18
BRANCH  17  20
HETATM   20  C6  UNL     1      36.581  47.307  14.537  1.00  0.00     0.267 C 
HETATM   21  O3  UNL     1      37.211  47.436  15.566  1.00  0.00    -0.304 OA
ENDBRANCH  17  20
ENDBRANCH   9  17
TORSDOF 5
ENDMDL
MODEL 4
REMARK VINA RESULT: -5.334710600      2.776      3.806
REMARK  5 active torsions:
REMARK  status: ('A' for Active; 'I' for Inactive)
REMARK    1  A    between atoms: N1_1  and  N2_4 
REMARK    2  A    between atoms: N2_4  and  C1_6 
REMARK    3  A    between atoms: C4_14  and  C5_15 
REMARK    4  A    between atoms: C5_15  and  O2_16 
REMARK    5  A    between atoms: C5_15  and  C6_18 
ROOT
HETATM    1  C1  UNL     1      36.330  46.184  14.098  1.00  0.00     0.175 C 
HETATM    2  N3  UNL     1      37.450  46.923  13.995  1.00  0.00    -0.290 N 
ATOM      3  H3  UNL     1      37.935  47.087  14.877  1.00  0.00     0.172 HD
HETATM    4  C2  UNL     1      38.038  47.485  12.914  1.00  0.00     0.325 C 
HETATM    5  O1  UNL     1      38.964  48.320  13.133  1.00  0.00    -0.247 OA
HETATM    6  N4  UNL     1      37.780  47.285  11.608  1.00  0.00    -0.318 N 
ATOM      7  H4  UNL     1      38.443  47.722  10.967  1.00  0.00     0.170 HD
HETATM    8  C3  UNL     1      36.777  46.594  11.011  1.00  0.00     0.107 C 
HETATM    9  C4  UNL     1      35.710  46.021  11.684  1.00  0.00     0.046 C 
HETATM   10  C7  UNL     1      35.533  45.810  13.036  1.00  0.00     0.227 C 
HETATM   11  O4  UNL     1      34.488  45.184  13.345  1.00  0.00    -0.284 OA
ENDROOT
BRANCH   1  12
HETATM   12  N2  UNL     1      35.989  45.803  15.294  1.00  0.00    -0.289 N 
ATOM     13  H2  UNL     1      36.451  44.980  15.680  1.00  0.00     0.188 HD
BRANCH  12  14
HETATM   14  N1  UNL     1      35.054  46.431  16.068  1.00  0.00    -0.344 N 
ATOM     15  H12 UNL     1      35.157  47.439  16.184  1.00  0.00     0.176 HD
ATOM     16  H11 UNL     1      34.276  45.959  16.527  1.00  0.00     0.176 HD
ENDBRANCH  12  14
ENDBRANCH   1  12
BRANCH   9  17
HETATM   17  C5  UNL     1      34.593  45.569  10.789  1.00  0.00     0.217 C 
BRANCH  17  18
HETATM   18  O2  UNL     1      33.479  46.336  11.117  1.00  0.00    -0.384 OA
ATOM     19  H2  UNL     1      33.495  47.100  10.551  1.00  0.00     0.211 HD
ENDBRANCH  17  18
BRANCH  17  20
HETATM   20  C6  UNL     1      34.954  45.814   9.368  1.00  0.00     0.267 C 
HETATM   21  O3  UNL     1      34.058  45.951   8.562  1.00  0.00    -0.304 OA
ENDBRANCH  17  20
ENDBRANCH   9  17
TORSDOF 5
ENDMDL
MODEL 5
REMARK VINA RESULT: -5.273367558      2.392      5.471
REMARK  5 active torsions:
REMARK  status: ('A' for Active; 'I' for Inactive)
REMARK    1  A    between atoms: N1_1  and  N2_4 
REMARK    2  A    between atoms: N2_4  and  C1_6 
REMARK    3  A    between atoms: C4_14  and  C5_15 
REMARK    4  A    between atoms: C5_15  and  O2_16 
REMARK    5  A    between atoms: C5_15  and  C6_18 
ROOT
HETATM    1  C1  UNL     1      35.288  45.188  11.102  1.00  0.00     0.175 C 
HETATM    2  N3  UNL     1      36.166  44.280  11.565  1.00  0.00    -0.290 N 
ATOM      3  H3  UNL     1      36.544  43.652  10.856  1.00  0.00     0.172 HD
HETATM    4  C2  UNL     1      36.631  44.062  12.817  1.00  0.00     0.325 C 
HETATM    5  O1  UNL     1      37.281  42.993  13.011  1.00  0.00    -0.247 OA
HETATM    6  N4  UNL     1      36.502  44.830  13.915  1.00  0.00    -0.318 N 
ATOM      7  H4  UNL     1      37.051  44.525  14.720  1.00  0.00     0.170 HD
HETATM    8  C3  UNL     1      35.757  45.945  14.119  1.00  0.00     0.107 C 
HETATM    9  C4  UNL     1      34.857  46.465  13.204  1.00  0.00     0.046 C 
HETATM   10  C7  UNL     1      34.677  46.156  11.871  1.00  0.00     0.227 C 
HETATM   11  O4  UNL     1      33.829  46.862  11.270  1.00  0.00    -0.284 OA
ENDROOT
BRANCH   1  12
HETATM   12  N2  UNL     1      35.006  45.134   9.833  1.00  0.00    -0.289 N 
ATOM     13  H2  UNL     1      35.613  45.642   9.190  1.00  0.00     0.188 HD
BRANCH  12  14
HETATM   14  N1  UNL     1      33.952  44.443   9.304  1.00  0.00    -0.344 N 
ATOM     15  H12 UNL     1      33.920  44.365   8.288  1.00  0.00     0.176 HD
ATOM     16  H11 UNL     1      33.212  44.011   9.855  1.00  0.00     0.176 HD
ENDBRANCH  12  14
ENDBRANCH   1  12
BRANCH   9  17
HETATM   17  C5  UNL     1      33.951  47.521  13.769  1.00  0.00     0.217 C 
BRANCH  17  18
HETATM   18  O2  UNL     1      32.658  47.010  13.722  1.00  0.00    -0.384 OA
ATOM     19  H2  UNL     1      32.192  47.502  13.056  1.00  0.00     0.211 HD
ENDBRANCH  17  18
BRANCH  17  20
HETATM   20  C6  UNL     1      34.317  47.797  15.182  1.00  0.00     0.267 C 
HETATM   21  O3  UNL     1      33.445  48.160  15.943  1.00  0.00    -0.304 OA
ENDBRANCH  17  20
ENDBRANCH   9  17
TORSDOF 5
ENDMDL
