MODEL 1
REMARK VINA RESULT: -5.852284700      0.000      0.000
REMARK  4 active torsions:
REMARK  status: ('A' for Active; 'I' for Inactive)
REMARK    1  A    between atoms: C1_4  and  N2_5 
REMARK    2  A    between atoms: C3_7  and  C4_8 
REMARK    3  A    between atoms: N3_9  and  N4_11 
REMARK    4  A    between atoms: C7_20  and  N8_21 
ROOT
HETATM    1  N2  UNL     1      38.005  45.495  11.401  1.00  0.00    -0.154 N 
HETATM    2  C2  UNL     1      37.348  46.341  12.218  1.00  0.00     0.134 A 
HETATM    3  C3  UNL     1      36.508  45.906  13.216  1.00  0.00     0.066 A 
HETATM    4  C6  UNL     1      36.357  44.545  13.360  1.00  0.00     0.272 A 
HETATM    5  O1  UNL     1      35.608  44.072  14.250  1.00  0.00    -0.267 OA
HETATM    6  N7  UNL     1      37.008  43.665  12.552  1.00  0.00    -0.155 N 
ATOM      7  H7  UNL     1      36.888  42.659  12.669  1.00  0.00     0.187 HD
HETATM    8  C7  UNL     1      37.811  44.157  11.597  1.00  0.00     0.685 A 
ENDROOT
BRANCH   3   9
HETATM    9  C4  UNL     1      35.813  46.845  14.080  1.00  0.00     0.125 C 
HETATM   10  N3  UNL     1      35.888  46.702  15.373  1.00  0.00    -0.309 N 
ATOM     11  H3  UNL     1      36.431  45.936  15.772  1.00  0.00     0.186 HD
BRANCH  10  12
HETATM   12  N4  UNL     1      35.222  47.600  16.211  1.00  0.00    -0.276 N 
HETATM   13  C5  UNL     1      35.882  48.362  16.997  1.00  0.00     0.215 C 
HETATM   14  N5  UNL     1      35.196  49.261  17.836  1.00  0.00    -0.065 NA
HETATM   15  N6  UNL     1      37.290  48.307  17.030  1.00  0.00    -0.065 NA
ATOM     16  H4  UNL     1      34.203  47.648  16.197  1.00  0.00     0.189 HD
ENDBRANCH  10  12
ENDBRANCH   3   9
BRANCH   1  17
HETATM   17  C1  UNL     1      38.871  45.936  10.371  1.00  0.00     0.199 C 
HETATM   18  N1  UNL     1      39.370  47.112  10.361  1.00  0.00    -0.394 N 
ATOM     19  H12 UNL     1      39.127  47.741  11.127  1.00  0.00     0.156 HD
ATOM     20  H11 UNL     1      39.994  47.431   9.619  1.00  0.00     0.156 HD
ENDBRANCH   1  17
BRANCH   8  21
HETATM   21  N8  UNL     1      38.452  43.345  10.803  1.00  0.00    -0.234 N 
ATOM     22  H82 UNL     1      37.974  42.934  10.000  1.00  0.00     0.174 HD
ATOM     23  H81 UNL     1      39.428  43.154  11.028  1.00  0.00     0.174 HD
ENDBRANCH   8  21
TORSDOF 4
ENDMDL
MODEL 2
REMARK VINA RESULT: -5.810007182      0.969      1.016
REMARK  4 active torsions:
REMARK  status: ('A' for Active; 'I' for Inactive)
REMARK    1  A    between atoms: C1_4  and  N2_5 
REMARK    2  A    between atoms: C3_7  and  C4_8 
REMARK    3  A    between atoms: N3_9  and  N4_11 
REMARK    4  A    between atoms: C7_20  and  N8_21 
ROOT
HETATM    1  N2  UNL     1      38.218  45.733  11.351  1.00  0.00    -0.154 N 
HETATM    2  C2  UNL     1      37.718  46.418  12.398  1.00  0.00     0.134 A 
HETATM    3  C3  UNL     1      36.917  45.834  13.352  1.00  0.00     0.066 A 
HETATM    4  C6  UNL     1      36.637  44.495  13.201  1.00  0.00     0.272 A 
HETATM    5  O1  UNL     1      35.914  43.891  14.032  1.00  0.00    -0.267 OA
HETATM    6  N7  UNL     1      37.128  43.776  12.156  1.00  0.00    -0.155 N 
ATOM      7  H7  UNL     1      36.913  42.783  12.056  1.00  0.00     0.187 HD
HETATM    8  C7  UNL     1      37.902  44.407  11.260  1.00  0.00     0.685 A 
ENDROOT
BRANCH   3   9
HETATM    9  C4  UNL     1      36.393  46.601  14.469  1.00  0.00     0.125 C 
HETATM   10  N3  UNL     1      37.220  47.208  15.273  1.00  0.00    -0.309 N 
ATOM     11  H3  UNL     1      38.225  47.144  15.116  1.00  0.00     0.186 HD
BRANCH  10  12
HETATM   12  N4  UNL     1      36.724  47.947  16.350  1.00  0.00    -0.276 N 
HETATM   13  C5  UNL     1      36.773  49.224  16.336  1.00  0.00     0.215 C 
HETATM   14  N5  UNL     1      36.270  49.954  17.430  1.00  0.00    -0.065 NA
HETATM   15  N6  UNL     1      37.328  49.906  15.234  1.00  0.00    -0.065 NA
ATOM     16  H4  UNL     1      36.321  47.465  17.154  1.00  0.00     0.189 HD
ENDBRANCH  10  12
ENDBRANCH   3   9
BRANCH   1  17
HETATM   17  C1  UNL     1      39.043  46.328  10.366  1.00  0.00     0.199 C 
HETATM   18  N1  UNL     1      39.416  47.548  10.438  1.00  0.00    -0.394 N 
ATOM     19  H12 UNL     1      39.100  48.097  11.237  1.00  0.00     0.156 HD
ATOM     20  H11 UNL     1      40.010  47.976   9.728  1.00  0.00     0.156 HD
ENDBRANCH   1  17
BRANCH   8  21
HETATM   21  N8  UNL     1      38.391  43.752  10.245  1.00  0.00    -0.234 N 
ATOM     22  H82 UNL     1      38.243  44.096   9.296  1.00  0.00     0.174 HD
ATOM     23  H81 UNL     1      38.913  42.900  10.453  1.00  0.00     0.174 HD
ENDBRANCH   8  21
TORSDOF 4
ENDMDL
MODEL 3
REMARK VINA RESULT: -5.689192496      2.201      6.185
REMARK  4 active torsions:
REMARK  status: ('A' for Active; 'I' for Inactive)
REMARK    1  A    between atoms: C1_4  and  N2_5 
REMARK    2  A    between atoms: C3_7  and  C4_8 
REMARK    3  A    between atoms: N3_9  and  N4_11 
REMARK    4  A    between atoms: C7_20  and  N8_21 
ROOT
HETATM    1  N2  UNL     1      36.621  46.815  13.878  1.00  0.00    -0.154 N 
HETATM    2  C2  UNL     1      37.316  46.459  12.780  1.00  0.00     0.134 A 
HETATM    3  C3  UNL     1      37.423  45.154  12.361  1.00  0.00     0.066 A 
HETATM    4  C6  UNL     1      36.780  44.199  13.116  1.00  0.00     0.272 A 
HETATM    5  O1  UNL     1      36.830  42.985  12.796  1.00  0.00    -0.267 OA
HETATM    6  N7  UNL     1      36.069  44.526  14.229  1.00  0.00    -0.155 N 
ATOM      7  H7  UNL     1      35.597  43.809  14.779  1.00  0.00     0.187 HD
HETATM    8  C7  UNL     1      36.007  45.819  14.583  1.00  0.00     0.685 A 
ENDROOT
BRANCH   3   9
HETATM    9  C4  UNL     1      38.180  44.802  11.172  1.00  0.00     0.125 C 
HETATM   10  N3  UNL     1      37.595  44.829  10.009  1.00  0.00    -0.309 N 
ATOM     11  H3  UNL     1      36.613  45.095   9.936  1.00  0.00     0.186 HD
BRANCH  10  12
HETATM   12  N4  UNL     1      38.316  44.492   8.860  1.00  0.00    -0.276 N 
HETATM   13  C5  UNL     1      37.978  44.966   7.722  1.00  0.00     0.215 C 
HETATM   14  N5  UNL     1      38.716  44.616   6.574  1.00  0.00    -0.065 NA
HETATM   15  N6  UNL     1      36.874  45.834   7.609  1.00  0.00    -0.065 NA
ATOM     16  H4  UNL     1      39.117  43.863   8.930  1.00  0.00     0.189 HD
ENDBRANCH  10  12
ENDBRANCH   3   9
BRANCH   1  17
HETATM   17  C1  UNL     1      36.508  48.157  14.315  1.00  0.00     0.199 C 
HETATM   18  N1  UNL     1      37.529  48.908  14.475  1.00  0.00    -0.394 N 
ATOM     19  H12 UNL     1      38.448  48.512  14.278  1.00  0.00     0.156 HD
ATOM     20  H11 UNL     1      37.447  49.875  14.790  1.00  0.00     0.156 HD
ENDBRANCH   1  17
BRANCH   8  21
HETATM   21  N8  UNL     1      35.336  46.172  15.643  1.00  0.00    -0.234 N 
ATOM     22  H82 UNL     1      35.805  46.665  16.403  1.00  0.00     0.174 HD
ATOM     23  H81 UNL     1      34.344  45.933  15.663  1.00  0.00     0.174 HD
ENDBRANCH   8  21
TORSDOF 4
ENDMDL
MODEL 4
REMARK VINA RESULT: -5.605983500      1.815      5.979
REMARK  4 active torsions:
REMARK  status: ('A' for Active; 'I' for Inactive)
REMARK    1  A    between atoms: C1_4  and  N2_5 
REMARK    2  A    between atoms: C3_7  and  C4_8 
REMARK    3  A    between atoms: N3_9  and  N4_11 
REMARK    4  A    between atoms: C7_20  and  N8_21 
ROOT
HETATM    1  N2  UNL     1      35.560  47.095  13.822  1.00  0.00    -0.154 N 
HETATM    2  C2  UNL     1      35.957  46.702  12.596  1.00  0.00     0.134 A 
HETATM    3  C3  UNL     1      36.353  45.414  12.322  1.00  0.00     0.066 A 
HETATM    4  C6  UNL     1      36.327  44.515  13.365  1.00  0.00     0.272 A 
HETATM    5  O1  UNL     1      36.674  43.320  13.193  1.00  0.00    -0.267 OA
HETATM    6  N7  UNL     1      35.931  44.881  14.614  1.00  0.00    -0.155 N 
ATOM      7  H7  UNL     1      35.916  44.205  15.378  1.00  0.00     0.187 HD
HETATM    8  C7  UNL     1      35.559  46.154  14.813  1.00  0.00     0.685 A 
ENDROOT
BRANCH   3   9
HETATM    9  C4  UNL     1      36.776  45.022  10.989  1.00  0.00     0.125 C 
HETATM   10  N3  UNL     1      38.026  44.723  10.775  1.00  0.00    -0.309 N 
ATOM     11  H3  UNL     1      38.699  44.763  11.540  1.00  0.00     0.186 HD
BRANCH  10  12
HETATM   12  N4  UNL     1      38.441  44.345   9.496  1.00  0.00    -0.276 N 
HETATM   13  C5  UNL     1      39.199  45.112   8.809  1.00  0.00     0.215 C 
HETATM   14  N5  UNL     1      39.609  44.717   7.521  1.00  0.00    -0.065 NA
HETATM   15  N6  UNL     1      39.625  46.350   9.332  1.00  0.00    -0.065 NA
ATOM     16  H4  UNL     1      38.138  43.452   9.107  1.00  0.00     0.189 HD
ENDBRANCH  10  12
ENDBRANCH   3   9
BRANCH   1  17
HETATM   17  C1  UNL     1      35.152  48.420  14.111  1.00  0.00     0.199 C 
HETATM   18  N1  UNL     1      35.941  49.417  13.981  1.00  0.00    -0.394 N 
ATOM     19  H12 UNL     1      36.891  49.235  13.658  1.00  0.00     0.156 HD
ATOM     20  H11 UNL     1      35.647  50.372  14.189  1.00  0.00     0.156 HD
ENDBRANCH   1  17
BRANCH   8  21
HETATM   21  N8  UNL     1      35.172  46.543  15.996  1.00  0.00    -0.234 N 
ATOM     22  H82 UNL     1      34.793  47.482  16.126  1.00  0.00     0.174 HD
ATOM     23  H81 UNL     1      35.270  45.872  16.758  1.00  0.00     0.174 HD
ENDBRANCH   8  21
TORSDOF 4
ENDMDL
MODEL 5
REMARK VINA RESULT: -5.446623125      2.446      6.610
REMARK  4 active torsions:
REMARK  status: ('A' for Active; 'I' for Inactive)
REMARK    1  A    between atoms: C1_4  and  N2_5 
REMARK    2  A    between atoms: C3_7  and  C4_8 
REMARK    3  A    between atoms: N3_9  and  N4_11 
REMARK    4  A    between atoms: C7_20  and  N8_21 
ROOT
HETATM    1  N2  UNL     1      37.023  46.002  13.333  1.00  0.00    -0.154 N 
HETATM    2  C2  UNL     1      37.796  46.553  12.377  1.00  0.00     0.134 A 
HETATM    3  C3  UNL     1      38.354  45.815  11.358  1.00  0.00     0.066 A 
HETATM    4  C6  UNL     1      38.090  44.464  11.346  1.00  0.00     0.272 A 
HETATM    5  O1  UNL     1      38.564  43.725  10.447  1.00  0.00    -0.267 OA
HETATM    6  N7  UNL     1      37.313  43.879  12.297  1.00  0.00    -0.155 N 
ATOM      7  H7  UNL     1      37.125  42.876  12.276  1.00  0.00     0.187 HD
HETATM    8  C7  UNL     1      36.801  44.656  13.263  1.00  0.00     0.685 A 
ENDROOT
BRANCH   3   9
HETATM    9  C4  UNL     1      39.183  46.440  10.342  1.00  0.00     0.125 C 
HETATM   10  N3  UNL     1      38.997  46.137   9.089  1.00  0.00    -0.309 N 
ATOM     11  H3  UNL     1      38.273  45.467   8.826  1.00  0.00     0.186 HD
BRANCH  10  12
HETATM   12  N4  UNL     1      39.790  46.732   8.104  1.00  0.00    -0.276 N 
HETATM   13  C5  UNL     1      40.235  46.039   7.126  1.00  0.00     0.215 C 
HETATM   14  N5  UNL     1      41.033  46.655   6.143  1.00  0.00    -0.065 NA
HETATM   15  N6  UNL     1      39.934  44.666   7.027  1.00  0.00    -0.065 NA
ATOM     16  H4  UNL     1      40.015  47.725   8.166  1.00  0.00     0.189 HD
ENDBRANCH  10  12
ENDBRANCH   3   9
BRANCH   1  17
HETATM   17  C1  UNL     1      36.446  46.755  14.384  1.00  0.00     0.199 C 
HETATM   18  N1  UNL     1      37.143  47.219  15.350  1.00  0.00    -0.394 N 
ATOM     19  H12 UNL     1      38.145  47.031  15.349  1.00  0.00     0.156 HD
ATOM     20  H11 UNL     1      36.727  47.762  16.107  1.00  0.00     0.156 HD
ENDBRANCH   1  17
BRANCH   8  21
HETATM   21  N8  UNL     1      36.051  44.132  14.192  1.00  0.00    -0.234 N 
ATOM     22  H82 UNL     1      36.144  43.143  14.425  1.00  0.00     0.174 HD
ATOM     23  H81 UNL     1      35.387  44.753  14.654  1.00  0.00     0.174 HD
ENDBRANCH   8  21
TORSDOF 4
ENDMDL
