MODEL 1
REMARK VINA RESULT: -7.113696448      0.000      0.000
REMARK  4 active torsions:
REMARK  status: ('A' for Active; 'I' for Inactive)
REMARK    1  A    between atoms: N1_1  and  C1_4 
REMARK    2  A    between atoms: C4_9  and  C5_10 
REMARK    3  A    between atoms: C7_14  and  N4_15 
REMARK    4  A    between atoms: C8_20  and  O1_21 
ROOT
HETATM    1  C5  UNL     1      36.949  52.425  77.460  1.00  0.00     0.092 A 
HETATM    2  N3  UNL     1      37.335  53.270  78.372  1.00  0.00    -0.345 N 
ATOM      3  H3  UNL     1      36.876  54.178  78.440  1.00  0.00     0.167 HD
HETATM    4  C6  UNL     1      38.294  52.976  79.195  1.00  0.00     0.094 A 
HETATM    5  C7  UNL     1      38.811  53.783  80.223  1.00  0.00     0.129 A 
HETATM    6  N5  UNL     1      39.795  53.356  80.992  1.00  0.00    -0.322 N 
ATOM      7  H5  UNL     1      40.125  53.991  81.719  1.00  0.00     0.169 HD
HETATM    8  C8  UNL     1      40.404  52.151  80.905  1.00  0.00     0.142 A 
HETATM    9  C9  UNL     1      39.921  51.332  79.907  1.00  0.00     0.077 A 
HETATM   10  C10 UNL     1      38.880  51.743  79.068  1.00  0.00     0.041 A 
HETATM   11  S1  UNL     1      37.997  51.090  77.752  1.00  0.00    -0.069 SA
ENDROOT
BRANCH   1  12
HETATM   12  C4  UNL     1      35.919  52.475  76.414  1.00  0.00     0.042 A 
HETATM   13  C3  UNL     1      35.282  53.543  75.916  1.00  0.00     0.053 A 
HETATM   14  C2  UNL     1      34.337  53.322  74.918  1.00  0.00     0.059 A 
HETATM   15  N2  UNL     1      33.545  54.155  74.229  1.00  0.00    -0.335 N 
HETATM   16  C11 UNL     1      34.199  51.997  74.586  1.00  0.00     0.076 A 
HETATM   17  C1  UNL     1      32.726  53.653  73.319  1.00  0.00     0.143 A 
ATOM     18  H2  UNL     1      33.574  55.160  74.403  1.00  0.00     0.168 HD
HETATM   19  S3  UNL     1      33.003  51.981  73.362  1.00  0.00    -0.045 SA
HETATM   20  S2  UNL     1      35.293  51.134  75.581  1.00  0.00    -0.078 SA
BRANCH  17  21
HETATM   21  N1  UNL     1      31.887  54.322  72.557  1.00  0.00    -0.380 N 
ATOM     22  H12 UNL     1      31.075  54.870  72.840  1.00  0.00     0.158 HD
ATOM     23  H11 UNL     1      31.913  54.400  71.540  1.00  0.00     0.158 HD
ENDBRANCH  17  21
ENDBRANCH   1  12
BRANCH   5  24
HETATM   24  N4  UNL     1      38.329  54.976  80.436  1.00  0.00    -0.384 N 
ATOM     25  H42 UNL     1      37.403  55.198  80.071  1.00  0.00     0.157 HD
ATOM     26  H41 UNL     1      38.868  55.668  80.957  1.00  0.00     0.157 HD
ENDBRANCH   5  24
BRANCH   8  27
HETATM   27  O1  UNL     1      41.427  51.764  81.740  1.00  0.00    -0.346 OA
ATOM     28  H1  UNL     1      41.548  50.867  82.032  1.00  0.00     0.219 HD
ENDBRANCH   8  27
TORSDOF 4
ENDMDL
MODEL 2
REMARK VINA RESULT: -7.023513685      1.235      1.259
REMARK  4 active torsions:
REMARK  status: ('A' for Active; 'I' for Inactive)
REMARK    1  A    between atoms: N1_1  and  C1_4 
REMARK    2  A    between atoms: C4_9  and  C5_10 
REMARK    3  A    between atoms: C7_14  and  N4_15 
REMARK    4  A    between atoms: C8_20  and  O1_21 
ROOT
HETATM    1  C5  UNL     1      37.293  52.278  77.595  1.00  0.00     0.092 A 
HETATM    2  N3  UNL     1      37.393  53.292  78.404  1.00  0.00    -0.345 N 
ATOM      3  H3  UNL     1      36.796  54.106  78.265  1.00  0.00     0.167 HD
HETATM    4  C6  UNL     1      38.241  53.283  79.387  1.00  0.00     0.094 A 
HETATM    5  C7  UNL     1      38.457  54.299  80.334  1.00  0.00     0.129 A 
HETATM    6  N5  UNL     1      39.358  54.157  81.288  1.00  0.00    -0.322 N 
ATOM      7  H5  UNL     1      39.466  54.932  81.943  1.00  0.00     0.169 HD
HETATM    8  C8  UNL     1      40.151  53.077  81.477  1.00  0.00     0.142 A 
HETATM    9  C9  UNL     1      39.964  52.060  80.565  1.00  0.00     0.077 A 
HETATM   10  C10 UNL     1      39.022  52.166  79.538  1.00  0.00     0.041 A 
HETATM   11  S1  UNL     1      38.472  51.198  78.235  1.00  0.00    -0.069 SA
ENDROOT
BRANCH   1  12
HETATM   12  C4  UNL     1      36.449  52.006  76.423  1.00  0.00     0.042 A 
HETATM   13  C3  UNL     1      36.094  52.839  75.436  1.00  0.00     0.053 A 
HETATM   14  C2  UNL     1      35.276  52.332  74.428  1.00  0.00     0.059 A 
HETATM   15  N2  UNL     1      34.755  52.890  73.328  1.00  0.00    -0.335 N 
HETATM   16  C11 UNL     1      34.950  51.011  74.609  1.00  0.00     0.076 A 
HETATM   17  C1  UNL     1      33.997  52.151  72.534  1.00  0.00     0.143 A 
ATOM     18  H2  UNL     1      34.940  53.868  73.105  1.00  0.00     0.168 HD
HETATM   19  S3  UNL     1      33.959  50.624  73.269  1.00  0.00    -0.045 SA
HETATM   20  S2  UNL     1      35.716  50.517  76.058  1.00  0.00    -0.078 SA
BRANCH  17  21
HETATM   21  N1  UNL     1      33.410  52.535  71.420  1.00  0.00    -0.380 N 
ATOM     22  H12 UNL     1      33.516  53.419  70.922  1.00  0.00     0.158 HD
ATOM     23  H11 UNL     1      32.743  52.001  70.864  1.00  0.00     0.158 HD
ENDBRANCH  17  21
ENDBRANCH   1  12
BRANCH   5  24
HETATM   24  N4  UNL     1      37.770  55.406  80.287  1.00  0.00    -0.384 N 
ATOM     25  H42 UNL     1      37.201  55.660  81.095  1.00  0.00     0.157 HD
ATOM     26  H41 UNL     1      37.804  56.003  79.461  1.00  0.00     0.157 HD
ENDBRANCH   5  24
BRANCH   8  27
HETATM   27  O1  UNL     1      41.073  52.990  82.495  1.00  0.00    -0.346 OA
ATOM     28  H1  UNL     1      41.708  52.287  82.561  1.00  0.00     0.219 HD
ENDBRANCH   8  27
TORSDOF 4
ENDMDL
MODEL 3
REMARK VINA RESULT: -6.984970223      1.300      1.368
REMARK  4 active torsions:
REMARK  status: ('A' for Active; 'I' for Inactive)
REMARK    1  A    between atoms: N1_1  and  C1_4 
REMARK    2  A    between atoms: C4_9  and  C5_10 
REMARK    3  A    between atoms: C7_14  and  N4_15 
REMARK    4  A    between atoms: C8_20  and  O1_21 
ROOT
HETATM    1  C5  UNL     1      36.959  52.282  77.392  1.00  0.00     0.092 A 
HETATM    2  N3  UNL     1      37.328  53.163  78.276  1.00  0.00    -0.345 N 
ATOM      3  H3  UNL     1      36.856  54.066  78.312  1.00  0.00     0.167 HD
HETATM    4  C6  UNL     1      38.286  52.909  79.114  1.00  0.00     0.094 A 
HETATM    5  C7  UNL     1      38.787  53.757  80.116  1.00  0.00     0.129 A 
HETATM    6  N5  UNL     1      39.772  53.369  80.905  1.00  0.00    -0.322 N 
ATOM      7  H5  UNL     1      40.090  54.032  81.611  1.00  0.00     0.169 HD
HETATM    8  C8  UNL     1      40.398  52.171  80.860  1.00  0.00     0.142 A 
HETATM    9  C9  UNL     1      39.931  51.312  79.888  1.00  0.00     0.077 A 
HETATM   10  C10 UNL     1      38.889  51.681  79.030  1.00  0.00     0.041 A 
HETATM   11  S1  UNL     1      38.023  50.972  77.733  1.00  0.00    -0.069 SA
ENDROOT
BRANCH   1  12
HETATM   12  C4  UNL     1      35.934  52.283  76.339  1.00  0.00     0.042 A 
HETATM   13  C3  UNL     1      34.766  51.628  76.307  1.00  0.00     0.053 A 
HETATM   14  C2  UNL     1      33.963  51.797  75.181  1.00  0.00     0.059 A 
HETATM   15  N2  UNL     1      32.767  51.295  74.846  1.00  0.00    -0.335 N 
HETATM   16  C11 UNL     1      34.511  52.640  74.247  1.00  0.00     0.076 A 
HETATM   17  C1  UNL     1      32.231  51.638  73.687  1.00  0.00     0.143 A 
ATOM     18  H2  UNL     1      32.278  50.658  75.475  1.00  0.00     0.168 HD
HETATM   19  S3  UNL     1      33.360  52.687  72.981  1.00  0.00    -0.045 SA
HETATM   20  S2  UNL     1      36.017  53.152  74.881  1.00  0.00    -0.078 SA
BRANCH  17  21
HETATM   21  N1  UNL     1      31.073  51.242  73.203  1.00  0.00    -0.380 N 
ATOM     22  H12 UNL     1      30.881  50.800  72.304  1.00  0.00     0.158 HD
ATOM     23  H11 UNL     1      30.162  51.315  73.657  1.00  0.00     0.158 HD
ENDBRANCH  17  21
ENDBRANCH   1  12
BRANCH   5  24
HETATM   24  N4  UNL     1      38.288  54.950  80.287  1.00  0.00    -0.384 N 
ATOM     25  H42 UNL     1      38.632  55.709  79.699  1.00  0.00     0.157 HD
ATOM     26  H41 UNL     1      37.569  55.116  80.991  1.00  0.00     0.157 HD
ENDBRANCH   5  24
BRANCH   8  27
HETATM   27  O1  UNL     1      41.421  51.825  81.714  1.00  0.00    -0.346 OA
ATOM     28  H1  UNL     1      41.323  51.185  82.409  1.00  0.00     0.219 HD
ENDBRANCH   8  27
TORSDOF 4
ENDMDL
MODEL 4
REMARK VINA RESULT: -6.937409684      2.118      2.324
REMARK  4 active torsions:
REMARK  status: ('A' for Active; 'I' for Inactive)
REMARK    1  A    between atoms: N1_1  and  C1_4 
REMARK    2  A    between atoms: C4_9  and  C5_10 
REMARK    3  A    between atoms: C7_14  and  N4_15 
REMARK    4  A    between atoms: C8_20  and  O1_21 
ROOT
HETATM    1  C5  UNL     1      37.369  52.083  77.632  1.00  0.00     0.092 A 
HETATM    2  N3  UNL     1      37.437  53.132  78.399  1.00  0.00    -0.345 N 
ATOM      3  H3  UNL     1      36.815  53.921  78.227  1.00  0.00     0.167 HD
HETATM    4  C6  UNL     1      38.285  53.189  79.381  1.00  0.00     0.094 A 
HETATM    5  C7  UNL     1      38.469  54.250  80.285  1.00  0.00     0.129 A 
HETATM    6  N5  UNL     1      39.374  54.176  81.243  1.00  0.00    -0.322 N 
ATOM      7  H5  UNL     1      39.458  54.980  81.865  1.00  0.00     0.169 HD
HETATM    8  C8  UNL     1      40.199  53.130  81.475  1.00  0.00     0.142 A 
HETATM    9  C9  UNL     1      40.045  52.070  80.607  1.00  0.00     0.077 A 
HETATM   10  C10 UNL     1      39.099  52.105  79.576  1.00  0.00     0.041 A 
HETATM   11  S1  UNL     1      38.581  51.067  78.315  1.00  0.00    -0.069 SA
ENDROOT
BRANCH   1  12
HETATM   12  C4  UNL     1      36.534  51.737  76.474  1.00  0.00     0.042 A 
HETATM   13  C3  UNL     1      36.112  50.529  76.077  1.00  0.00     0.053 A 
HETATM   14  C2  UNL     1      35.321  50.467  74.931  1.00  0.00     0.059 A 
HETATM   15  N2  UNL     1      34.753  49.440  74.286  1.00  0.00    -0.335 N 
HETATM   16  C11 UNL     1      35.088  51.696  74.368  1.00  0.00     0.076 A 
HETATM   17  C1  UNL     1      34.040  49.683  73.199  1.00  0.00     0.143 A 
ATOM     18  H2  UNL     1      34.868  48.485  74.627  1.00  0.00     0.168 HD
HETATM   19  S3  UNL     1      34.114  51.366  73.001  1.00  0.00    -0.045 SA
HETATM   20  S2  UNL     1      35.901  52.840  75.348  1.00  0.00    -0.078 SA
BRANCH  17  21
HETATM   21  N1  UNL     1      33.417  48.800  72.448  1.00  0.00    -0.380 N 
ATOM     22  H12 UNL     1      33.774  47.918  72.081  1.00  0.00     0.158 HD
ATOM     23  H11 UNL     1      32.458  48.857  72.104  1.00  0.00     0.158 HD
ENDBRANCH  17  21
ENDBRANCH   1  12
BRANCH   5  24
HETATM   24  N4  UNL     1      37.748  55.333  80.193  1.00  0.00    -0.384 N 
ATOM     25  H42 UNL     1      38.225  56.234  80.172  1.00  0.00     0.157 HD
ATOM     26  H41 UNL     1      36.731  55.276  80.143  1.00  0.00     0.157 HD
ENDBRANCH   5  24
BRANCH   8  27
HETATM   27  O1  UNL     1      41.123  53.113  82.495  1.00  0.00    -0.346 OA
ATOM     28  H1  UNL     1      42.042  53.319  82.366  1.00  0.00     0.219 HD
ENDBRANCH   8  27
TORSDOF 4
ENDMDL
MODEL 5
REMARK VINA RESULT: -6.932830139      4.594      5.302
REMARK  4 active torsions:
REMARK  status: ('A' for Active; 'I' for Inactive)
REMARK    1  A    between atoms: N1_1  and  C1_4 
REMARK    2  A    between atoms: C4_9  and  C5_10 
REMARK    3  A    between atoms: C7_14  and  N4_15 
REMARK    4  A    between atoms: C8_20  and  O1_21 
ROOT
HETATM    1  C5  UNL     1      37.516  50.333  76.903  1.00  0.00     0.092 A 
HETATM    2  N3  UNL     1      38.341  50.595  77.875  1.00  0.00    -0.345 N 
ATOM      3  H3  UNL     1      39.019  49.889  78.160  1.00  0.00     0.167 HD
HETATM    4  C6  UNL     1      38.315  51.740  78.485  1.00  0.00     0.094 A 
HETATM    5  C7  UNL     1      39.140  52.159  79.543  1.00  0.00     0.129 A 
HETATM    6  N5  UNL     1      39.005  53.359  80.075  1.00  0.00    -0.322 N 
ATOM      7  H5  UNL     1      39.634  53.602  80.841  1.00  0.00     0.169 HD
HETATM    8  C8  UNL     1      38.107  54.298  79.698  1.00  0.00     0.142 A 
HETATM    9  C9  UNL     1      37.281  53.920  78.660  1.00  0.00     0.077 A 
HETATM   10  C10 UNL     1      37.388  52.658  78.066  1.00  0.00     0.041 A 
HETATM   11  S1  UNL     1      36.610  51.794  76.808  1.00  0.00    -0.069 SA
ENDROOT
BRANCH   1  12
HETATM   12  C4  UNL     1      37.312  49.157  76.046  1.00  0.00     0.042 A 
HETATM   13  C3  UNL     1      38.072  48.716  75.036  1.00  0.00     0.053 A 
HETATM   14  C2  UNL     1      37.657  47.563  74.373  1.00  0.00     0.059 A 
HETATM   15  N2  UNL     1      38.179  46.879  73.346  1.00  0.00    -0.335 N 
HETATM   16  C11 UNL     1      36.492  47.039  74.876  1.00  0.00     0.076 A 
HETATM   17  C1  UNL     1      37.554  45.796  72.916  1.00  0.00     0.143 A 
ATOM     18  H2  UNL     1      39.044  47.189  72.904  1.00  0.00     0.168 HD
HETATM   19  S3  UNL     1      36.192  45.655  73.915  1.00  0.00    -0.045 SA
HETATM   20  S2  UNL     1      36.016  48.065  76.161  1.00  0.00    -0.078 SA
BRANCH  17  21
HETATM   21  N1  UNL     1      37.924  45.010  71.927  1.00  0.00    -0.380 N 
ATOM     22  H12 UNL     1      38.851  44.628  71.735  1.00  0.00     0.158 HD
ATOM     23  H11 UNL     1      37.333  44.649  71.178  1.00  0.00     0.158 HD
ENDBRANCH  17  21
ENDBRANCH   1  12
BRANCH   5  24
HETATM   24  N4  UNL     1      40.058  51.366  80.023  1.00  0.00    -0.384 N 
ATOM     25  H42 UNL     1      40.217  50.471  79.561  1.00  0.00     0.157 HD
ATOM     26  H41 UNL     1      40.603  51.639  80.841  1.00  0.00     0.157 HD
ENDBRANCH   5  24
BRANCH   8  27
HETATM   27  O1  UNL     1      38.016  55.535  80.293  1.00  0.00    -0.346 OA
ATOM     28  H1  UNL     1      38.084  56.350  79.810  1.00  0.00     0.219 HD
ENDBRANCH   8  27
TORSDOF 4
ENDMDL
