MODEL 1
REMARK VINA RESULT: -8.104739833      0.000      0.000
REMARK  7 active torsions:
REMARK  status: ('A' for Active; 'I' for Inactive)
REMARK    1  A    between atoms: C2_2  and  N1_5 
REMARK    2  A    between atoms: C5_6  and  O1_7 
REMARK    3  A    between atoms: C7_11  and  C8_12 
REMARK    4  A    between atoms: C13_17  and  O3_18 
REMARK    5  A    between atoms: C14_20  and  O4_21 
REMARK    6  A    between atoms: C16_24  and  C17_25 
REMARK    7  A    between atoms: C17_25  and  O5_26 
ROOT
HETATM    1  N1  UNL     1      35.977  51.998  76.665  1.00  0.00    -0.317 N 
HETATM    2  C5  UNL     1      37.026  51.263  77.153  1.00  0.00     0.179 A 
HETATM    3  C6  UNL     1      37.702  51.998  78.066  1.00  0.00     0.141 A 
HETATM    4  O2  UNL     1      38.749  52.000  78.894  1.00  0.00    -0.306 OA
HETATM    5  C7  UNL     1      38.846  53.130  79.521  1.00  0.00     0.094 A 
HETATM    6  C14 UNL     1      37.806  53.929  79.096  1.00  0.00     0.111 A 
HETATM    7  C15 UNL     1      37.096  53.200  78.175  1.00  0.00     0.063 A 
HETATM    8  C16 UNL     1      36.027  53.146  77.275  1.00  0.00     0.054 A 
ENDROOT
BRANCH   5   9
HETATM    9  C8  UNL     1      39.874  53.547  80.512  1.00  0.00     0.075 C 
HETATM   10  C9  UNL     1      40.859  52.337  80.516  1.00  0.00     0.014 C 
HETATM   11  C10 UNL     1      40.378  51.345  81.494  1.00  0.00     0.001 C 
HETATM   12  C11 UNL     1      40.797  51.877  82.864  1.00  0.00     0.002 C 
HETATM   13  C12 UNL     1      40.438  53.340  82.901  1.00  0.00     0.032 C 
HETATM   14  C13 UNL     1      39.305  53.651  81.914  1.00  0.00     0.128 C 
BRANCH  14  15
HETATM   15  O3  UNL     1      38.928  54.997  82.134  1.00  0.00    -0.395 OA
ATOM     16  H3  UNL     1      37.997  55.074  81.962  1.00  0.00     0.210 HD
ENDBRANCH  14  15
ENDBRANCH   5   9
BRANCH   6  17
HETATM   17  O4  UNL     1      37.485  55.230  79.494  1.00  0.00    -0.357 OA
ATOM     18  H4  UNL     1      36.633  55.650  79.520  1.00  0.00     0.217 HD
ENDBRANCH   6  17
BRANCH   2  19
HETATM   19  O1  UNL     1      37.460  49.949  76.852  1.00  0.00    -0.344 OA
ATOM     20  H1  UNL     1      38.088  49.385  77.288  1.00  0.00     0.219 HD
ENDBRANCH   2  19
BRANCH   8  21
HETATM   21  C17 UNL     1      35.165  54.327  77.174  1.00  0.00     0.222 C 
BRANCH  21  22
HETATM   22  O5  UNL     1      34.986  54.960  78.475  1.00  0.00    -0.395 OA
ATOM     23  H5  UNL     1      35.031  55.907  78.405  1.00  0.00     0.209 HD
ENDBRANCH  21  22
ENDBRANCH   8  21
BRANCH   1  24
HETATM   24  C2  UNL     1      35.122  51.393  75.682  1.00  0.00     0.028 C 
HETATM   25  C1  UNL     1      34.207  52.402  74.976  1.00  0.00     0.038 C 
HETATM   26  C3  UNL     1      34.130  50.492  76.500  1.00  0.00     0.038 C 
HETATM   27  C4  UNL     1      35.714  50.587  74.604  1.00  0.00     0.038 C 
ENDBRANCH   1  24
TORSDOF 7
ENDMDL
MODEL 2
REMARK VINA RESULT: -7.129530823      1.289      1.671
REMARK  7 active torsions:
REMARK  status: ('A' for Active; 'I' for Inactive)
REMARK    1  A    between atoms: C2_2  and  N1_5 
REMARK    2  A    between atoms: C5_6  and  O1_7 
REMARK    3  A    between atoms: C7_11  and  C8_12 
REMARK    4  A    between atoms: C13_17  and  O3_18 
REMARK    5  A    between atoms: C14_20  and  O4_21 
REMARK    6  A    between atoms: C16_24  and  C17_25 
REMARK    7  A    between atoms: C17_25  and  O5_26 
ROOT
HETATM    1  N1  UNL     1      35.945  50.776  76.152  1.00  0.00    -0.317 N 
HETATM    2  C5  UNL     1      37.132  50.537  76.795  1.00  0.00     0.179 A 
HETATM    3  C6  UNL     1      37.448  51.604  77.564  1.00  0.00     0.141 A 
HETATM    4  O2  UNL     1      38.360  52.106  78.400  1.00  0.00    -0.306 OA
HETATM    5  C7  UNL     1      38.025  53.291  78.800  1.00  0.00     0.094 A 
HETATM    6  C14 UNL     1      36.820  53.603  78.208  1.00  0.00     0.111 A 
HETATM    7  C15 UNL     1      36.471  52.528  77.427  1.00  0.00     0.063 A 
HETATM    8  C16 UNL     1      35.562  51.959  76.531  1.00  0.00     0.054 A 
ENDROOT
BRANCH   5   9
HETATM    9  C8  UNL     1      38.769  54.198  79.716  1.00  0.00     0.075 C 
HETATM   10  C9  UNL     1      40.010  53.340  80.115  1.00  0.00     0.014 C 
HETATM   11  C10 UNL     1      39.654  52.519  81.286  1.00  0.00     0.001 C 
HETATM   12  C11 UNL     1      39.733  53.456  82.489  1.00  0.00     0.002 C 
HETATM   13  C12 UNL     1      39.025  54.730  82.107  1.00  0.00     0.032 C 
HETATM   14  C13 UNL     1      38.000  54.475  80.993  1.00  0.00     0.128 C 
BRANCH  14  15
HETATM   15  O3  UNL     1      37.278  55.678  80.817  1.00  0.00    -0.395 OA
ATOM     16  H3  UNL     1      37.812  56.392  81.143  1.00  0.00     0.210 HD
ENDBRANCH  14  15
ENDBRANCH   5   9
BRANCH   6  17
HETATM   17  O4  UNL     1      36.055  54.765  78.342  1.00  0.00    -0.357 OA
ATOM     18  H4  UNL     1      35.523  55.205  77.688  1.00  0.00     0.217 HD
ENDBRANCH   6  17
BRANCH   2  19
HETATM   19  O1  UNL     1      37.999  49.418  76.761  1.00  0.00    -0.344 OA
ATOM     20  H1  UNL     1      38.146  48.764  76.088  1.00  0.00     0.219 HD
ENDBRANCH   2  19
BRANCH   8  21
HETATM   21  C17 UNL     1      34.371  52.740  76.187  1.00  0.00     0.222 C 
BRANCH  21  22
HETATM   22  O5  UNL     1      34.734  54.030  75.611  1.00  0.00    -0.395 OA
ATOM     23  H5  UNL     1      35.461  54.422  76.081  1.00  0.00     0.209 HD
ENDBRANCH  21  22
ENDBRANCH   8  21
BRANCH   1  24
HETATM   24  C2  UNL     1      35.425  49.756  75.285  1.00  0.00     0.028 C 
HETATM   25  C1  UNL     1      34.348  50.274  74.324  1.00  0.00     0.038 C 
HETATM   26  C3  UNL     1      34.647  48.772  76.229  1.00  0.00     0.038 C 
HETATM   27  C4  UNL     1      36.349  48.976  74.447  1.00  0.00     0.038 C 
ENDBRANCH   1  24
TORSDOF 7
ENDMDL
MODEL 3
REMARK VINA RESULT: -6.714172942      1.651      6.421
REMARK  7 active torsions:
REMARK  status: ('A' for Active; 'I' for Inactive)
REMARK    1  A    between atoms: C2_2  and  N1_5 
REMARK    2  A    between atoms: C5_6  and  O1_7 
REMARK    3  A    between atoms: C7_11  and  C8_12 
REMARK    4  A    between atoms: C13_17  and  O3_18 
REMARK    5  A    between atoms: C14_20  and  O4_21 
REMARK    6  A    between atoms: C16_24  and  C17_25 
REMARK    7  A    between atoms: C17_25  and  O5_26 
ROOT
HETATM    1  N1  UNL     1      38.964  53.076  80.094  1.00  0.00    -0.317 N 
HETATM    2  C5  UNL     1      38.981  51.909  79.374  1.00  0.00     0.179 A 
HETATM    3  C6  UNL     1      38.062  51.980  78.384  1.00  0.00     0.141 A 
HETATM    4  O2  UNL     1      37.510  51.313  77.367  1.00  0.00    -0.306 OA
HETATM    5  C7  UNL     1      36.590  52.019  76.790  1.00  0.00     0.094 A 
HETATM    6  C14 UNL     1      36.522  53.228  77.449  1.00  0.00     0.111 A 
HETATM    7  C15 UNL     1      37.455  53.185  78.456  1.00  0.00     0.063 A 
HETATM    8  C16 UNL     1      38.055  53.825  79.544  1.00  0.00     0.054 A 
ENDROOT
BRANCH   5   9
HETATM    9  C8  UNL     1      35.728  51.642  75.638  1.00  0.00     0.075 C 
HETATM   10  C9  UNL     1      34.295  51.673  76.257  1.00  0.00     0.014 C 
HETATM   11  C10 UNL     1      34.012  50.353  76.848  1.00  0.00     0.001 C 
HETATM   12  C11 UNL     1      33.643  49.444  75.677  1.00  0.00     0.002 C 
HETATM   13  C12 UNL     1      34.664  49.680  74.594  1.00  0.00     0.032 C 
HETATM   14  C13 UNL     1      35.975  50.216  75.184  1.00  0.00     0.128 C 
BRANCH  14  15
HETATM   15  O3  UNL     1      36.916  50.251  74.127  1.00  0.00    -0.395 OA
ATOM     16  H3  UNL     1      36.579  50.828  73.453  1.00  0.00     0.210 HD
ENDBRANCH  14  15
ENDBRANCH   5   9
BRANCH   6  17
HETATM   17  O4  UNL     1      35.690  54.320  77.187  1.00  0.00    -0.357 OA
ATOM     18  H4  UNL     1      35.184  54.843  77.799  1.00  0.00     0.217 HD
ENDBRANCH   6  17
BRANCH   2  19
HETATM   19  O1  UNL     1      39.764  50.738  79.519  1.00  0.00    -0.344 OA
ATOM     20  H1  UNL     1      39.518  49.847  79.736  1.00  0.00     0.219 HD
ENDBRANCH   2  19
BRANCH   8  21
HETATM   21  C17 UNL     1      37.598  55.179  79.870  1.00  0.00     0.222 C 
BRANCH  21  22
HETATM   22  O5  UNL     1      36.161  55.314  79.664  1.00  0.00    -0.395 OA
ATOM     23  H5  UNL     1      35.701  55.385  80.492  1.00  0.00     0.209 HD
ENDBRANCH  21  22
ENDBRANCH   8  21
BRANCH   1  24
HETATM   24  C2  UNL     1      39.877  53.208  81.195  1.00  0.00     0.028 C 
HETATM   25  C1  UNL     1      39.792  52.044  82.191  1.00  0.00     0.038 C 
HETATM   26  C3  UNL     1      39.358  54.443  82.013  1.00  0.00     0.038 C 
HETATM   27  C4  UNL     1      41.313  53.385  80.929  1.00  0.00     0.038 C 
ENDBRANCH   1  24
TORSDOF 7
ENDMDL
MODEL 4
REMARK VINA RESULT: -6.005857754      1.785      6.450
REMARK  7 active torsions:
REMARK  status: ('A' for Active; 'I' for Inactive)
REMARK    1  A    between atoms: C2_2  and  N1_5 
REMARK    2  A    between atoms: C5_6  and  O1_7 
REMARK    3  A    between atoms: C7_11  and  C8_12 
REMARK    4  A    between atoms: C13_17  and  O3_18 
REMARK    5  A    between atoms: C14_20  and  O4_21 
REMARK    6  A    between atoms: C16_24  and  C17_25 
REMARK    7  A    between atoms: C17_25  and  O5_26 
ROOT
HETATM    1  N1  UNL     1      39.040  53.111  80.148  1.00  0.00    -0.317 N 
HETATM    2  C5  UNL     1      39.032  51.946  79.425  1.00  0.00     0.179 A 
HETATM    3  C6  UNL     1      38.073  52.017  78.472  1.00  0.00     0.141 A 
HETATM    4  O2  UNL     1      37.484  51.351  77.477  1.00  0.00    -0.306 OA
HETATM    5  C7  UNL     1      36.539  52.055  76.939  1.00  0.00     0.094 A 
HETATM    6  C14 UNL     1      36.493  53.261  77.603  1.00  0.00     0.111 A 
HETATM    7  C15 UNL     1      37.466  53.219  78.571  1.00  0.00     0.063 A 
HETATM    8  C16 UNL     1      38.107  53.859  79.637  1.00  0.00     0.054 A 
ENDROOT
BRANCH   5   9
HETATM    9  C8  UNL     1      35.632  51.677  75.821  1.00  0.00     0.075 C 
HETATM   10  C9  UNL     1      36.347  52.292  74.577  1.00  0.00     0.014 C 
HETATM   11  C10 UNL     1      35.893  53.686  74.419  1.00  0.00     0.001 C 
HETATM   12  C11 UNL     1      34.514  53.602  73.767  1.00  0.00     0.002 C 
HETATM   13  C12 UNL     1      33.738  52.543  74.506  1.00  0.00     0.032 C 
HETATM   14  C13 UNL     1      34.281  52.357  75.929  1.00  0.00     0.128 C 
BRANCH  14  15
HETATM   15  O3  UNL     1      33.398  51.473  76.593  1.00  0.00    -0.395 OA
ATOM     16  H3  UNL     1      32.557  51.513  76.153  1.00  0.00     0.210 HD
ENDBRANCH  14  15
ENDBRANCH   5   9
BRANCH   6  17
HETATM   17  O4  UNL     1      35.648  54.352  77.377  1.00  0.00    -0.357 OA
ATOM     18  H4  UNL     1      34.860  54.600  77.846  1.00  0.00     0.217 HD
ENDBRANCH   6  17
BRANCH   2  19
HETATM   19  O1  UNL     1      39.823  50.778  79.536  1.00  0.00    -0.344 OA
ATOM     20  H1  UNL     1      40.050  50.115  78.893  1.00  0.00     0.219 HD
ENDBRANCH   2  19
BRANCH   8  21
HETATM   21  C17 UNL     1      37.660  55.210  79.984  1.00  0.00     0.222 C 
BRANCH  21  22
HETATM   22  O5  UNL     1      36.216  55.344  79.826  1.00  0.00    -0.395 OA
ATOM     23  H5  UNL     1      35.960  56.257  79.769  1.00  0.00     0.209 HD
ENDBRANCH  21  22
ENDBRANCH   8  21
BRANCH   1  24
HETATM   24  C2  UNL     1      39.996  53.243  81.212  1.00  0.00     0.028 C 
HETATM   25  C1  UNL     1      39.954  52.077  82.207  1.00  0.00     0.038 C 
HETATM   26  C3  UNL     1      39.506  54.474  82.053  1.00  0.00     0.038 C 
HETATM   27  C4  UNL     1      41.419  53.426  80.889  1.00  0.00     0.038 C 
ENDBRANCH   1  24
TORSDOF 7
ENDMDL
MODEL 5
REMARK VINA RESULT: -5.995810156      2.418      6.248
REMARK  7 active torsions:
REMARK  status: ('A' for Active; 'I' for Inactive)
REMARK    1  A    between atoms: C2_2  and  N1_5 
REMARK    2  A    between atoms: C5_6  and  O1_7 
REMARK    3  A    between atoms: C7_11  and  C8_12 
REMARK    4  A    between atoms: C13_17  and  O3_18 
REMARK    5  A    between atoms: C14_20  and  O4_21 
REMARK    6  A    between atoms: C16_24  and  C17_25 
REMARK    7  A    between atoms: C17_25  and  O5_26 
ROOT
HETATM    1  N1  UNL     1      37.909  53.231  78.970  1.00  0.00    -0.317 N 
HETATM    2  C5  UNL     1      38.521  52.010  78.844  1.00  0.00     0.179 A 
HETATM    3  C6  UNL     1      37.923  51.309  77.854  1.00  0.00     0.141 A 
HETATM    4  O2  UNL     1      37.923  50.147  77.196  1.00  0.00    -0.306 OA
HETATM    5  C7  UNL     1      36.995  50.122  76.293  1.00  0.00     0.094 A 
HETATM    6  C14 UNL     1      36.338  51.332  76.341  1.00  0.00     0.111 A 
HETATM    7  C15 UNL     1      36.934  52.069  77.335  1.00  0.00     0.063 A 
HETATM    8  C16 UNL     1      36.969  53.256  78.073  1.00  0.00     0.054 A 
ENDROOT
BRANCH   5   9
HETATM    9  C8  UNL     1      36.648  49.015  75.361  1.00  0.00     0.075 C 
HETATM   10  C9  UNL     1      35.838  48.040  76.272  1.00  0.00     0.014 C 
HETATM   11  C10 UNL     1      36.786  47.127  76.937  1.00  0.00     0.001 C 
HETATM   12  C11 UNL     1      37.153  46.076  75.891  1.00  0.00     0.002 C 
HETATM   13  C12 UNL     1      37.450  46.811  74.609  1.00  0.00     0.032 C 
HETATM   14  C13 UNL     1      37.875  48.258  74.893  1.00  0.00     0.128 C 
BRANCH  14  15
HETATM   15  O3  UNL     1      38.288  48.813  73.659  1.00  0.00    -0.395 OA
ATOM     16  H3  UNL     1      38.944  48.238  73.282  1.00  0.00     0.210 HD
ENDBRANCH  14  15
ENDBRANCH   5   9
BRANCH   6  17
HETATM   17  O4  UNL     1      35.272  51.780  75.555  1.00  0.00    -0.357 OA
ATOM     18  H4  UNL     1      35.241  51.909  74.614  1.00  0.00     0.217 HD
ENDBRANCH   6  17
BRANCH   2  19
HETATM   19  O1  UNL     1      39.601  51.434  79.556  1.00  0.00    -0.344 OA
ATOM     20  H1  UNL     1      39.617  50.917  80.354  1.00  0.00     0.219 HD
ENDBRANCH   2  19
BRANCH   8  21
HETATM   21  C17 UNL     1      35.997  54.297  77.727  1.00  0.00     0.222 C 
BRANCH  21  22
HETATM   22  O5  UNL     1      34.678  53.726  77.479  1.00  0.00    -0.395 OA
ATOM     23  H5  UNL     1      34.055  54.002  78.140  1.00  0.00     0.209 HD
ENDBRANCH  21  22
ENDBRANCH   8  21
BRANCH   1  24
HETATM   24  C2  UNL     1      38.402  54.137  79.969  1.00  0.00     0.028 C 
HETATM   25  C1  UNL     1      37.363  55.180  80.401  1.00  0.00     0.038 C 
HETATM   26  C3  UNL     1      39.508  54.985  79.244  1.00  0.00     0.038 C 
HETATM   27  C4  UNL     1      38.959  53.604  81.221  1.00  0.00     0.038 C 
ENDBRANCH   1  24
TORSDOF 7
ENDMDL
