MODEL 1
REMARK VINA RESULT: -7.382214393      0.000      0.000
REMARK  4 active torsions:
REMARK  status: ('A' for Active; 'I' for Inactive)
REMARK    1  A    between atoms: C7_7  and  O1_8 
REMARK    2  A    between atoms: C8_11  and  C9_12 
REMARK    3  A    between atoms: C10_15  and  N2_16 
REMARK    4  A    between atoms: C13_23  and  O3_24 
ROOT
HETATM    1  C9  UNL     1      37.936  52.789  78.855  1.00  0.00     0.115 A 
HETATM    2  N1  UNL     1      37.233  53.927  78.897  1.00  0.00    -0.187 N 
ATOM      3  H1  UNL     1      36.481  54.052  78.220  1.00  0.00     0.184 HD
HETATM    4  C10 UNL     1      37.459  54.909  79.779  1.00  0.00     0.677 A 
HETATM    5  N3  UNL     1      38.446  54.740  80.664  1.00  0.00    -0.190 N 
ATOM      6  H3  UNL     1      38.623  55.486  81.337  1.00  0.00     0.184 HD
HETATM    7  C11 UNL     1      39.220  53.642  80.718  1.00  0.00     0.082 A 
HETATM    8  C12 UNL     1      40.268  53.233  81.506  1.00  0.00     0.088 A 
HETATM    9  C13 UNL     1      40.654  51.994  81.075  1.00  0.00     0.142 A 
HETATM   10  N4  UNL     1      39.845  51.664  80.039  1.00  0.00    -0.333 N 
ATOM     11  H4  UNL     1      39.906  50.788  79.519  1.00  0.00     0.168 HD
HETATM   12  C14 UNL     1      38.953  52.634  79.781  1.00  0.00     0.092 A 
ENDROOT
BRANCH   1  13
HETATM   13  C8  UNL     1      37.652  51.746  77.875  1.00  0.00     0.142 A 
HETATM   14  O2  UNL     1      37.967  50.498  77.899  1.00  0.00    -0.282 OA
HETATM   15  C7  UNL     1      37.557  49.844  76.861  1.00  0.00     0.193 A 
HETATM   16  C6  UNL     1      36.899  50.752  76.060  1.00  0.00     0.036 A 
HETATM   17  C5  UNL     1      36.192  50.712  74.751  1.00  0.00     0.049 C 
HETATM   18  C15 UNL     1      36.953  51.973  76.697  1.00  0.00     0.117 A 
HETATM   19  C4  UNL     1      34.971  51.601  74.861  1.00  0.00     0.042 C 
HETATM   20  C2  UNL     1      35.303  53.019  75.207  1.00  0.00     0.061 C 
HETATM   21  C1  UNL     1      34.037  53.640  75.804  1.00  0.00     0.046 C 
HETATM   22  C3  UNL     1      35.614  53.800  73.951  1.00  0.00     0.046 C 
HETATM   23  O4  UNL     1      36.376  53.111  76.148  1.00  0.00    -0.337 OA
BRANCH  15  24
HETATM   24  O1  UNL     1      37.707  48.488  76.537  1.00  0.00    -0.340 OA
ATOM     25  H1  UNL     1      37.040  47.832  76.698  1.00  0.00     0.220 HD
ENDBRANCH  15  24
ENDBRANCH   1  13
BRANCH   4  26
HETATM   26  N2  UNL     1      36.732  56.005  79.770  1.00  0.00    -0.234 N 
ATOM     27  H22 UNL     1      35.857  56.064  80.291  1.00  0.00     0.174 HD
ATOM     28  H21 UNL     1      37.028  56.825  79.241  1.00  0.00     0.174 HD
ENDBRANCH   4  26
BRANCH   9  29
HETATM   29  O3  UNL     1      41.669  51.171  81.556  1.00  0.00    -0.346 OA
ATOM     30  H3  UNL     1      42.259  50.601  81.077  1.00  0.00     0.219 HD
ENDBRANCH   9  29
TORSDOF 4
ENDMDL
MODEL 2
REMARK VINA RESULT: -7.066750283      2.778      5.043
REMARK  4 active torsions:
REMARK  status: ('A' for Active; 'I' for Inactive)
REMARK    1  A    between atoms: C7_7  and  O1_8 
REMARK    2  A    between atoms: C8_11  and  C9_12 
REMARK    3  A    between atoms: C10_15  and  N2_16 
REMARK    4  A    between atoms: C13_23  and  O3_24 
ROOT
HETATM    1  C9  UNL     1      36.416  52.075  75.902  1.00  0.00     0.115 A 
HETATM    2  N1  UNL     1      36.539  50.812  75.478  1.00  0.00    -0.187 N 
ATOM      3  H1  UNL     1      36.078  50.550  74.608  1.00  0.00     0.184 HD
HETATM    4  C10 UNL     1      37.235  49.872  76.133  1.00  0.00     0.677 A 
HETATM    5  N3  UNL     1      37.837  50.222  77.274  1.00  0.00    -0.190 N 
ATOM      6  H3  UNL     1      38.367  49.509  77.776  1.00  0.00     0.184 HD
HETATM    7  C11 UNL     1      37.784  51.458  77.798  1.00  0.00     0.082 A 
HETATM    8  C12 UNL     1      38.299  52.057  78.921  1.00  0.00     0.088 A 
HETATM    9  C13 UNL     1      37.897  53.364  78.918  1.00  0.00     0.142 A 
HETATM   10  N4  UNL     1      37.148  53.546  77.803  1.00  0.00    -0.333 N 
ATOM     11  H4  UNL     1      36.714  54.432  77.542  1.00  0.00     0.168 HD
HETATM   12  C14 UNL     1      37.048  52.416  77.086  1.00  0.00     0.092 A 
ENDROOT
BRANCH   1  13
HETATM   13  C8  UNL     1      35.647  53.065  75.154  1.00  0.00     0.142 A 
HETATM   14  O2  UNL     1      34.599  53.722  75.512  1.00  0.00    -0.282 OA
HETATM   15  C7  UNL     1      34.163  54.530  74.600  1.00  0.00     0.193 A 
HETATM   16  C6  UNL     1      35.009  54.397  73.521  1.00  0.00     0.036 A 
HETATM   17  C5  UNL     1      35.116  54.996  72.163  1.00  0.00     0.049 C 
HETATM   18  C15 UNL     1      35.963  53.463  73.863  1.00  0.00     0.117 A 
HETATM   19  C4  UNL     1      36.586  55.225  71.876  1.00  0.00     0.042 C 
HETATM   20  C2  UNL     1      37.402  53.971  71.936  1.00  0.00     0.061 C 
HETATM   21  C1  UNL     1      38.854  54.395  72.172  1.00  0.00     0.046 C 
HETATM   22  C3  UNL     1      37.370  53.268  70.599  1.00  0.00     0.046 C 
HETATM   23  O4  UNL     1      36.977  53.097  72.985  1.00  0.00    -0.337 OA
BRANCH  15  24
HETATM   24  O1  UNL     1      33.062  55.398  74.621  1.00  0.00    -0.340 OA
ATOM     25  H1  UNL     1      32.402  55.393  75.304  1.00  0.00     0.220 HD
ENDBRANCH  15  24
ENDBRANCH   1  13
BRANCH   4  26
HETATM   26  N2  UNL     1      37.319  48.646  75.665  1.00  0.00    -0.234 N 
ATOM     27  H22 UNL     1      37.773  47.906  76.199  1.00  0.00     0.174 HD
ATOM     28  H21 UNL     1      36.929  48.406  74.753  1.00  0.00     0.174 HD
ENDBRANCH   4  26
BRANCH   9  29
HETATM   29  O3  UNL     1      38.165  54.370  79.843  1.00  0.00    -0.346 OA
ATOM     30  H3  UNL     1      38.870  54.433  80.476  1.00  0.00     0.219 HD
ENDBRANCH   9  29
TORSDOF 4
ENDMDL
MODEL 3
REMARK VINA RESULT: -6.762170247      2.161      3.072
REMARK  4 active torsions:
REMARK  status: ('A' for Active; 'I' for Inactive)
REMARK    1  A    between atoms: C7_7  and  O1_8 
REMARK    2  A    between atoms: C8_11  and  C9_12 
REMARK    3  A    between atoms: C10_15  and  N2_16 
REMARK    4  A    between atoms: C13_23  and  O3_24 
ROOT
HETATM    1  C9  UNL     1      36.772  51.315  76.875  1.00  0.00     0.115 A 
HETATM    2  N1  UNL     1      35.854  52.214  76.501  1.00  0.00    -0.187 N 
ATOM      3  H1  UNL     1      35.201  51.954  75.762  1.00  0.00     0.184 HD
HETATM    4  C10 UNL     1      35.743  53.435  77.041  1.00  0.00     0.677 A 
HETATM    5  N3  UNL     1      36.603  53.770  78.008  1.00  0.00    -0.190 N 
ATOM      6  H3  UNL     1      36.523  54.699  78.422  1.00  0.00     0.184 HD
HETATM    7  C11 UNL     1      37.566  52.953  78.467  1.00  0.00     0.082 A 
HETATM    8  C12 UNL     1      38.547  53.053  79.423  1.00  0.00     0.088 A 
HETATM    9  C13 UNL     1      39.236  51.873  79.438  1.00  0.00     0.142 A 
HETATM   10  N4  UNL     1      38.673  51.072  78.500  1.00  0.00    -0.333 N 
ATOM     11  H4  UNL     1      38.987  50.124  78.291  1.00  0.00     0.168 HD
HETATM   12  C14 UNL     1      37.651  51.683  77.879  1.00  0.00     0.092 A 
ENDROOT
BRANCH   1  13
HETATM   13  C8  UNL     1      36.853  49.996  76.257  1.00  0.00     0.142 A 
HETATM   14  O2  UNL     1      37.066  48.851  76.806  1.00  0.00    -0.282 OA
HETATM   15  C7  UNL     1      37.076  47.871  75.962  1.00  0.00     0.193 A 
HETATM   16  C6  UNL     1      36.846  48.420  74.719  1.00  0.00     0.036 A 
HETATM   17  C5  UNL     1      36.727  47.909  73.327  1.00  0.00     0.049 C 
HETATM   18  C15 UNL     1      36.702  49.780  74.895  1.00  0.00     0.117 A 
HETATM   19  C4  UNL     1      35.613  48.681  72.648  1.00  0.00     0.042 C 
HETATM   20  C2  UNL     1      35.851  50.158  72.620  1.00  0.00     0.061 C 
HETATM   21  C1  UNL     1      34.486  50.825  72.429  1.00  0.00     0.046 C 
HETATM   22  C3  UNL     1      36.683  50.527  71.414  1.00  0.00     0.046 C 
HETATM   23  O4  UNL     1      36.456  50.633  73.826  1.00  0.00    -0.337 OA
BRANCH  15  24
HETATM   24  O1  UNL     1      37.273  46.500  76.180  1.00  0.00    -0.340 OA
ATOM     25  H1  UNL     1      37.704  46.146  76.949  1.00  0.00     0.220 HD
ENDBRANCH  15  24
ENDBRANCH   1  13
BRANCH   4  26
HETATM   26  N2  UNL     1      34.819  54.274  76.629  1.00  0.00    -0.234 N 
ATOM     27  H22 UNL     1      34.585  54.360  75.640  1.00  0.00     0.174 HD
ATOM     28  H21 UNL     1      34.311  54.861  77.291  1.00  0.00     0.174 HD
ENDBRANCH   4  26
BRANCH   9  29
HETATM   29  O3  UNL     1      40.314  51.491  80.233  1.00  0.00    -0.346 OA
ATOM     30  H3  UNL     1      41.075  51.995  80.496  1.00  0.00     0.219 HD
ENDBRANCH   9  29
TORSDOF 4
ENDMDL
MODEL 4
REMARK VINA RESULT: -6.760117741      2.202      2.995
REMARK  4 active torsions:
REMARK  status: ('A' for Active; 'I' for Inactive)
REMARK    1  A    between atoms: C7_7  and  O1_8 
REMARK    2  A    between atoms: C8_11  and  C9_12 
REMARK    3  A    between atoms: C10_15  and  N2_16 
REMARK    4  A    between atoms: C13_23  and  O3_24 
ROOT
HETATM    1  C9  UNL     1      36.696  51.662  76.863  1.00  0.00     0.115 A 
HETATM    2  N1  UNL     1      35.792  52.622  76.640  1.00  0.00    -0.187 N 
ATOM      3  H1  UNL     1      35.112  52.479  75.894  1.00  0.00     0.184 HD
HETATM    4  C10 UNL     1      35.728  53.762  77.341  1.00  0.00     0.677 A 
HETATM    5  N3  UNL     1      36.622  53.946  78.317  1.00  0.00    -0.190 N 
ATOM      6  H3  UNL     1      36.578  54.813  78.853  1.00  0.00     0.184 HD
HETATM    7  C11 UNL     1      37.577  53.054  78.633  1.00  0.00     0.082 A 
HETATM    8  C12 UNL     1      38.586  53.004  79.563  1.00  0.00     0.088 A 
HETATM    9  C13 UNL     1      39.244  51.817  79.399  1.00  0.00     0.142 A 
HETATM   10  N4  UNL     1      38.635  51.162  78.380  1.00  0.00    -0.333 N 
ATOM     11  H4  UNL     1      38.918  50.244  78.038  1.00  0.00     0.168 HD
HETATM   12  C14 UNL     1      37.612  51.873  77.879  1.00  0.00     0.092 A 
ENDROOT
BRANCH   1  13
HETATM   13  C8  UNL     1      36.726  50.436  76.072  1.00  0.00     0.142 A 
HETATM   14  O2  UNL     1      37.682  49.586  75.923  1.00  0.00    -0.282 OA
HETATM   15  C7  UNL     1      37.375  48.599  75.145  1.00  0.00     0.193 A 
HETATM   16  C6  UNL     1      36.078  48.813  74.732  1.00  0.00     0.036 A 
HETATM   17  C5  UNL     1      35.102  48.111  73.856  1.00  0.00     0.049 C 
HETATM   18  C15 UNL     1      35.652  49.986  75.318  1.00  0.00     0.117 A 
HETATM   19  C4  UNL     1      33.739  48.219  74.507  1.00  0.00     0.042 C 
HETATM   20  C2  UNL     1      33.295  49.633  74.716  1.00  0.00     0.061 C 
HETATM   21  C1  UNL     1      32.233  49.609  75.818  1.00  0.00     0.046 C 
HETATM   22  C3  UNL     1      32.613  50.151  73.471  1.00  0.00     0.046 C 
HETATM   23  O4  UNL     1      34.374  50.488  75.104  1.00  0.00    -0.337 OA
BRANCH  15  24
HETATM   24  O1  UNL     1      38.143  47.495  74.749  1.00  0.00    -0.340 OA
ATOM     25  H1  UNL     1      39.093  47.484  74.760  1.00  0.00     0.220 HD
ENDBRANCH  15  24
ENDBRANCH   1  13
BRANCH   4  26
HETATM   26  N2  UNL     1      34.814  54.670  77.073  1.00  0.00    -0.234 N 
ATOM     27  H22 UNL     1      34.750  55.100  76.150  1.00  0.00     0.174 HD
ATOM     28  H21 UNL     1      34.146  54.965  77.784  1.00  0.00     0.174 HD
ENDBRANCH   4  26
BRANCH   9  29
HETATM   29  O3  UNL     1      40.334  51.309  80.102  1.00  0.00    -0.346 OA
ATOM     30  H3  UNL     1      40.874  50.551  79.909  1.00  0.00     0.219 HD
ENDBRANCH   9  29
TORSDOF 4
ENDMDL
MODEL 5
REMARK VINA RESULT: -6.525786176      2.787      4.943
REMARK  4 active torsions:
REMARK  status: ('A' for Active; 'I' for Inactive)
REMARK    1  A    between atoms: C7_7  and  O1_8 
REMARK    2  A    between atoms: C8_11  and  C9_12 
REMARK    3  A    between atoms: C10_15  and  N2_16 
REMARK    4  A    between atoms: C13_23  and  O3_24 
ROOT
HETATM    1  C9  UNL     1      36.284  51.818  76.177  1.00  0.00     0.115 A 
HETATM    2  N1  UNL     1      36.542  50.568  75.778  1.00  0.00    -0.187 N 
ATOM      3  H1  UNL     1      36.033  50.204  74.974  1.00  0.00     0.184 HD
HETATM    4  C10 UNL     1      37.434  49.765  76.376  1.00  0.00     0.677 A 
HETATM    5  N3  UNL     1      38.098  50.246  77.431  1.00  0.00    -0.190 N 
ATOM      6  H3  UNL     1      38.777  49.639  77.890  1.00  0.00     0.184 HD
HETATM    7  C11 UNL     1      37.924  51.485  77.922  1.00  0.00     0.082 A 
HETATM    8  C12 UNL     1      38.465  52.200  78.962  1.00  0.00     0.088 A 
HETATM    9  C13 UNL     1      37.879  53.436  78.968  1.00  0.00     0.142 A 
HETATM   10  N4  UNL     1      36.996  53.461  77.940  1.00  0.00    -0.333 N 
ATOM     11  H4  UNL     1      36.412  54.264  77.704  1.00  0.00     0.168 HD
HETATM   12  C14 UNL     1      36.984  52.297  77.271  1.00  0.00     0.092 A 
ENDROOT
BRANCH   1  13
HETATM   13  C8  UNL     1      35.303  52.655  75.493  1.00  0.00     0.142 A 
HETATM   14  O2  UNL     1      35.304  53.930  75.315  1.00  0.00    -0.282 OA
HETATM   15  C7  UNL     1      34.274  54.358  74.660  1.00  0.00     0.193 A 
HETATM   16  C6  UNL     1      33.505  53.252  74.371  1.00  0.00     0.036 A 
HETATM   17  C5  UNL     1      32.221  52.993  73.665  1.00  0.00     0.049 C 
HETATM   18  C15 UNL     1      34.153  52.156  74.899  1.00  0.00     0.117 A 
HETATM   19  C4  UNL     1      32.382  51.712  72.872  1.00  0.00     0.042 C 
HETATM   20  C2  UNL     1      32.731  50.531  73.724  1.00  0.00     0.061 C 
HETATM   21  C1  UNL     1      33.378  49.493  72.803  1.00  0.00     0.046 C 
HETATM   22  C3  UNL     1      31.474  49.897  74.271  1.00  0.00     0.046 C 
HETATM   23  O4  UNL     1      33.635  50.872  74.778  1.00  0.00    -0.337 OA
BRANCH  15  24
HETATM   24  O1  UNL     1      33.930  55.663  74.278  1.00  0.00    -0.340 OA
ATOM     25  H1  UNL     1      33.987  56.412  74.859  1.00  0.00     0.220 HD
ENDBRANCH  15  24
ENDBRANCH   1  13
BRANCH   4  26
HETATM   26  N2  UNL     1      37.644  48.544  75.937  1.00  0.00    -0.234 N 
ATOM     27  H22 UNL     1      38.586  48.159  75.873  1.00  0.00     0.174 HD
ATOM     28  H21 UNL     1      36.866  47.950  75.650  1.00  0.00     0.174 HD
ENDBRANCH   4  26
BRANCH   9  29
HETATM   29  O3  UNL     1      38.096  54.510  79.827  1.00  0.00    -0.346 OA
ATOM     30  H3  UNL     1      37.492  55.188  80.106  1.00  0.00     0.219 HD
ENDBRANCH   9  29
TORSDOF 4
ENDMDL
