MODEL 1
REMARK VINA RESULT: -7.061676276      0.000      0.000
REMARK  2 active torsions:
REMARK  status: ('A' for Active; 'I' for Inactive)
REMARK    1  A    between atoms: C7_16  and  C8_17 
REMARK    2  A    between atoms: C9_20  and  O1_21 
ROOT
HETATM    1  N1  UNL     1      32.861  50.603  77.254  1.00  0.00    -0.196 NA
HETATM    2  C1  UNL     1      33.296  50.471  76.175  1.00  0.00     0.075 C 
HETATM    3  C2  UNL     1      33.868  50.285  74.823  1.00  0.00     0.182 C 
HETATM    4  C3  UNL     1      34.692  49.077  74.886  1.00  0.00     0.068 C 
HETATM    5  N2  UNL     1      34.400  48.134  75.656  1.00  0.00    -0.395 N 
ATOM      6  H21 UNL     1      34.974  47.292  75.700  1.00  0.00     0.156 HD
ATOM      7  H22 UNL     1      33.569  48.196  76.243  1.00  0.00     0.156 HD
HETATM    8  S1  UNL     1      36.135  48.970  73.865  1.00  0.00    -0.061 SA
HETATM    9  C4  UNL     1      36.105  50.433  72.848  1.00  0.00     0.068 C 
HETATM   10  N3  UNL     1      36.712  50.439  71.738  1.00  0.00    -0.395 N 
ATOM     11  H31 UNL     1      36.694  51.276  71.156  1.00  0.00     0.156 HD
ATOM     12  H32 UNL     1      37.212  49.599  71.447  1.00  0.00     0.156 HD
HETATM   13  C5  UNL     1      35.379  51.651  73.270  1.00  0.00     0.182 C 
HETATM   14  C6  UNL     1      36.265  52.799  73.283  1.00  0.00     0.075 C 
HETATM   15  N4  UNL     1      36.966  53.757  73.280  1.00  0.00    -0.196 NA
HETATM   16  C7  UNL     1      34.622  51.536  74.514  1.00  0.00    -0.003 C 
ENDROOT
BRANCH  16  17
HETATM   17  C8  UNL     1      35.033  52.336  75.694  1.00  0.00     0.074 A 
HETATM   18  N5  UNL     1      34.511  53.502  76.183  1.00  0.00    -0.334 N 
HETATM   19  C9  UNL     1      35.249  54.007  77.171  1.00  0.00     0.153 A 
ATOM     20  H5  UNL     1      33.656  53.934  75.833  1.00  0.00     0.168 HD
HETATM   21  C10 UNL     1      36.324  53.154  77.383  1.00  0.00     0.050 A 
HETATM   22  C11 UNL     1      36.179  52.143  76.467  1.00  0.00     0.110 A 
HETATM   23  C14 UNL     1      37.338  53.132  78.421  1.00  0.00     0.017 C 
HETATM   24  O2  UNL     1      37.145  51.168  76.490  1.00  0.00    -0.344 OA
HETATM   25  C12 UNL     1      38.007  50.962  77.564  1.00  0.00     0.203 C 
HETATM   26  C13 UNL     1      38.131  52.094  78.493  1.00  0.00     0.001 C 
BRANCH  19  27
HETATM   27  O1  UNL     1      35.027  55.180  77.896  1.00  0.00    -0.345 OA
ATOM     28  H1  UNL     1      35.029  55.294  78.839  1.00  0.00     0.219 HD
ENDBRANCH  19  27
ENDBRANCH  16  17
TORSDOF 2
ENDMDL
MODEL 2
REMARK VINA RESULT: -6.592494212      1.478      3.411
REMARK  2 active torsions:
REMARK  status: ('A' for Active; 'I' for Inactive)
REMARK    1  A    between atoms: C7_16  and  C8_17 
REMARK    2  A    between atoms: C9_20  and  O1_21 
ROOT
HETATM    1  N1  UNL     1      36.823  53.884  73.454  1.00  0.00    -0.196 NA
HETATM    2  C1  UNL     1      36.182  52.914  73.309  1.00  0.00     0.075 C 
HETATM    3  C2  UNL     1      35.347  51.706  73.123  1.00  0.00     0.182 C 
HETATM    4  C3  UNL     1      34.095  52.160  72.517  1.00  0.00     0.068 C 
HETATM    5  N2  UNL     1      34.067  53.151  71.753  1.00  0.00    -0.395 N 
ATOM      6  H21 UNL     1      33.195  53.468  71.330  1.00  0.00     0.156 HD
ATOM      7  H22 UNL     1      34.930  53.649  71.535  1.00  0.00     0.156 HD
HETATM    8  S1  UNL     1      32.597  51.295  72.895  1.00  0.00    -0.061 SA
HETATM    9  C4  UNL     1      33.094  49.899  73.886  1.00  0.00     0.068 C 
HETATM   10  N3  UNL     1      32.360  48.870  73.934  1.00  0.00    -0.395 N 
ATOM     11  H31 UNL     1      32.644  48.071  74.500  1.00  0.00     0.156 HD
ATOM     12  H32 UNL     1      31.490  48.861  73.401  1.00  0.00     0.156 HD
HETATM   13  C5  UNL     1      34.356  49.912  74.658  1.00  0.00     0.182 C 
HETATM   14  C6  UNL     1      34.103  49.642  76.060  1.00  0.00     0.075 C 
HETATM   15  N4  UNL     1      33.922  49.402  77.209  1.00  0.00    -0.196 NA
HETATM   16  C7  UNL     1      35.196  51.093  74.476  1.00  0.00    -0.003 C 
ENDROOT
BRANCH  16  17
HETATM   17  C8  UNL     1      35.418  52.012  75.618  1.00  0.00     0.074 A 
HETATM   18  N5  UNL     1      34.755  53.159  75.958  1.00  0.00    -0.334 N 
HETATM   19  C9  UNL     1      35.345  53.800  76.967  1.00  0.00     0.153 A 
ATOM     20  H5  UNL     1      33.908  53.486  75.493  1.00  0.00     0.168 HD
HETATM   21  C10 UNL     1      36.459  53.065  77.350  1.00  0.00     0.050 A 
HETATM   22  C11 UNL     1      36.491  51.979  76.511  1.00  0.00     0.110 A 
HETATM   23  C14 UNL     1      37.360  53.211  78.478  1.00  0.00     0.017 C 
HETATM   24  O2  UNL     1      37.527  51.099  76.706  1.00  0.00    -0.344 OA
HETATM   25  C12 UNL     1      38.288  51.051  77.871  1.00  0.00     0.203 C 
HETATM   26  C13 UNL     1      38.223  52.256  78.711  1.00  0.00     0.001 C 
BRANCH  19  27
HETATM   27  O1  UNL     1      34.955  54.999  77.568  1.00  0.00    -0.345 OA
ATOM     28  H1  UNL     1      34.904  55.861  77.173  1.00  0.00     0.219 HD
ENDBRANCH  19  27
ENDBRANCH  16  17
TORSDOF 2
ENDMDL
MODEL 3
REMARK VINA RESULT: -6.450897165      2.034      2.820
REMARK  2 active torsions:
REMARK  status: ('A' for Active; 'I' for Inactive)
REMARK    1  A    between atoms: C7_16  and  C8_17 
REMARK    2  A    between atoms: C9_20  and  O1_21 
ROOT
HETATM    1  N1  UNL     1      33.498  50.097  77.188  1.00  0.00    -0.196 NA
HETATM    2  C1  UNL     1      33.383  50.804  76.262  1.00  0.00     0.075 C 
HETATM    3  C2  UNL     1      33.239  51.673  75.072  1.00  0.00     0.182 C 
HETATM    4  C3  UNL     1      32.819  50.802  73.974  1.00  0.00     0.068 C 
HETATM    5  N2  UNL     1      32.118  49.786  74.185  1.00  0.00    -0.395 N 
ATOM      6  H21 UNL     1      31.825  49.178  73.420  1.00  0.00     0.156 HD
ATOM      7  H22 UNL     1      31.822  49.561  75.135  1.00  0.00     0.156 HD
HETATM    8  S1  UNL     1      33.334  51.191  72.325  1.00  0.00    -0.061 SA
HETATM    9  C4  UNL     1      34.179  52.756  72.451  1.00  0.00     0.068 C 
HETATM   10  N3  UNL     1      34.263  53.508  71.438  1.00  0.00    -0.395 N 
ATOM     11  H31 UNL     1      34.746  54.403  71.510  1.00  0.00     0.156 HD
ATOM     12  H32 UNL     1      33.843  53.199  70.561  1.00  0.00     0.156 HD
HETATM   13  C5  UNL     1      34.787  53.203  73.724  1.00  0.00     0.182 C 
HETATM   14  C6  UNL     1      36.193  53.507  73.542  1.00  0.00     0.075 C 
HETATM   15  N4  UNL     1      37.341  53.782  73.413  1.00  0.00    -0.196 NA
HETATM   16  C7  UNL     1      34.564  52.329  74.873  1.00  0.00    -0.003 C 
ENDROOT
BRANCH  16  17
HETATM   17  C8  UNL     1      35.718  51.630  75.490  1.00  0.00     0.074 A 
HETATM   18  N5  UNL     1      36.268  50.416  75.186  1.00  0.00    -0.334 N 
HETATM   19  C9  UNL     1      37.199  50.051  76.067  1.00  0.00     0.153 A 
ATOM     20  H5  UNL     1      35.997  49.854  74.378  1.00  0.00     0.168 HD
HETATM   21  C10 UNL     1      37.307  51.056  77.019  1.00  0.00     0.050 A 
HETATM   22  C11 UNL     1      36.390  52.010  76.653  1.00  0.00     0.110 A 
HETATM   23  C14 UNL     1      38.256  51.254  78.098  1.00  0.00     0.017 C 
HETATM   24  O2  UNL     1      36.316  53.115  77.465  1.00  0.00    -0.344 OA
HETATM   25  C12 UNL     1      37.312  53.474  78.370  1.00  0.00     0.203 C 
HETATM   26  C13 UNL     1      38.245  52.398  78.733  1.00  0.00     0.001 C 
BRANCH  19  27
HETATM   27  O1  UNL     1      37.960  48.879  76.078  1.00  0.00    -0.345 OA
ATOM     28  H1  UNL     1      38.168  48.325  76.821  1.00  0.00     0.219 HD
ENDBRANCH  19  27
ENDBRANCH  16  17
TORSDOF 2
ENDMDL
MODEL 4
REMARK VINA RESULT: -5.763213059      2.853      4.103
REMARK  2 active torsions:
REMARK  status: ('A' for Active; 'I' for Inactive)
REMARK    1  A    between atoms: C7_16  and  C8_17 
REMARK    2  A    between atoms: C9_20  and  O1_21 
ROOT
HETATM    1  N1  UNL     1      33.986  48.749  77.186  1.00  0.00    -0.196 NA
HETATM    2  C1  UNL     1      34.565  48.013  76.484  1.00  0.00     0.075 C 
HETATM    3  C2  UNL     1      35.313  47.070  75.621  1.00  0.00     0.182 C 
HETATM    4  C3  UNL     1      35.864  46.047  76.509  1.00  0.00     0.068 C 
HETATM    5  N2  UNL     1      35.269  45.710  77.557  1.00  0.00    -0.395 N 
ATOM      6  H21 UNL     1      35.654  44.996  78.176  1.00  0.00     0.156 HD
ATOM      7  H22 UNL     1      34.378  46.143  77.797  1.00  0.00     0.156 HD
HETATM    8  S1  UNL     1      37.412  45.294  76.092  1.00  0.00    -0.061 SA
HETATM    9  C4  UNL     1      37.839  45.947  74.489  1.00  0.00     0.068 C 
HETATM   10  N3  UNL     1      38.616  45.297  73.733  1.00  0.00    -0.395 N 
ATOM     11  H31 UNL     1      38.860  45.670  72.815  1.00  0.00     0.156 HD
ATOM     12  H32 UNL     1      38.987  44.404  74.059  1.00  0.00     0.156 HD
HETATM   13  C5  UNL     1      37.301  47.242  74.016  1.00  0.00     0.182 C 
HETATM   14  C6  UNL     1      38.377  48.141  73.646  1.00  0.00     0.075 C 
HETATM   15  N4  UNL     1      39.240  48.887  73.316  1.00  0.00    -0.196 NA
HETATM   16  C7  UNL     1      36.335  47.887  74.902  1.00  0.00    -0.003 C 
ENDROOT
BRANCH  16  17
HETATM   17  C8  UNL     1      36.686  49.176  75.547  1.00  0.00     0.074 A 
HETATM   18  N5  UNL     1      37.440  49.418  76.662  1.00  0.00    -0.334 N 
HETATM   19  C9  UNL     1      37.401  50.699  77.026  1.00  0.00     0.153 A 
ATOM     20  H5  UNL     1      37.969  48.701  77.158  1.00  0.00     0.168 HD
HETATM   21  C10 UNL     1      36.594  51.378  76.122  1.00  0.00     0.050 A 
HETATM   22  C11 UNL     1      36.162  50.430  75.229  1.00  0.00     0.110 A 
HETATM   23  C14 UNL     1      36.334  52.795  75.949  1.00  0.00     0.017 C 
HETATM   24  O2  UNL     1      35.334  50.879  74.230  1.00  0.00    -0.344 OA
HETATM   25  C12 UNL     1      35.213  52.220  73.874  1.00  0.00     0.203 C 
HETATM   26  C13 UNL     1      35.676  53.180  74.886  1.00  0.00     0.001 C 
BRANCH  19  27
HETATM   27  O1  UNL     1      38.038  51.304  78.113  1.00  0.00    -0.345 OA
ATOM     28  H1  UNL     1      38.700  50.932  78.683  1.00  0.00     0.219 HD
ENDBRANCH  19  27
ENDBRANCH  16  17
TORSDOF 2
ENDMDL
MODEL 5
REMARK VINA RESULT: -5.171124980      1.954      4.161
REMARK  2 active torsions:
REMARK  status: ('A' for Active; 'I' for Inactive)
REMARK    1  A    between atoms: C7_16  and  C8_17 
REMARK    2  A    between atoms: C9_20  and  O1_21 
ROOT
HETATM    1  N1  UNL     1      36.966  53.316  73.362  1.00  0.00    -0.196 NA
HETATM    2  C1  UNL     1      36.047  52.593  73.304  1.00  0.00     0.075 C 
HETATM    3  C2  UNL     1      34.866  51.702  73.242  1.00  0.00     0.182 C 
HETATM    4  C3  UNL     1      33.691  52.569  73.325  1.00  0.00     0.068 C 
HETATM    5  N2  UNL     1      33.710  53.733  72.865  1.00  0.00    -0.395 N 
ATOM      6  H21 UNL     1      32.891  54.338  72.922  1.00  0.00     0.156 HD
ATOM      7  H22 UNL     1      34.553  54.087  72.412  1.00  0.00     0.156 HD
HETATM    8  S1  UNL     1      32.227  51.955  74.110  1.00  0.00    -0.061 SA
HETATM    9  C4  UNL     1      32.574  50.249  74.490  1.00  0.00     0.068 C 
HETATM   10  N3  UNL     1      31.621  49.430  74.629  1.00  0.00    -0.395 N 
ATOM     11  H31 UNL     1      31.820  48.453  74.846  1.00  0.00     0.156 HD
ATOM     12  H32 UNL     1      30.664  49.766  74.521  1.00  0.00     0.156 HD
HETATM   13  C5  UNL     1      33.962  49.761  74.646  1.00  0.00     0.182 C 
HETATM   14  C6  UNL     1      34.141  49.124  75.936  1.00  0.00     0.075 C 
HETATM   15  N4  UNL     1      34.306  48.579  76.978  1.00  0.00    -0.196 NA
HETATM   16  C7  UNL     1      35.011  50.741  74.374  1.00  0.00    -0.003 C 
ENDROOT
BRANCH  16  17
HETATM   17  C8  UNL     1      35.891  51.191  75.481  1.00  0.00     0.074 A 
HETATM   18  N5  UNL     1      36.990  50.584  76.024  1.00  0.00    -0.334 N 
HETATM   19  C9  UNL     1      37.427  51.218  77.112  1.00  0.00     0.153 A 
ATOM     20  H5  UNL     1      37.425  49.745  75.641  1.00  0.00     0.168 HD
HETATM   21  C10 UNL     1      36.603  52.315  77.330  1.00  0.00     0.050 A 
HETATM   22  C11 UNL     1      35.667  52.278  76.327  1.00  0.00     0.110 A 
HETATM   23  C14 UNL     1      36.710  53.421  78.263  1.00  0.00     0.017 C 
HETATM   24  O2  UNL     1      34.731  53.282  76.342  1.00  0.00    -0.344 OA
HETATM   25  C12 UNL     1      34.886  54.470  77.053  1.00  0.00     0.203 C 
HETATM   26  C13 UNL     1      35.889  54.431  78.126  1.00  0.00     0.001 C 
BRANCH  19  27
HETATM   27  O1  UNL     1      38.512  50.882  77.925  1.00  0.00    -0.345 OA
ATOM     28  H1  UNL     1      39.048  51.461  78.454  1.00  0.00     0.219 HD
ENDBRANCH  19  27
ENDBRANCH  16  17
TORSDOF 2
ENDMDL
