MODEL 1
REMARK VINA RESULT: -4.275113678      0.000      0.000
REMARK  1 active torsions:
REMARK  status: ('A' for Active; 'I' for Inactive)
REMARK    1  A    between atoms: C2_2  and  C3_3 
ROOT
HETATM    1  C3  UNL     1      34.506  20.263  11.914  1.00  0.00     0.034 C 
HETATM    2  C4  UNL     1      35.150  21.428  11.160  1.00  0.00     0.131 C 
HETATM    3  N1  UNL     1      35.125  22.466  12.183  1.00  0.00    -0.360 N 
ATOM      4  H1  UNL     1      35.780  23.245  12.248  1.00  0.00     0.162 HD
HETATM    5  C5  UNL     1      34.046  22.223  13.074  1.00  0.00     0.218 C 
HETATM    6  O1  UNL     1      33.725  22.947  14.043  1.00  0.00    -0.274 OA
HETATM    7  C6  UNL     1      33.387  20.966  12.637  1.00  0.00     0.113 C 
ENDROOT
BRANCH   1   8
HETATM    8  C2  UNL     1      34.067  19.195  11.024  1.00  0.00    -0.030 C 
HETATM    9  C1  UNL     1      33.527  18.095  11.538  1.00  0.00     0.007 C 
ENDBRANCH   1   8
TORSDOF 1
ENDMDL
MODEL 2
REMARK VINA RESULT: -4.238190908      2.683      3.661
REMARK  1 active torsions:
REMARK  status: ('A' for Active; 'I' for Inactive)
REMARK    1  A    between atoms: C2_2  and  C3_3 
ROOT
HETATM    1  C3  UNL     1      35.147  20.955  11.682  1.00  0.00     0.034 C 
HETATM    2  C4  UNL     1      34.265  19.722  11.467  1.00  0.00     0.131 C 
HETATM    3  N1  UNL     1      34.213  19.672  10.013  1.00  0.00    -0.360 N 
ATOM      4  H1  UNL     1      34.076  18.827   9.457  1.00  0.00     0.162 HD
HETATM    5  C5  UNL     1      34.383  20.980   9.488  1.00  0.00     0.218 C 
HETATM    6  O1  UNL     1      34.354  21.288   8.275  1.00  0.00    -0.274 OA
HETATM    7  C6  UNL     1      34.597  21.892  10.640  1.00  0.00     0.113 C 
ENDROOT
BRANCH   1   8
HETATM    8  C2  UNL     1      35.074  21.465  13.046  1.00  0.00    -0.030 C 
HETATM    9  C1  UNL     1      34.122  22.332  13.371  1.00  0.00     0.007 C 
ENDBRANCH   1   8
TORSDOF 1
ENDMDL
MODEL 3
REMARK VINA RESULT: -4.189537753      2.484      3.600
REMARK  1 active torsions:
REMARK  status: ('A' for Active; 'I' for Inactive)
REMARK    1  A    between atoms: C2_2  and  C3_3 
ROOT
HETATM    1  C3  UNL     1      34.755  21.649  12.608  1.00  0.00     0.034 C 
HETATM    2  C4  UNL     1      33.958  20.376  12.314  1.00  0.00     0.131 C 
HETATM    3  N1  UNL     1      34.569  19.952  11.062  1.00  0.00    -0.360 N 
ATOM      4  H1  UNL     1      34.623  18.990  10.728  1.00  0.00     0.162 HD
HETATM    5  C5  UNL     1      35.079  21.087  10.377  1.00  0.00     0.218 C 
HETATM    6  O1  UNL     1      35.634  21.072   9.255  1.00  0.00    -0.274 OA
HETATM    7  C6  UNL     1      34.829  22.271  11.238  1.00  0.00     0.113 C 
ENDROOT
BRANCH   1   8
HETATM    8  C2  UNL     1      34.117  22.489  13.614  1.00  0.00    -0.030 C 
HETATM    9  C1  UNL     1      32.832  22.802  13.487  1.00  0.00     0.007 C 
ENDBRANCH   1   8
TORSDOF 1
ENDMDL
MODEL 4
REMARK VINA RESULT: -4.142863689      3.087      3.902
REMARK  1 active torsions:
REMARK  status: ('A' for Active; 'I' for Inactive)
REMARK    1  A    between atoms: C2_2  and  C3_3 
ROOT
HETATM    1  C3  UNL     1      34.218  20.558  11.033  1.00  0.00     0.034 C 
HETATM    2  C4  UNL     1      35.243  21.285  10.160  1.00  0.00     0.131 C 
HETATM    3  N1  UNL     1      34.781  20.916   8.828  1.00  0.00    -0.360 N 
ATOM      4  H1  UNL     1      34.917  21.470   7.983  1.00  0.00     0.162 HD
HETATM    5  C5  UNL     1      34.111  19.665   8.891  1.00  0.00     0.218 C 
HETATM    6  O1  UNL     1      33.625  19.050   7.915  1.00  0.00    -0.274 OA
HETATM    7  C6  UNL     1      34.103  19.240  10.313  1.00  0.00     0.113 C 
ENDROOT
BRANCH   1   8
HETATM    8  C2  UNL     1      34.646  20.447  12.423  1.00  0.00    -0.030 C 
HETATM    9  C1  UNL     1      35.299  21.455  12.990  1.00  0.00     0.007 C 
ENDBRANCH   1   8
TORSDOF 1
ENDMDL
MODEL 5
REMARK VINA RESULT: -4.099735515      3.017      3.782
REMARK  1 active torsions:
REMARK  status: ('A' for Active; 'I' for Inactive)
REMARK    1  A    between atoms: C2_2  and  C3_3 
ROOT
HETATM    1  C3  UNL     1      34.405  20.161  11.039  1.00  0.00     0.034 C 
HETATM    2  C4  UNL     1      32.903  20.333  10.807  1.00  0.00     0.131 C 
HETATM    3  N1  UNL     1      32.866  20.503   9.360  1.00  0.00    -0.360 N 
ATOM      4  H1  UNL     1      32.079  20.260   8.758  1.00  0.00     0.162 HD
HETATM    5  C5  UNL     1      34.096  21.059   8.919  1.00  0.00     0.218 C 
HETATM    6  O1  UNL     1      34.376  21.362   7.737  1.00  0.00    -0.274 OA
HETATM    7  C6  UNL     1      34.966  21.208  10.112  1.00  0.00     0.113 C 
ENDROOT
BRANCH   1   8
HETATM    8  C2  UNL     1      34.779  20.336  12.437  1.00  0.00    -0.030 C 
HETATM    9  C1  UNL     1      35.209  21.520  12.857  1.00  0.00     0.007 C 
ENDBRANCH   1   8
TORSDOF 1
ENDMDL
