MODEL 1
REMARK VINA RESULT: -4.530157574      0.000      0.000
REMARK  2 active torsions:
REMARK  status: ('A' for Active; 'I' for Inactive)
REMARK    1  A    between atoms: C1_2  and  N1_3 
REMARK       I    between atoms: N1_3  and  C2_5 
REMARK    2  A    between atoms: C2_5  and  C3_7 
ROOT
HETATM    1  N1  UNL     1      33.469  23.337  10.835  1.00  0.00    -0.305 N 
ATOM      2  H1  UNL     1      33.524  23.851  11.714  1.00  0.00     0.171 HD
HETATM    3  C2  UNL     1      34.281  22.182  10.618  1.00  0.00     0.227 C 
HETATM    4  O2  UNL     1      34.193  21.566   9.521  1.00  0.00    -0.273 OA
ENDROOT
BRANCH   3   5
HETATM    5  C3  UNL     1      35.225  21.678  11.637  1.00  0.00     0.078 A 
HETATM    6  C4  UNL     1      34.710  21.809  13.090  1.00  0.00     0.015 A 
HETATM    7  C5  UNL     1      34.881  20.491  12.462  1.00  0.00     0.015 A 
ENDBRANCH   3   5
BRANCH   1   8
HETATM    8  C1  UNL     1      32.591  23.755   9.811  1.00  0.00     0.355 C 
HETATM    9  O1  UNL     1      32.780  24.821   9.165  1.00  0.00    -0.283 OA
ENDBRANCH   1   8
TORSDOF 2
ENDMDL
MODEL 2
REMARK VINA RESULT: -4.384512683      1.454      1.675
REMARK  2 active torsions:
REMARK  status: ('A' for Active; 'I' for Inactive)
REMARK    1  A    between atoms: C1_2  and  N1_3 
REMARK       I    between atoms: N1_3  and  C2_5 
REMARK    2  A    between atoms: C2_5  and  C3_7 
ROOT
HETATM    1  N1  UNL     1      33.521  23.196  10.760  1.00  0.00    -0.305 N 
ATOM      2  H1  UNL     1      34.513  23.349  10.577  1.00  0.00     0.171 HD
HETATM    3  C2  UNL     1      33.101  22.432  11.891  1.00  0.00     0.227 C 
HETATM    4  O2  UNL     1      31.868  22.259  12.093  1.00  0.00    -0.273 OA
ENDROOT
BRANCH   3   5
HETATM    5  C3  UNL     1      34.063  21.833  12.840  1.00  0.00     0.078 A 
HETATM    6  C4  UNL     1      34.615  20.460  12.392  1.00  0.00     0.015 A 
HETATM    7  C5  UNL     1      35.485  21.643  12.454  1.00  0.00     0.015 A 
ENDBRANCH   3   5
BRANCH   1   8
HETATM    8  C1  UNL     1      32.540  23.737   9.900  1.00  0.00     0.355 C 
HETATM    9  O1  UNL     1      32.758  24.765   9.203  1.00  0.00    -0.283 OA
ENDBRANCH   1   8
TORSDOF 2
ENDMDL
MODEL 3
REMARK VINA RESULT: -4.352068164      3.020      3.447
REMARK  2 active torsions:
REMARK  status: ('A' for Active; 'I' for Inactive)
REMARK    1  A    between atoms: C1_2  and  N1_3 
REMARK       I    between atoms: N1_3  and  C2_5 
REMARK    2  A    between atoms: C2_5  and  C3_7 
ROOT
HETATM    1  N1  UNL     1      33.548  23.022  13.621  1.00  0.00    -0.305 N 
ATOM      2  H1  UNL     1      34.384  23.596  13.730  1.00  0.00     0.171 HD
HETATM    3  C2  UNL     1      33.624  21.738  13.000  1.00  0.00     0.227 C 
HETATM    4  O2  UNL     1      32.575  21.050  12.879  1.00  0.00    -0.273 OA
ENDROOT
BRANCH   3   5
HETATM    5  C3  UNL     1      34.896  21.181  12.493  1.00  0.00     0.078 A 
HETATM    6  C4  UNL     1      35.002  21.158  10.951  1.00  0.00     0.015 A 
HETATM    7  C5  UNL     1      35.856  22.043  11.756  1.00  0.00     0.015 A 
ENDBRANCH   3   5
BRANCH   1   8
HETATM    8  C1  UNL     1      32.294  23.483  14.080  1.00  0.00     0.355 C 
HETATM    9  O1  UNL     1      32.133  23.915  15.254  1.00  0.00    -0.283 OA
ENDBRANCH   1   8
TORSDOF 2
ENDMDL
MODEL 4
REMARK VINA RESULT: -4.238818160      1.912      1.956
REMARK  2 active torsions:
REMARK  status: ('A' for Active; 'I' for Inactive)
REMARK    1  A    between atoms: C1_2  and  N1_3 
REMARK       I    between atoms: N1_3  and  C2_5 
REMARK    2  A    between atoms: C2_5  and  C3_7 
ROOT
HETATM    1  N1  UNL     1      33.344  20.910   9.623  1.00  0.00    -0.305 N 
ATOM      2  H1  UNL     1      32.503  20.648  10.138  1.00  0.00     0.171 HD
HETATM    3  C2  UNL     1      34.626  20.850  10.249  1.00  0.00     0.227 C 
HETATM    4  O2  UNL     1      35.648  21.180   9.589  1.00  0.00    -0.273 OA
ENDROOT
BRANCH   3   5
HETATM    5  C3  UNL     1      34.801  20.411  11.650  1.00  0.00     0.078 A 
HETATM    6  C4  UNL     1      35.234  21.541  12.613  1.00  0.00     0.015 A 
HETATM    7  C5  UNL     1      33.904  20.924  12.718  1.00  0.00     0.015 A 
ENDBRANCH   3   5
BRANCH   1   8
HETATM    8  C1  UNL     1      33.260  21.339   8.280  1.00  0.00     0.355 C 
HETATM    9  O1  UNL     1      32.958  22.525   7.977  1.00  0.00    -0.283 OA
ENDBRANCH   1   8
TORSDOF 2
ENDMDL
MODEL 5
REMARK VINA RESULT: -4.194366768      1.934      1.934
REMARK  2 active torsions:
REMARK  status: ('A' for Active; 'I' for Inactive)
REMARK    1  A    between atoms: C1_2  and  N1_3 
REMARK       I    between atoms: N1_3  and  C2_5 
REMARK    2  A    between atoms: C2_5  and  C3_7 
ROOT
HETATM    1  N1  UNL     1      33.690  22.102   9.625  1.00  0.00    -0.305 N 
ATOM      2  H1  UNL     1      33.279  22.999   9.884  1.00  0.00     0.171 HD
HETATM    3  C2  UNL     1      34.675  21.487  10.457  1.00  0.00     0.227 C 
HETATM    4  O2  UNL     1      35.165  20.378  10.112  1.00  0.00    -0.273 OA
ENDROOT
BRANCH   3   5
HETATM    5  C3  UNL     1      35.142  22.105  11.716  1.00  0.00     0.078 A 
HETATM    6  C4  UNL     1      34.107  22.051  12.864  1.00  0.00     0.015 A 
HETATM    7  C5  UNL     1      35.353  21.275  12.930  1.00  0.00     0.015 A 
ENDBRANCH   3   5
BRANCH   1   8
HETATM    8  C1  UNL     1      33.295  21.447   8.438  1.00  0.00     0.355 C 
HETATM    9  O1  UNL     1      33.817  21.719   7.322  1.00  0.00    -0.283 OA
ENDBRANCH   1   8
TORSDOF 2
ENDMDL
