MODEL 1
REMARK VINA RESULT: -4.008017237      0.000      0.000
REMARK  2 active torsions:
REMARK  status: ('A' for Active; 'I' for Inactive)
REMARK    1  A    between atoms: C2_2  and  C3_3 
REMARK       I    between atoms: C3_3  and  N1_5 
REMARK    2  A    between atoms: N1_5  and  C4_7 
ROOT
HETATM    1  C3  UNL     1      34.766  21.488  10.383  1.00  0.00     0.246 C 
HETATM    2  O1  UNL     1      35.325  20.511   9.827  1.00  0.00    -0.268 OA
HETATM    3  N1  UNL     1      33.637  22.147   9.848  1.00  0.00    -0.301 N 
ATOM      4  H1  UNL     1      33.266  21.802   8.962  1.00  0.00     0.171 HD
ENDROOT
BRANCH   1   5
HETATM    5  C2  UNL     1      35.334  21.942  11.641  1.00  0.00     0.064 C 
HETATM    6  C1  UNL     1      35.173  21.306  12.779  1.00  0.00     0.017 C 
ENDBRANCH   1   5
BRANCH   3   7
HETATM    7  C4  UNL     1      32.985  23.242  10.442  1.00  0.00     0.355 C 
HETATM    8  O2  UNL     1      32.952  24.327   9.817  1.00  0.00    -0.283 OA
ENDBRANCH   3   7
TORSDOF 2
ENDMDL
MODEL 2
REMARK VINA RESULT: -3.597882499      2.666      2.857
REMARK  2 active torsions:
REMARK  status: ('A' for Active; 'I' for Inactive)
REMARK    1  A    between atoms: C2_2  and  C3_3 
REMARK       I    between atoms: C3_3  and  N1_5 
REMARK    2  A    between atoms: N1_5  and  C4_7 
ROOT
HETATM    1  C3  UNL     1      34.940  21.833  12.153  1.00  0.00     0.246 C 
HETATM    2  O1  UNL     1      35.935  22.007  11.407  1.00  0.00    -0.268 OA
HETATM    3  N1  UNL     1      34.122  22.887  12.618  1.00  0.00    -0.301 N 
ATOM      4  H1  UNL     1      34.364  23.834  12.328  1.00  0.00     0.171 HD
ENDROOT
BRANCH   1   5
HETATM    5  C2  UNL     1      34.640  20.466  12.539  1.00  0.00     0.064 C 
HETATM    6  C1  UNL     1      34.135  19.574  11.716  1.00  0.00     0.017 C 
ENDBRANCH   1   5
BRANCH   3   7
HETATM    7  C4  UNL     1      33.001  22.729  13.452  1.00  0.00     0.355 C 
HETATM    8  O2  UNL     1      32.899  23.467  14.460  1.00  0.00    -0.283 OA
ENDBRANCH   3   7
TORSDOF 2
ENDMDL
MODEL 3
REMARK VINA RESULT: -3.567037734      2.246      2.730
REMARK  2 active torsions:
REMARK  status: ('A' for Active; 'I' for Inactive)
REMARK    1  A    between atoms: C2_2  and  C3_3 
REMARK       I    between atoms: C3_3  and  N1_5 
REMARK    2  A    between atoms: N1_5  and  C4_7 
ROOT
HETATM    1  C3  UNL     1      33.226  22.646  13.042  1.00  0.00     0.246 C 
HETATM    2  O1  UNL     1      33.086  23.036  14.227  1.00  0.00    -0.268 OA
HETATM    3  N1  UNL     1      32.693  23.333  11.928  1.00  0.00    -0.301 N 
ATOM      4  H1  UNL     1      32.168  24.188  12.109  1.00  0.00     0.171 HD
ENDROOT
BRANCH   1   5
HETATM    5  C2  UNL     1      33.980  21.422  12.838  1.00  0.00     0.064 C 
HETATM    6  C1  UNL     1      35.292  21.370  12.839  1.00  0.00     0.017 C 
ENDBRANCH   1   5
BRANCH   3   7
HETATM    7  C4  UNL     1      32.831  22.927  10.589  1.00  0.00     0.355 C 
HETATM    8  O2  UNL     1      33.074  23.799   9.723  1.00  0.00    -0.283 OA
ENDBRANCH   3   7
TORSDOF 2
ENDMDL
MODEL 4
REMARK VINA RESULT: -3.537806192      2.684      2.750
REMARK  2 active torsions:
REMARK  status: ('A' for Active; 'I' for Inactive)
REMARK    1  A    between atoms: C2_2  and  C3_3 
REMARK       I    between atoms: C3_3  and  N1_5 
REMARK    2  A    between atoms: N1_5  and  C4_7 
ROOT
HETATM    1  C3  UNL     1      33.969  22.291  11.659  1.00  0.00     0.246 C 
HETATM    2  O1  UNL     1      34.309  22.456  10.462  1.00  0.00    -0.268 OA
HETATM    3  N1  UNL     1      32.999  23.085  12.310  1.00  0.00    -0.301 N 
ATOM      4  H1  UNL     1      32.558  23.829  11.768  1.00  0.00     0.171 HD
ENDROOT
BRANCH   1   5
HETATM    5  C2  UNL     1      34.627  21.219  12.387  1.00  0.00     0.064 C 
HETATM    6  C1  UNL     1      34.434  19.945  12.132  1.00  0.00     0.017 C 
ENDBRANCH   1   5
BRANCH   3   7
HETATM    7  C4  UNL     1      32.593  22.928  13.647  1.00  0.00     0.355 C 
HETATM    8  O2  UNL     1      33.109  23.668  14.517  1.00  0.00    -0.283 OA
ENDBRANCH   3   7
TORSDOF 2
ENDMDL
MODEL 5
REMARK VINA RESULT: -3.471798007      2.945      3.113
REMARK  2 active torsions:
REMARK  status: ('A' for Active; 'I' for Inactive)
REMARK    1  A    between atoms: C2_2  and  C3_3 
REMARK       I    between atoms: C3_3  and  N1_5 
REMARK    2  A    between atoms: N1_5  and  C4_7 
ROOT
HETATM    1  C3  UNL     1      33.648  20.993  12.674  1.00  0.00     0.246 C 
HETATM    2  O1  UNL     1      33.445  19.856  12.182  1.00  0.00    -0.268 OA
HETATM    3  N1  UNL     1      32.614  21.836  13.137  1.00  0.00    -0.301 N 
ATOM      4  H1  UNL     1      31.656  21.493  13.062  1.00  0.00     0.171 HD
ENDROOT
BRANCH   1   5
HETATM    5  C2  UNL     1      35.029  21.436  12.757  1.00  0.00     0.064 C 
HETATM    6  C1  UNL     1      35.686  21.954  11.745  1.00  0.00     0.017 C 
ENDBRANCH   1   5
BRANCH   3   7
HETATM    7  C4  UNL     1      32.804  23.113  13.694  1.00  0.00     0.355 C 
HETATM    8  O2  UNL     1      32.176  23.408  14.738  1.00  0.00    -0.283 OA
ENDBRANCH   3   7
TORSDOF 2
ENDMDL
