MODEL 1
REMARK VINA RESULT: -7.473812076      0.000      0.000
REMARK  12 active torsions:
REMARK  status: ('A' for Active; 'I' for Inactive)
REMARK    1  A    between atoms: C2_2  and  C3_3 
REMARK    2  A    between atoms: C5_5  and  C6_6 
REMARK    3  A    between atoms: C7_7  and  C8_8 
REMARK    4  A    between atoms: C11_12  and  O2_13 
REMARK    5  A    between atoms: C12_15  and  O3_16 
REMARK    6  A    between atoms: C13_18  and  O4_19 
REMARK    7  A    between atoms: O4_19  and  C14_20 
REMARK    8  A    between atoms: C15_22  and  C16_23 
REMARK    9  A    between atoms: C16_23  and  O6_24 
REMARK   10  A    between atoms: C17_26  and  O7_27 
REMARK   11  A    between atoms: C19_30  and  O8_31 
REMARK   12  A    between atoms: C20_34  and  C21_35 
ROOT
HETATM    1  C8  UNL     1       6.462   5.221   6.755  1.00  0.00     0.176 C 
HETATM    2  O1  UNL     1       6.492   3.877   6.404  1.00  0.00    -0.372 OA
HETATM    3  C9  UNL     1       7.661   3.516   5.755  1.00  0.00     0.149 C 
HETATM    4  C10 UNL     1       7.443   3.753   4.275  1.00  0.00     0.042 C 
HETATM    5  C11 UNL     1       8.868   4.238   6.273  1.00  0.00     0.178 C 
HETATM    6  C12 UNL     1       8.709   4.889   7.582  1.00  0.00     0.181 C 
HETATM    7  C13 UNL     1       7.355   5.368   7.974  1.00  0.00     0.188 C 
ENDROOT
BRANCH   7   8
HETATM    8  O4  UNL     1       7.331   6.707   8.320  1.00  0.00    -0.348 OA
BRANCH   8   9
HETATM    9  C14 UNL     1       7.014   7.021   9.603  1.00  0.00     0.289 C 
HETATM   10  O5  UNL     1       5.763   7.518   9.814  1.00  0.00    -0.349 OA
HETATM   11  C15 UNL     1       5.562   8.833   9.539  1.00  0.00     0.177 C 
HETATM   12  C17 UNL     1       6.703   9.590   8.941  1.00  0.00     0.151 C 
HETATM   13  C18 UNL     1       8.048   9.203   9.466  1.00  0.00     0.071 C 
HETATM   14  C19 UNL     1       8.007   7.929  10.291  1.00  0.00     0.175 C 
BRANCH  11  15
HETATM   15  C16 UNL     1       4.301   8.948   8.673  1.00  0.00     0.198 C 
BRANCH  15  16
HETATM   16  O6  UNL     1       3.347   9.730   9.360  1.00  0.00    -0.398 OA
ATOM     17  H6  UNL     1       2.638   9.943   8.764  1.00  0.00     0.209 HD
ENDBRANCH  15  16
ENDBRANCH  11  15
BRANCH  12  18
HETATM   18  O7  UNL     1       6.648   9.407   7.559  1.00  0.00    -0.393 OA
ATOM     19  H7  UNL     1       6.744  10.261   7.154  1.00  0.00     0.210 HD
ENDBRANCH  12  18
BRANCH  14  20
HETATM   20  O8  UNL     1       9.292   7.409  10.294  1.00  0.00    -0.391 OA
ATOM     21  H8  UNL     1       9.737   7.541  11.123  1.00  0.00     0.210 HD
ENDBRANCH  14  20
ENDBRANCH   8   9
ENDBRANCH   7   8
BRANCH   1  22
HETATM   22  C7  UNL     1       5.020   5.481   7.136  1.00  0.00     0.006 C 
HETATM   23  C6  UNL     1       4.438   4.723   8.046  1.00  0.00     0.003 C 
BRANCH  23  24
HETATM   24  C5  UNL     1       3.052   4.864   8.507  1.00  0.00     0.146 C 
HETATM   25  C4  UNL     1       2.922   5.771   9.710  1.00  0.00     0.047 C 
HETATM   26  C3  UNL     1       1.514   5.396  10.200  1.00  0.00     0.050 C 
HETATM   27  C20 UNL     1       1.243   4.134   9.467  1.00  0.00     0.230 C 
HETATM   28  O9  UNL     1       2.480   3.682   8.978  1.00  0.00    -0.365 OA
BRANCH  26  29
HETATM   29  C2  UNL     1       0.646   6.531   9.848  1.00  0.00    -0.029 C 
HETATM   30  C1  UNL     1       0.735   7.779  10.234  1.00  0.00     0.007 C 
ENDBRANCH  26  29
BRANCH  27  31
HETATM   31  C21 UNL     1       0.676   3.109  10.368  1.00  0.00     0.203 C 
HETATM   32  O10 UNL     1       1.425   2.305  10.937  1.00  0.00    -0.646 OA
HETATM   33  O11 UNL     1      -0.690   3.034  10.590  1.00  0.00    -0.646 OA
ENDBRANCH  27  31
ENDBRANCH  23  24
ENDBRANCH   1  22
BRANCH   6  34
HETATM   34  O3  UNL     1       9.581   6.003   7.686  1.00  0.00    -0.390 OA
ATOM     35  H3  UNL     1       9.763   6.194   8.598  1.00  0.00     0.210 HD
ENDBRANCH   6  34
BRANCH   5  36
HETATM   36  O2  UNL     1       9.260   5.171   5.317  1.00  0.00    -0.390 OA
ATOM     37  H2  UNL     1       8.484   5.625   5.009  1.00  0.00     0.210 HD
ENDBRANCH   5  36
TORSDOF 12
ENDMDL
MODEL 2
REMARK VINA RESULT: -7.462001586      1.193      1.615
REMARK  12 active torsions:
REMARK  status: ('A' for Active; 'I' for Inactive)
REMARK    1  A    between atoms: C2_2  and  C3_3 
REMARK    2  A    between atoms: C5_5  and  C6_6 
REMARK    3  A    between atoms: C7_7  and  C8_8 
REMARK    4  A    between atoms: C11_12  and  O2_13 
REMARK    5  A    between atoms: C12_15  and  O3_16 
REMARK    6  A    between atoms: C13_18  and  O4_19 
REMARK    7  A    between atoms: O4_19  and  C14_20 
REMARK    8  A    between atoms: C15_22  and  C16_23 
REMARK    9  A    between atoms: C16_23  and  O6_24 
REMARK   10  A    between atoms: C17_26  and  O7_27 
REMARK   11  A    between atoms: C19_30  and  O8_31 
REMARK   12  A    between atoms: C20_34  and  C21_35 
ROOT
HETATM    1  C8  UNL     1       6.663   4.981   7.092  1.00  0.00     0.176 C 
HETATM    2  O1  UNL     1       6.773   3.605   7.248  1.00  0.00    -0.372 OA
HETATM    3  C9  UNL     1       7.678   3.034   6.368  1.00  0.00     0.149 C 
HETATM    4  C10 UNL     1       6.916   2.689   5.106  1.00  0.00     0.042 C 
HETATM    5  C11 UNL     1       8.863   3.908   6.095  1.00  0.00     0.178 C 
HETATM    6  C12 UNL     1       9.080   5.007   7.048  1.00  0.00     0.181 C 
HETATM    7  C13 UNL     1       7.896   5.588   7.738  1.00  0.00     0.188 C 
ENDROOT
BRANCH   7   8
HETATM    8  O4  UNL     1       7.791   6.957   7.578  1.00  0.00    -0.348 OA
BRANCH   8   9
HETATM    9  C14 UNL     1       8.620   7.745   8.312  1.00  0.00     0.289 C 
HETATM   10  O5  UNL     1       8.200   8.061   9.569  1.00  0.00    -0.349 OA
HETATM   11  C15 UNL     1       7.292   9.064   9.687  1.00  0.00     0.177 C 
HETATM   12  C17 UNL     1       6.766   9.664   8.423  1.00  0.00     0.151 C 
HETATM   13  C18 UNL     1       7.775   9.785   7.327  1.00  0.00     0.071 C 
HETATM   14  C19 UNL     1       9.051   9.018   7.622  1.00  0.00     0.175 C 
BRANCH  11  15
HETATM   15  C16 UNL     1       6.153   8.569  10.586  1.00  0.00     0.198 C 
BRANCH  15  16
HETATM   16  O6  UNL     1       5.286   9.650  10.860  1.00  0.00    -0.398 OA
ATOM     17  H6  UNL     1       4.562   9.336  11.390  1.00  0.00     0.209 HD
ENDBRANCH  15  16
ENDBRANCH  11  15
BRANCH  12  18
HETATM   18  O7  UNL     1       5.686   8.886   8.009  1.00  0.00    -0.393 OA
ATOM     19  H7  UNL     1       5.653   8.926   7.060  1.00  0.00     0.210 HD
ENDBRANCH  12  18
BRANCH  14  20
HETATM   20  O8  UNL     1       9.671   8.781   6.405  1.00  0.00    -0.391 OA
ATOM     21  H8  UNL     1      10.121   7.945   6.380  1.00  0.00     0.210 HD
ENDBRANCH  14  20
ENDBRANCH   8   9
ENDBRANCH   7   8
BRANCH   1  22
HETATM   22  C7  UNL     1       5.428   5.355   7.884  1.00  0.00     0.006 C 
HETATM   23  C6  UNL     1       4.252   4.877   7.525  1.00  0.00     0.003 C 
BRANCH  23  24
HETATM   24  C5  UNL     1       2.979   5.157   8.200  1.00  0.00     0.146 C 
HETATM   25  C4  UNL     1       3.149   5.984   9.454  1.00  0.00     0.047 C 
HETATM   26  C3  UNL     1       1.791   5.754  10.134  1.00  0.00     0.050 C 
HETATM   27  C20 UNL     1       1.248   4.593   9.386  1.00  0.00     0.230 C 
HETATM   28  O9  UNL     1       2.327   4.025   8.690  1.00  0.00    -0.365 OA
BRANCH  26  29
HETATM   29  C2  UNL     1       1.042   7.013   9.980  1.00  0.00    -0.029 C 
HETATM   30  C1  UNL     1       1.438   8.140   9.447  1.00  0.00     0.007 C 
ENDBRANCH  26  29
BRANCH  27  31
HETATM   31  C21 UNL     1       0.685   3.585  10.309  1.00  0.00     0.203 C 
HETATM   32  O10 UNL     1      -0.515   3.624  10.608  1.00  0.00    -0.646 OA
HETATM   33  O11 UNL     1       1.484   2.588  10.847  1.00  0.00    -0.646 OA
ENDBRANCH  27  31
ENDBRANCH  23  24
ENDBRANCH   1  22
BRANCH   6  34
HETATM   34  O3  UNL     1       9.751   6.083   6.413  1.00  0.00    -0.390 OA
ATOM     35  H3  UNL     1      10.680   6.053   6.608  1.00  0.00     0.210 HD
ENDBRANCH   6  34
BRANCH   5  36
HETATM   36  O2  UNL     1       8.743   4.411   4.802  1.00  0.00    -0.390 OA
ATOM     37  H2  UNL     1       8.925   5.343   4.827  1.00  0.00     0.210 HD
ENDBRANCH   5  36
TORSDOF 12
ENDMDL
MODEL 3
REMARK VINA RESULT: -7.268838399      1.752      2.556
REMARK  12 active torsions:
REMARK  status: ('A' for Active; 'I' for Inactive)
REMARK    1  A    between atoms: C2_2  and  C3_3 
REMARK    2  A    between atoms: C5_5  and  C6_6 
REMARK    3  A    between atoms: C7_7  and  C8_8 
REMARK    4  A    between atoms: C11_12  and  O2_13 
REMARK    5  A    between atoms: C12_15  and  O3_16 
REMARK    6  A    between atoms: C13_18  and  O4_19 
REMARK    7  A    between atoms: O4_19  and  C14_20 
REMARK    8  A    between atoms: C15_22  and  C16_23 
REMARK    9  A    between atoms: C16_23  and  O6_24 
REMARK   10  A    between atoms: C17_26  and  O7_27 
REMARK   11  A    between atoms: C19_30  and  O8_31 
REMARK   12  A    between atoms: C20_34  and  C21_35 
ROOT
HETATM    1  C8  UNL     1       6.924   4.980   7.283  1.00  0.00     0.176 C 
HETATM    2  O1  UNL     1       7.123   3.613   7.427  1.00  0.00    -0.372 OA
HETATM    3  C9  UNL     1       7.877   3.067   6.401  1.00  0.00     0.149 C 
HETATM    4  C10 UNL     1       6.914   2.668   5.303  1.00  0.00     0.042 C 
HETATM    5  C11 UNL     1       8.951   3.988   5.907  1.00  0.00     0.178 C 
HETATM    6  C12 UNL     1       9.287   5.111   6.795  1.00  0.00     0.181 C 
HETATM    7  C13 UNL     1       8.225   5.651   7.687  1.00  0.00     0.188 C 
ENDROOT
BRANCH   7   8
HETATM    8  O4  UNL     1       8.029   7.011   7.537  1.00  0.00    -0.348 OA
BRANCH   8   9
HETATM    9  C14 UNL     1       8.803   7.846   8.278  1.00  0.00     0.289 C 
HETATM   10  O5  UNL     1       8.353   8.138   9.531  1.00  0.00    -0.349 OA
HETATM   11  C15 UNL     1       7.387   9.086   9.639  1.00  0.00     0.177 C 
HETATM   12  C17 UNL     1       6.840   9.654   8.369  1.00  0.00     0.151 C 
HETATM   13  C18 UNL     1       7.851   9.833   7.283  1.00  0.00     0.071 C 
HETATM   14  C19 UNL     1       9.167   9.142   7.592  1.00  0.00     0.175 C 
BRANCH  11  15
HETATM   15  C16 UNL     1       6.269   8.526  10.527  1.00  0.00     0.198 C 
BRANCH  15  16
HETATM   16  O6  UNL     1       5.365   9.566  10.832  1.00  0.00    -0.398 OA
ATOM     17  H6  UNL     1       4.481   9.267  10.651  1.00  0.00     0.209 HD
ENDBRANCH  15  16
ENDBRANCH  11  15
BRANCH  12  18
HETATM   18  O7  UNL     1       5.811   8.814   7.945  1.00  0.00    -0.393 OA
ATOM     19  H7  UNL     1       5.734   8.113   8.582  1.00  0.00     0.210 HD
ENDBRANCH  12  18
BRANCH  14  20
HETATM   20  O8  UNL     1       9.811   8.941   6.381  1.00  0.00    -0.391 OA
ATOM     21  H8  UNL     1       9.353   8.324   5.822  1.00  0.00     0.210 HD
ENDBRANCH  14  20
ENDBRANCH   8   9
ENDBRANCH   7   8
BRANCH   1  22
HETATM   22  C7  UNL     1       5.839   5.312   8.285  1.00  0.00     0.006 C 
HETATM   23  C6  UNL     1       4.658   4.731   8.188  1.00  0.00     0.003 C 
BRANCH  23  24
HETATM   24  C5  UNL     1       3.522   4.960   9.088  1.00  0.00     0.146 C 
HETATM   25  C4  UNL     1       2.256   4.278   8.623  1.00  0.00     0.047 C 
HETATM   26  C3  UNL     1       1.206   5.015   9.469  1.00  0.00     0.050 C 
HETATM   27  C20 UNL     1       1.961   6.193   9.965  1.00  0.00     0.230 C 
HETATM   28  O9  UNL     1       3.115   6.292   9.170  1.00  0.00    -0.365 OA
BRANCH  26  29
HETATM   29  C2  UNL     1       0.773   4.060  10.501  1.00  0.00    -0.029 C 
HETATM   30  C1  UNL     1       0.897   2.756  10.513  1.00  0.00     0.007 C 
ENDBRANCH  26  29
BRANCH  27  31
HETATM   31  C21 UNL     1       1.167   7.431   9.820  1.00  0.00     0.203 C 
HETATM   32  O10 UNL     1       1.591   8.358   9.118  1.00  0.00    -0.646 OA
HETATM   33  O11 UNL     1      -0.054   7.571  10.461  1.00  0.00    -0.646 OA
ENDBRANCH  27  31
ENDBRANCH  23  24
ENDBRANCH   1  22
BRANCH   6  34
HETATM   34  O3  UNL     1       9.780   6.205   6.039  1.00  0.00    -0.390 OA
ATOM     35  H3  UNL     1      10.580   6.540   6.427  1.00  0.00     0.210 HD
ENDBRANCH   6  34
BRANCH   5  36
HETATM   36  O2  UNL     1       8.572   4.464   4.654  1.00  0.00    -0.390 OA
ATOM     37  H2  UNL     1       8.492   3.722   4.067  1.00  0.00     0.210 HD
ENDBRANCH   5  36
TORSDOF 12
ENDMDL
MODEL 4
REMARK VINA RESULT: -6.519833731      1.176      1.878
REMARK  12 active torsions:
REMARK  status: ('A' for Active; 'I' for Inactive)
REMARK    1  A    between atoms: C2_2  and  C3_3 
REMARK    2  A    between atoms: C5_5  and  C6_6 
REMARK    3  A    between atoms: C7_7  and  C8_8 
REMARK    4  A    between atoms: C11_12  and  O2_13 
REMARK    5  A    between atoms: C12_15  and  O3_16 
REMARK    6  A    between atoms: C13_18  and  O4_19 
REMARK    7  A    between atoms: O4_19  and  C14_20 
REMARK    8  A    between atoms: C15_22  and  C16_23 
REMARK    9  A    between atoms: C16_23  and  O6_24 
REMARK   10  A    between atoms: C17_26  and  O7_27 
REMARK   11  A    between atoms: C19_30  and  O8_31 
REMARK   12  A    between atoms: C20_34  and  C21_35 
ROOT
HETATM    1  C8  UNL     1       6.633   5.109   6.858  1.00  0.00     0.176 C 
HETATM    2  O1  UNL     1       6.701   3.768   6.504  1.00  0.00    -0.372 OA
HETATM    3  C9  UNL     1       7.774   3.482   5.676  1.00  0.00     0.149 C 
HETATM    4  C10 UNL     1       7.306   3.690   4.251  1.00  0.00     0.042 C 
HETATM    5  C11 UNL     1       8.994   4.291   5.996  1.00  0.00     0.178 C 
HETATM    6  C12 UNL     1       9.001   4.942   7.314  1.00  0.00     0.181 C 
HETATM    7  C13 UNL     1       7.697   5.329   7.919  1.00  0.00     0.188 C 
ENDROOT
BRANCH   7   8
HETATM    8  O4  UNL     1       7.635   6.666   8.267  1.00  0.00    -0.348 OA
BRANCH   8   9
HETATM    9  C14 UNL     1       7.272   6.970   9.541  1.00  0.00     0.289 C 
HETATM   10  O5  UNL     1       6.011   7.457   9.712  1.00  0.00    -0.349 OA
HETATM   11  C15 UNL     1       5.810   8.772   9.438  1.00  0.00     0.177 C 
HETATM   12  C17 UNL     1       6.966   9.541   8.884  1.00  0.00     0.151 C 
HETATM   13  C18 UNL     1       8.294   9.159   9.453  1.00  0.00     0.071 C 
HETATM   14  C19 UNL     1       8.234   7.880  10.268  1.00  0.00     0.175 C 
BRANCH  11  15
HETATM   15  C16 UNL     1       4.579   8.884   8.530  1.00  0.00     0.198 C 
BRANCH  15  16
HETATM   16  O6  UNL     1       3.545   9.530   9.243  1.00  0.00    -0.398 OA
ATOM     17  H6  UNL     1       3.300   8.989   9.985  1.00  0.00     0.209 HD
ENDBRANCH  15  16
ENDBRANCH  11  15
BRANCH  12  18
HETATM   18  O7  UNL     1       6.960   9.366   7.500  1.00  0.00    -0.393 OA
ATOM     19  H7  UNL     1       6.098   9.615   7.186  1.00  0.00     0.210 HD
ENDBRANCH  12  18
BRANCH  14  20
HETATM   20  O8  UNL     1       9.522   7.369  10.313  1.00  0.00    -0.391 OA
ATOM     21  H8  UNL     1      10.179   8.044  10.435  1.00  0.00     0.210 HD
ENDBRANCH  14  20
ENDBRANCH   8   9
ENDBRANCH   7   8
BRANCH   1  22
HETATM   22  C7  UNL     1       5.256   5.272   7.466  1.00  0.00     0.006 C 
HETATM   23  C6  UNL     1       4.858   4.444   8.414  1.00  0.00     0.003 C 
BRANCH  23  24
HETATM   24  C5  UNL     1       3.554   4.488   9.086  1.00  0.00     0.146 C 
HETATM   25  C4  UNL     1       2.427   3.977   8.218  1.00  0.00     0.047 C 
HETATM   26  C3  UNL     1       1.209   4.524   8.978  1.00  0.00     0.050 C 
HETATM   27  C20 UNL     1       1.820   5.524   9.889  1.00  0.00     0.230 C 
HETATM   28  O9  UNL     1       3.112   5.774   9.399  1.00  0.00    -0.365 OA
BRANCH  26  29
HETATM   29  C2  UNL     1       0.588   3.363   9.638  1.00  0.00    -0.029 C 
HETATM   30  C1  UNL     1      -0.640   3.229  10.070  1.00  0.00     0.007 C 
ENDBRANCH  26  29
BRANCH  27  31
HETATM   31  C21 UNL     1       1.049   6.786   9.883  1.00  0.00     0.203 C 
HETATM   32  O10 UNL     1       1.487   7.774   9.281  1.00  0.00    -0.646 OA
HETATM   33  O11 UNL     1      -0.166   6.879  10.544  1.00  0.00    -0.646 OA
ENDBRANCH  27  31
ENDBRANCH  23  24
ENDBRANCH   1  22
BRANCH   6  34
HETATM   34  O3  UNL     1       9.799   6.114   7.280  1.00  0.00    -0.390 OA
ATOM     35  H3  UNL     1       9.989   6.408   8.163  1.00  0.00     0.210 HD
ENDBRANCH   6  34
BRANCH   5  36
HETATM   36  O2  UNL     1       9.162   5.241   4.991  1.00  0.00    -0.390 OA
ATOM     37  H2  UNL     1       8.341   5.323   4.520  1.00  0.00     0.210 HD
ENDBRANCH   5  36
TORSDOF 12
ENDMDL
MODEL 5
REMARK VINA RESULT: -6.504598028      2.493      7.547
REMARK  12 active torsions:
REMARK  status: ('A' for Active; 'I' for Inactive)
REMARK    1  A    between atoms: C2_2  and  C3_3 
REMARK    2  A    between atoms: C5_5  and  C6_6 
REMARK    3  A    between atoms: C7_7  and  C8_8 
REMARK    4  A    between atoms: C11_12  and  O2_13 
REMARK    5  A    between atoms: C12_15  and  O3_16 
REMARK    6  A    between atoms: C13_18  and  O4_19 
REMARK    7  A    between atoms: O4_19  and  C14_20 
REMARK    8  A    between atoms: C15_22  and  C16_23 
REMARK    9  A    between atoms: C16_23  and  O6_24 
REMARK   10  A    between atoms: C17_26  and  O7_27 
REMARK   11  A    between atoms: C19_30  and  O8_31 
REMARK   12  A    between atoms: C20_34  and  C21_35 
ROOT
HETATM    1  C8  UNL     1       7.817   7.090   7.933  1.00  0.00     0.176 C 
HETATM    2  O1  UNL     1       8.656   7.773   8.804  1.00  0.00    -0.372 OA
HETATM    3  C9  UNL     1       8.422   9.138   8.821  1.00  0.00     0.149 C 
HETATM    4  C10 UNL     1       9.281   9.752   7.736  1.00  0.00     0.042 C 
HETATM    5  C11 UNL     1       6.973   9.486   8.662  1.00  0.00     0.178 C 
HETATM    6  C12 UNL     1       6.023   8.390   8.899  1.00  0.00     0.181 C 
HETATM    7  C13 UNL     1       6.466   6.997   8.620  1.00  0.00     0.188 C 
ENDROOT
BRANCH   7   8
HETATM    8  O4  UNL     1       5.629   6.323   7.750  1.00  0.00    -0.348 OA
BRANCH   8   9
HETATM    9  C14 UNL     1       5.142   5.119   8.148  1.00  0.00     0.289 C 
HETATM   10  O5  UNL     1       5.374   4.066   7.315  1.00  0.00    -0.349 OA
HETATM   11  C15 UNL     1       4.560   3.935   6.236  1.00  0.00     0.177 C 
HETATM   12  C17 UNL     1       3.546   5.010   6.009  1.00  0.00     0.151 C 
HETATM   13  C18 UNL     1       2.938   5.563   7.258  1.00  0.00     0.071 C 
HETATM   14  C19 UNL     1       3.674   5.122   8.510  1.00  0.00     0.175 C 
BRANCH  11  15
HETATM   15  C16 UNL     1       5.442   3.730   4.999  1.00  0.00     0.198 C 
BRANCH  15  16
HETATM   16  O6  UNL     1       6.496   4.670   5.029  1.00  0.00    -0.398 OA
ATOM     17  H6  UNL     1       6.172   5.504   4.708  1.00  0.00     0.209 HD
ENDBRANCH  15  16
ENDBRANCH  11  15
BRANCH  12  18
HETATM   18  O7  UNL     1       4.167   6.023   5.278  1.00  0.00    -0.393 OA
ATOM     19  H7  UNL     1       4.794   6.446   5.854  1.00  0.00     0.210 HD
ENDBRANCH  12  18
BRANCH  14  20
HETATM   20  O8  UNL     1       3.372   6.042   9.501  1.00  0.00    -0.391 OA
ATOM     21  H8  UNL     1       2.495   5.930   9.849  1.00  0.00     0.210 HD
ENDBRANCH  14  20
ENDBRANCH   8   9
ENDBRANCH   7   8
BRANCH   1  22
HETATM   22  C7  UNL     1       8.433   5.713   7.815  1.00  0.00     0.006 C 
HETATM   23  C6  UNL     1       9.364   5.488   6.906  1.00  0.00     0.003 C 
BRANCH  23  24
HETATM   24  C5  UNL     1      10.042   4.206   6.683  1.00  0.00     0.146 C 
HETATM   25  C4  UNL     1       9.277   3.031   7.248  1.00  0.00     0.047 C 
HETATM   26  C3  UNL     1      10.371   1.953   7.254  1.00  0.00     0.050 C 
HETATM   27  C20 UNL     1      11.609   2.749   7.063  1.00  0.00     0.230 C 
HETATM   28  O9  UNL     1      11.271   4.085   7.332  1.00  0.00    -0.365 OA
BRANCH  26  29
HETATM   29  C2  UNL     1      10.037   1.030   6.157  1.00  0.00    -0.029 C 
HETATM   30  C1  UNL     1      10.649   0.866   5.011  1.00  0.00     0.007 C 
ENDBRANCH  26  29
BRANCH  27  31
HETATM   31  C21 UNL     1      12.665   2.320   8.004  1.00  0.00     0.203 C 
HETATM   32  O10 UNL     1      13.672   3.022   8.165  1.00  0.00    -0.646 OA
HETATM   33  O11 UNL     1      12.545   1.136   8.716  1.00  0.00    -0.646 OA
ENDBRANCH  27  31
ENDBRANCH  23  24
ENDBRANCH   1  22
BRANCH   6  34
HETATM   34  O3  UNL     1       4.836   8.597   8.151  1.00  0.00    -0.390 OA
ATOM     35  H3  UNL     1       4.626   7.821   7.645  1.00  0.00     0.210 HD
ENDBRANCH   6  34
BRANCH   5  36
HETATM   36  O2  UNL     1       6.790  10.013   7.386  1.00  0.00    -0.390 OA
ATOM     37  H2  UNL     1       6.079   9.541   6.969  1.00  0.00     0.210 HD
ENDBRANCH   5  36
TORSDOF 12
ENDMDL
