MODEL 1
REMARK VINA RESULT: -6.786520537      0.000      0.000
REMARK  10 active torsions:
REMARK  status: ('A' for Active; 'I' for Inactive)
REMARK    1  A    between atoms: C2_2  and  O1_3 
REMARK    2  A    between atoms: C2_2  and  C3_10 
REMARK    3  A    between atoms: O1_3  and  S1_4 
REMARK    4  A    between atoms: S1_4  and  N1_5 
REMARK    5  A    between atoms: C4_12  and  N2_13 
REMARK    6  A    between atoms: N2_13  and  S2_15 
REMARK    7  A    between atoms: S2_15  and  O7_18 
REMARK    8  A    between atoms: O7_18  and  C5_19 
REMARK    9  A    between atoms: C8_22  and  N3_24 
REMARK   10  A    between atoms: C12_33  and  O8_34 
ROOT
HETATM    1  S2  UNL     1       3.219   6.961   8.814  1.00  0.00     0.360 S 
HETATM    2  O5  UNL     1       3.919   7.063  10.135  1.00  0.00    -0.176 OA
HETATM    3  O6  UNL     1       2.567   8.326   8.620  1.00  0.00    -0.176 OA
ENDROOT
BRANCH   1   4
HETATM    4  N2  UNL     1       4.461   6.877   7.622  1.00  0.00    -0.269 N 
ATOM      5  H2  UNL     1       4.346   7.088   6.631  1.00  0.00     0.177 HD
BRANCH   4   6
HETATM    6  C4  UNL     1       5.688   6.461   8.251  1.00  0.00     0.244 C 
HETATM    7  O4  UNL     1       6.394   7.467   8.825  1.00  0.00    -0.347 OA
HETATM    8  C3  UNL     1       7.537   7.080   9.393  1.00  0.00     0.215 C 
HETATM    9  S3  UNL     1       8.181   5.841   8.199  1.00  0.00    -0.130 SA
HETATM   10  C13 UNL     1       6.576   5.671   7.318  1.00  0.00     0.131 C 
BRANCH   8  11
HETATM   11  C2  UNL     1       8.593   8.124   9.585  1.00  0.00     0.179 C 
HETATM   12  C1  UNL     1       8.599   9.179   8.518  1.00  0.00     0.044 C 
BRANCH  11  13
HETATM   13  O1  UNL     1       8.468   8.630  10.859  1.00  0.00    -0.251 OA
BRANCH  13  14
HETATM   14  S1  UNL     1       9.528   8.042  11.971  1.00  0.00     0.356 S 
HETATM   15  O2  UNL     1      10.611   7.264  11.233  1.00  0.00    -0.176 OA
HETATM   16  O3  UNL     1       8.922   7.076  12.940  1.00  0.00    -0.176 OA
BRANCH  14  17
HETATM   17  N1  UNL     1      10.323   9.278  12.886  1.00  0.00    -0.306 N 
ATOM     18  H12 UNL     1      10.298  10.261  12.614  1.00  0.00     0.171 HD
ATOM     19  H11 UNL     1      10.808   8.924  13.710  1.00  0.00     0.171 HD
ENDBRANCH  14  17
ENDBRANCH  13  14
ENDBRANCH  11  13
ENDBRANCH   8  11
ENDBRANCH   4   6
ENDBRANCH   1   4
BRANCH   1  20
HETATM   20  O7  UNL     1       2.110   5.810   8.655  1.00  0.00    -0.251 OA
BRANCH  20  21
HETATM   21  C5  UNL     1       2.296   4.597   9.317  1.00  0.00     0.178 C 
HETATM   22  C6  UNL     1       1.154   4.378  10.214  1.00  0.00     0.039 C 
HETATM   23  C7  UNL     1       0.146   3.364   9.833  1.00  0.00     0.041 C 
HETATM   24  C8  UNL     1       0.510   1.944  10.079  1.00  0.00     0.125 C 
HETATM   25  C9  UNL     1      -0.810   1.153  10.100  1.00  0.00     0.046 C 
HETATM   26  C10 UNL     1       1.334   1.352   8.962  1.00  0.00     0.093 C 
HETATM   27  C11 UNL     1       1.770   2.469   8.085  1.00  0.00     0.014 C 
HETATM   28  N4  UNL     1       1.229   2.513   6.906  1.00  0.00    -0.403 N 
HETATM   29  C12 UNL     1       2.749   3.501   8.445  1.00  0.00     0.193 C 
ATOM     30  H42 UNL     1       0.548   1.796   6.656  1.00  0.00     0.155 HD
ATOM     31  H41 UNL     1       1.528   3.280   6.305  1.00  0.00     0.155 HD
BRANCH  24  32
HETATM   32  N3  UNL     1       1.121   1.707  11.364  1.00  0.00    -0.070 N 
ATOM     33  H33 UNL     1       0.408   1.535  12.072  1.00  0.00     0.275 HD
ATOM     34  H32 UNL     1       1.596   0.805  11.373  1.00  0.00     0.275 HD
ATOM     35  H31 UNL     1       1.754   2.447  11.668  1.00  0.00     0.275 HD
ENDBRANCH  24  32
BRANCH  29  36
HETATM   36  O8  UNL     1       3.280   3.956   7.211  1.00  0.00    -0.387 OA
ATOM     37  H8  UNL     1       4.193   4.213   7.271  1.00  0.00     0.210 HD
ENDBRANCH  29  36
ENDBRANCH  20  21
ENDBRANCH   1  20
TORSDOF 10
ENDMDL
MODEL 2
REMARK VINA RESULT: -6.663871034      4.237      7.154
REMARK  10 active torsions:
REMARK  status: ('A' for Active; 'I' for Inactive)
REMARK    1  A    between atoms: C2_2  and  O1_3 
REMARK    2  A    between atoms: C2_2  and  C3_10 
REMARK    3  A    between atoms: O1_3  and  S1_4 
REMARK    4  A    between atoms: S1_4  and  N1_5 
REMARK    5  A    between atoms: C4_12  and  N2_13 
REMARK    6  A    between atoms: N2_13  and  S2_15 
REMARK    7  A    between atoms: S2_15  and  O7_18 
REMARK    8  A    between atoms: O7_18  and  C5_19 
REMARK    9  A    between atoms: C8_22  and  N3_24 
REMARK   10  A    between atoms: C12_33  and  O8_34 
ROOT
HETATM    1  S2  UNL     1       7.965   7.718   8.346  1.00  0.00     0.360 S 
HETATM    2  O5  UNL     1       8.921   8.652   7.668  1.00  0.00    -0.176 OA
HETATM    3  O6  UNL     1       8.690   7.282   9.613  1.00  0.00    -0.176 OA
ENDROOT
BRANCH   1   4
HETATM    4  N2  UNL     1       6.650   8.693   8.886  1.00  0.00    -0.269 N 
ATOM      5  H2  UNL     1       6.734   9.603   9.337  1.00  0.00     0.177 HD
BRANCH   4   6
HETATM    6  C4  UNL     1       5.413   8.013   8.599  1.00  0.00     0.244 C 
HETATM    7  O4  UNL     1       4.316   8.811   8.621  1.00  0.00    -0.347 OA
HETATM    8  C3  UNL     1       3.171   8.176   8.370  1.00  0.00     0.215 C 
HETATM    9  S3  UNL     1       3.383   6.591   9.276  1.00  0.00    -0.130 SA
HETATM   10  C13 UNL     1       5.196   6.810   9.487  1.00  0.00     0.131 C 
BRANCH   8  11
HETATM   11  C2  UNL     1       1.910   8.819   8.860  1.00  0.00     0.179 C 
HETATM   12  C1  UNL     1       1.079   7.926   9.735  1.00  0.00     0.044 C 
BRANCH  11  13
HETATM   13  O1  UNL     1       2.243  10.015   9.453  1.00  0.00    -0.251 OA
BRANCH  13  14
HETATM   14  S1  UNL     1       1.085  11.184   9.406  1.00  0.00     0.356 S 
HETATM   15  O2  UNL     1       0.834  11.548   7.948  1.00  0.00    -0.176 OA
HETATM   16  O3  UNL     1       1.478  12.459  10.083  1.00  0.00    -0.176 OA
BRANCH  14  17
HETATM   17  N1  UNL     1      -0.430  10.678  10.073  1.00  0.00    -0.306 N 
ATOM     18  H12 UNL     1      -0.775   9.722   9.986  1.00  0.00     0.171 HD
ATOM     19  H11 UNL     1      -0.931  11.426  10.553  1.00  0.00     0.171 HD
ENDBRANCH  14  17
ENDBRANCH  13  14
ENDBRANCH  11  13
ENDBRANCH   8  11
ENDBRANCH   4   6
ENDBRANCH   1   4
BRANCH   1  20
HETATM   20  O7  UNL     1       7.496   6.420   7.523  1.00  0.00    -0.251 OA
BRANCH  20  21
HETATM   21  C5  UNL     1       8.175   5.218   7.713  1.00  0.00     0.178 C 
HETATM   22  C6  UNL     1       7.185   4.145   7.876  1.00  0.00     0.039 C 
HETATM   23  C7  UNL     1       6.985   3.199   6.756  1.00  0.00     0.041 C 
HETATM   24  C8  UNL     1       8.004   2.127   6.607  1.00  0.00     0.125 C 
HETATM   25  C9  UNL     1       7.350   1.018   5.763  1.00  0.00     0.046 C 
HETATM   26  C10 UNL     1       9.217   2.580   5.832  1.00  0.00     0.093 C 
HETATM   27  C11 UNL     1       9.140   4.058   5.701  1.00  0.00     0.014 C 
HETATM   28  N4  UNL     1       8.905   4.513   4.509  1.00  0.00    -0.403 N 
HETATM   29  C12 UNL     1       9.310   5.019   6.797  1.00  0.00     0.193 C 
ATOM     30  H42 UNL     1       8.787   3.846   3.748  1.00  0.00     0.155 HD
ATOM     31  H41 UNL     1       8.852   5.528   4.420  1.00  0.00     0.155 HD
BRANCH  24  32
HETATM   32  N3  UNL     1       8.379   1.495   7.848  1.00  0.00    -0.070 N 
ATOM     33  H33 UNL     1       8.408   2.179   8.603  1.00  0.00     0.275 HD
ATOM     34  H32 UNL     1       7.626   0.895   8.186  1.00  0.00     0.275 HD
ATOM     35  H31 UNL     1       9.256   0.976   7.803  1.00  0.00     0.275 HD
ENDBRANCH  24  32
BRANCH  29  36
HETATM   36  O8  UNL     1       9.740   6.219   6.175  1.00  0.00    -0.387 OA
ATOM     37  H8  UNL     1      10.682   6.339   6.208  1.00  0.00     0.210 HD
ENDBRANCH  29  36
ENDBRANCH  20  21
ENDBRANCH   1  20
TORSDOF 10
ENDMDL
MODEL 3
REMARK VINA RESULT: -6.639842037      2.899      7.477
REMARK  10 active torsions:
REMARK  status: ('A' for Active; 'I' for Inactive)
REMARK    1  A    between atoms: C2_2  and  O1_3 
REMARK    2  A    between atoms: C2_2  and  C3_10 
REMARK    3  A    between atoms: O1_3  and  S1_4 
REMARK    4  A    between atoms: S1_4  and  N1_5 
REMARK    5  A    between atoms: C4_12  and  N2_13 
REMARK    6  A    between atoms: N2_13  and  S2_15 
REMARK    7  A    between atoms: S2_15  and  O7_18 
REMARK    8  A    between atoms: O7_18  and  C5_19 
REMARK    9  A    between atoms: C8_22  and  N3_24 
REMARK   10  A    between atoms: C12_33  and  O8_34 
ROOT
HETATM    1  S2  UNL     1       7.283   8.127   9.262  1.00  0.00     0.360 S 
HETATM    2  O5  UNL     1       8.302   9.213   9.094  1.00  0.00    -0.176 OA
HETATM    3  O6  UNL     1       6.889   8.196  10.732  1.00  0.00    -0.176 OA
ENDROOT
BRANCH   1   4
HETATM    4  N2  UNL     1       5.888   8.644   8.391  1.00  0.00    -0.269 N 
ATOM      5  H2  UNL     1       5.897   9.187   7.528  1.00  0.00     0.177 HD
BRANCH   4   6
HETATM    6  C4  UNL     1       4.709   8.185   9.079  1.00  0.00     0.244 C 
HETATM    7  O4  UNL     1       4.493   6.849   8.993  1.00  0.00    -0.347 OA
HETATM    8  C3  UNL     1       3.392   6.430   9.618  1.00  0.00     0.215 C 
HETATM    9  S3  UNL     1       2.180   7.757   9.231  1.00  0.00    -0.130 SA
HETATM   10  C13 UNL     1       3.468   8.939   8.661  1.00  0.00     0.131 C 
BRANCH   8  11
HETATM   11  C2  UNL     1       2.804   5.128   9.170  1.00  0.00     0.179 C 
HETATM   12  C1  UNL     1       1.458   4.837   9.765  1.00  0.00     0.044 C 
BRANCH  11  13
HETATM   13  O1  UNL     1       2.815   5.104   7.794  1.00  0.00    -0.251 OA
BRANCH  13  14
HETATM   14  S1  UNL     1       3.092   3.637   7.104  1.00  0.00     0.356 S 
HETATM   15  O2  UNL     1       3.977   3.843   5.882  1.00  0.00    -0.176 OA
HETATM   16  O3  UNL     1       1.858   2.955   6.603  1.00  0.00    -0.176 OA
BRANCH  14  17
HETATM   17  N1  UNL     1       3.917   2.530   8.150  1.00  0.00    -0.306 N 
ATOM     18  H12 UNL     1       4.191   2.777   9.101  1.00  0.00     0.171 HD
ATOM     19  H11 UNL     1       4.096   1.623   7.719  1.00  0.00     0.171 HD
ENDBRANCH  14  17
ENDBRANCH  13  14
ENDBRANCH  11  13
ENDBRANCH   8  11
ENDBRANCH   4   6
ENDBRANCH   1   4
BRANCH   1  20
HETATM   20  O7  UNL     1       7.738   6.629   8.899  1.00  0.00    -0.251 OA
BRANCH  20  21
HETATM   21  C5  UNL     1       7.914   6.283   7.560  1.00  0.00     0.178 C 
HETATM   22  C6  UNL     1       9.353   6.298   7.262  1.00  0.00     0.039 C 
HETATM   23  C7  UNL     1      10.049   5.003   7.100  1.00  0.00     0.041 C 
HETATM   24  C8  UNL     1       9.868   4.314   5.795  1.00  0.00     0.125 C 
HETATM   25  C9  UNL     1      11.033   3.316   5.663  1.00  0.00     0.046 C 
HETATM   26  C10 UNL     1       8.605   3.489   5.743  1.00  0.00     0.093 C 
HETATM   27  C11 UNL     1       7.782   3.853   6.926  1.00  0.00     0.014 C 
HETATM   28  N4  UNL     1       7.670   2.943   7.844  1.00  0.00    -0.403 N 
HETATM   29  C12 UNL     1       7.100   5.136   7.125  1.00  0.00     0.193 C 
ATOM     30  H42 UNL     1       8.144   2.051   7.706  1.00  0.00     0.155 HD
ATOM     31  H41 UNL     1       7.105   3.193   8.655  1.00  0.00     0.155 HD
BRANCH  24  32
HETATM   32  N3  UNL     1       9.974   5.184   4.650  1.00  0.00    -0.070 N 
ATOM     33  H33 UNL     1       9.070   5.604   4.435  1.00  0.00     0.275 HD
ATOM     34  H32 UNL     1      10.504   6.023   4.886  1.00  0.00     0.275 HD
ATOM     35  H31 UNL     1      10.365   4.736   3.821  1.00  0.00     0.275 HD
ENDBRANCH  24  32
BRANCH  29  36
HETATM   36  O8  UNL     1       6.023   4.852   8.004  1.00  0.00    -0.387 OA
ATOM     37  H8  UNL     1       5.217   5.290   7.758  1.00  0.00     0.210 HD
ENDBRANCH  29  36
ENDBRANCH  20  21
ENDBRANCH   1  20
TORSDOF 10
ENDMDL
MODEL 4
REMARK VINA RESULT: -6.457587617      4.042      7.689
REMARK  10 active torsions:
REMARK  status: ('A' for Active; 'I' for Inactive)
REMARK    1  A    between atoms: C2_2  and  O1_3 
REMARK    2  A    between atoms: C2_2  and  C3_10 
REMARK    3  A    between atoms: O1_3  and  S1_4 
REMARK    4  A    between atoms: S1_4  and  N1_5 
REMARK    5  A    between atoms: C4_12  and  N2_13 
REMARK    6  A    between atoms: N2_13  and  S2_15 
REMARK    7  A    between atoms: S2_15  and  O7_18 
REMARK    8  A    between atoms: O7_18  and  C5_19 
REMARK    9  A    between atoms: C8_22  and  N3_24 
REMARK   10  A    between atoms: C12_33  and  O8_34 
ROOT
HETATM    1  S2  UNL     1       7.976   7.439   9.217  1.00  0.00     0.360 S 
HETATM    2  O5  UNL     1       8.191   8.516   8.198  1.00  0.00    -0.176 OA
HETATM    3  O6  UNL     1       9.075   7.664  10.249  1.00  0.00    -0.176 OA
ENDROOT
BRANCH   1   4
HETATM    4  N2  UNL     1       6.505   7.834  10.025  1.00  0.00    -0.269 N 
ATOM      5  H2  UNL     1       6.428   8.149  10.992  1.00  0.00     0.177 HD
BRANCH   4   6
HETATM    6  C4  UNL     1       5.405   7.648   9.115  1.00  0.00     0.244 C 
HETATM    7  O4  UNL     1       4.424   8.578   9.223  1.00  0.00    -0.347 OA
HETATM    8  C3  UNL     1       3.399   8.394   8.390  1.00  0.00     0.215 C 
HETATM    9  S3  UNL     1       3.179   6.569   8.419  1.00  0.00    -0.130 SA
HETATM   10  C13 UNL     1       4.815   6.260   9.199  1.00  0.00     0.131 C 
BRANCH   8  11
HETATM   11  C2  UNL     1       2.091   9.019   8.765  1.00  0.00     0.179 C 
HETATM   12  C1  UNL     1       1.185   8.106   9.537  1.00  0.00     0.044 C 
BRANCH  11  13
HETATM   13  O1  UNL     1       2.353  10.207   9.408  1.00  0.00    -0.251 OA
BRANCH  13  14
HETATM   14  S1  UNL     1       1.126  11.302   9.418  1.00  0.00     0.356 S 
HETATM   15  O2  UNL     1       0.855  11.729   7.980  1.00  0.00    -0.176 OA
HETATM   16  O3  UNL     1       1.437  12.561  10.164  1.00  0.00    -0.176 OA
BRANCH  14  17
HETATM   17  N1  UNL     1      -0.356  10.669  10.049  1.00  0.00    -0.306 N 
ATOM     18  H12 UNL     1      -0.613  10.754  11.033  1.00  0.00     0.171 HD
ATOM     19  H11 UNL     1      -0.934  10.210   9.345  1.00  0.00     0.171 HD
ENDBRANCH  14  17
ENDBRANCH  13  14
ENDBRANCH  11  13
ENDBRANCH   8  11
ENDBRANCH   4   6
ENDBRANCH   1   4
BRANCH   1  20
HETATM   20  O7  UNL     1       8.027   5.917   8.703  1.00  0.00    -0.251 OA
BRANCH  20  21
HETATM   21  C5  UNL     1       8.157   5.671   7.337  1.00  0.00     0.178 C 
HETATM   22  C6  UNL     1       9.571   5.831   6.970  1.00  0.00     0.039 C 
HETATM   23  C7  UNL     1      10.366   4.616   6.688  1.00  0.00     0.041 C 
HETATM   24  C8  UNL     1      10.172   3.994   5.352  1.00  0.00     0.125 C 
HETATM   25  C9  UNL     1      11.408   3.113   5.097  1.00  0.00     0.046 C 
HETATM   26  C10 UNL     1       8.983   3.065   5.308  1.00  0.00     0.093 C 
HETATM   27  C11 UNL     1       8.198   3.282   6.551  1.00  0.00     0.014 C 
HETATM   28  N4  UNL     1       8.214   2.311   7.412  1.00  0.00    -0.403 N 
HETATM   29  C12 UNL     1       7.421   4.485   6.868  1.00  0.00     0.193 C 
ATOM     30  H42 UNL     1       8.755   1.474   7.192  1.00  0.00     0.155 HD
ATOM     31  H41 UNL     1       7.676   2.460   8.265  1.00  0.00     0.155 HD
BRANCH  24  32
HETATM   32  N3  UNL     1      10.140   4.938   4.262  1.00  0.00    -0.070 N 
ATOM     33  H33 UNL     1      10.583   4.542   3.433  1.00  0.00     0.275 HD
ATOM     34  H32 UNL     1       9.188   5.050   3.913  1.00  0.00     0.275 HD
ATOM     35  H31 UNL     1      10.548   5.846   4.485  1.00  0.00     0.275 HD
ENDBRANCH  24  32
BRANCH  29  36
HETATM   36  O8  UNL     1       6.423   4.054   7.779  1.00  0.00    -0.387 OA
ATOM     37  H8  UNL     1       6.551   3.162   8.077  1.00  0.00     0.210 HD
ENDBRANCH  29  36
ENDBRANCH  20  21
ENDBRANCH   1  20
TORSDOF 10
ENDMDL
MODEL 5
REMARK VINA RESULT: -6.423413024      2.843      3.661
REMARK  10 active torsions:
REMARK  status: ('A' for Active; 'I' for Inactive)
REMARK    1  A    between atoms: C2_2  and  O1_3 
REMARK    2  A    between atoms: C2_2  and  C3_10 
REMARK    3  A    between atoms: O1_3  and  S1_4 
REMARK    4  A    between atoms: S1_4  and  N1_5 
REMARK    5  A    between atoms: C4_12  and  N2_13 
REMARK    6  A    between atoms: N2_13  and  S2_15 
REMARK    7  A    between atoms: S2_15  and  O7_18 
REMARK    8  A    between atoms: O7_18  and  C5_19 
REMARK    9  A    between atoms: C8_22  and  N3_24 
REMARK   10  A    between atoms: C12_33  and  O8_34 
ROOT
HETATM    1  S2  UNL     1       2.498   7.082   9.059  1.00  0.00     0.360 S 
HETATM    2  O5  UNL     1       1.343   6.810   9.974  1.00  0.00    -0.176 OA
HETATM    3  O6  UNL     1       2.218   8.468   8.491  1.00  0.00    -0.176 OA
ENDROOT
BRANCH   1   4
HETATM    4  N2  UNL     1       3.876   7.276  10.076  1.00  0.00    -0.269 N 
ATOM      5  H2  UNL     1       3.923   7.023  11.063  1.00  0.00     0.177 HD
BRANCH   4   6
HETATM    6  C4  UNL     1       4.949   7.853   9.308  1.00  0.00     0.244 C 
HETATM    7  O4  UNL     1       6.057   7.076   9.218  1.00  0.00    -0.347 OA
HETATM    8  C3  UNL     1       7.053   7.620   8.520  1.00  0.00     0.215 C 
HETATM    9  S3  UNL     1       6.998   9.381   9.044  1.00  0.00    -0.130 SA
HETATM   10  C13 UNL     1       5.323   9.236   9.789  1.00  0.00     0.131 C 
BRANCH   8  11
HETATM   11  C2  UNL     1       8.435   7.106   8.785  1.00  0.00     0.179 C 
HETATM   12  C1  UNL     1       9.007   7.563  10.094  1.00  0.00     0.044 C 
BRANCH  11  13
HETATM   13  O1  UNL     1       8.418   5.738   8.639  1.00  0.00    -0.251 OA
BRANCH  13  14
HETATM   14  S1  UNL     1       9.054   5.159   7.236  1.00  0.00     0.356 S 
HETATM   15  O2  UNL     1       9.732   3.827   7.533  1.00  0.00    -0.176 OA
HETATM   16  O3  UNL     1      10.113   6.032   6.641  1.00  0.00    -0.176 OA
BRANCH  14  17
HETATM   17  N1  UNL     1       7.866   4.864   6.012  1.00  0.00    -0.306 N 
ATOM     18  H12 UNL     1       7.679   5.527   5.260  1.00  0.00     0.171 HD
ATOM     19  H11 UNL     1       7.382   3.973   6.123  1.00  0.00     0.171 HD
ENDBRANCH  14  17
ENDBRANCH  13  14
ENDBRANCH  11  13
ENDBRANCH   8  11
ENDBRANCH   4   6
ENDBRANCH   1   4
BRANCH   1  20
HETATM   20  O7  UNL     1       2.741   6.047   7.854  1.00  0.00    -0.251 OA
BRANCH  20  21
HETATM   21  C5  UNL     1       3.368   4.832   8.123  1.00  0.00     0.178 C 
HETATM   22  C6  UNL     1       2.333   3.806   8.307  1.00  0.00     0.039 C 
HETATM   23  C7  UNL     1       2.129   2.814   7.229  1.00  0.00     0.041 C 
HETATM   24  C8  UNL     1       3.110   1.698   7.163  1.00  0.00     0.125 C 
HETATM   25  C9  UNL     1       2.438   0.574   6.354  1.00  0.00     0.046 C 
HETATM   26  C10 UNL     1       4.362   2.067   6.405  1.00  0.00     0.093 C 
HETATM   27  C11 UNL     1       4.345   3.538   6.200  1.00  0.00     0.014 C 
HETATM   28  N4  UNL     1       4.163   3.942   4.981  1.00  0.00    -0.403 N 
HETATM   29  C12 UNL     1       4.520   4.546   7.253  1.00  0.00     0.193 C 
ATOM     30  H42 UNL     1       4.041   3.242   4.249  1.00  0.00     0.155 HD
ATOM     31  H41 UNL     1       4.151   4.952   4.841  1.00  0.00     0.155 HD
BRANCH  24  32
HETATM   32  N3  UNL     1       3.425   1.115   8.445  1.00  0.00    -0.070 N 
ATOM     33  H33 UNL     1       4.376   0.748   8.445  1.00  0.00     0.275 HD
ATOM     34  H32 UNL     1       3.519   1.841   9.155  1.00  0.00     0.275 HD
ATOM     35  H31 UNL     1       2.765   0.400   8.751  1.00  0.00     0.275 HD
ENDBRANCH  24  32
BRANCH  29  36
HETATM   36  O8  UNL     1       5.014   5.697   6.587  1.00  0.00    -0.387 OA
ATOM     37  H8  UNL     1       4.466   6.463   6.711  1.00  0.00     0.210 HD
ENDBRANCH  29  36
ENDBRANCH  20  21
ENDBRANCH   1  20
TORSDOF 10
ENDMDL
