MODEL 1
REMARK VINA RESULT: -7.578413351      0.000      0.000
REMARK  12 active torsions:
REMARK  status: ('A' for Active; 'I' for Inactive)
REMARK    1  A    between atoms: N1_1  and  C1_5 
REMARK    2  A    between atoms: C2_6  and  C3_7 
REMARK    3  A    between atoms: C3_7  and  O1_8 
REMARK    4  A    between atoms: O1_8  and  S1_9 
REMARK    5  A    between atoms: C5_15  and  O6_16 
REMARK    6  A    between atoms: O6_16  and  C6_17 
REMARK    7  A    between atoms: C7_19  and  C8_20 
REMARK    8  A    between atoms: C8_20  and  O8_21 
REMARK    9  A    between atoms: C9_23  and  O9_24 
REMARK   10  A    between atoms: C10_26  and  O10_27 
REMARK   11  A    between atoms: C11_29  and  N2_30 
REMARK   12  A    between atoms: N2_30  and  C12_32 
ROOT
HETATM    1  C6  UNL     1       5.331   5.327   6.931  1.00  0.00     0.285 C 
HETATM    2  O7  UNL     1       5.594   5.152   5.571  1.00  0.00    -0.349 OA
HETATM    3  C7  UNL     1       6.457   4.126   5.308  1.00  0.00     0.179 C 
HETATM    4  C9  UNL     1       6.083   2.809   5.911  1.00  0.00     0.180 C 
HETATM    5  C10 UNL     1       5.708   3.002   7.381  1.00  0.00     0.176 C 
HETATM    6  C11 UNL     1       4.610   4.038   7.368  1.00  0.00     0.164 C 
ENDROOT
BRANCH   1   7
HETATM    7  O6  UNL     1       6.505   5.447   7.634  1.00  0.00    -0.349 OA
BRANCH   7   8
HETATM    8  C5  UNL     1       7.126   6.680   7.508  1.00  0.00     0.181 C 
HETATM    9  C1  UNL     1       6.707   7.667   8.578  1.00  0.00     0.245 C 
HETATM   10  C2  UNL     1       7.571   7.241   9.716  1.00  0.00     0.179 C 
HETATM   11  O5  UNL     1       8.719   6.701   9.212  1.00  0.00    -0.379 OA
HETATM   12  C4  UNL     1       8.616   6.576   7.855  1.00  0.00     0.202 C 
BRANCH   9  13
HETATM   13  N1  UNL     1       7.076   8.997   8.091  1.00  0.00    -0.070 N 
ATOM     14  H13 UNL     1       8.037   9.015   7.749  1.00  0.00     0.274 HD
ATOM     15  H12 UNL     1       6.594   9.223   7.221  1.00  0.00     0.274 HD
ATOM     16  H11 UNL     1       6.920   9.714   8.801  1.00  0.00     0.274 HD
ENDBRANCH   9  13
BRANCH  10  17
HETATM   17  C3  UNL     1       7.809   8.290  10.766  1.00  0.00     0.227 C 
BRANCH  17  18
HETATM   18  O1  UNL     1       9.079   8.804  10.788  1.00  0.00    -0.254 OA
BRANCH  18  19
HETATM   19  S1  UNL     1       9.851   8.200  12.163  1.00  0.00     0.251 S 
HETATM   20  O2  UNL     1      10.406   9.333  12.993  1.00  0.00    -0.572 OA
HETATM   21  O3  UNL     1      10.953   7.257  11.817  1.00  0.00    -0.572 OA
HETATM   22  O4  UNL     1       8.705   7.417  13.140  1.00  0.00    -0.572 OA
ENDBRANCH  18  19
ENDBRANCH  17  18
ENDBRANCH  10  17
ENDBRANCH   7   8
ENDBRANCH   1   7
BRANCH   6  23
HETATM   23  N2  UNL     1       3.937   4.253   8.585  1.00  0.00    -0.406 N 
ATOM     24  H2  UNL     1       4.072   3.608   9.363  1.00  0.00     0.154 HD
BRANCH  23  25
HETATM   25  C12 UNL     1       3.082   5.354   8.729  1.00  0.00     0.077 C 
HETATM   26  C13 UNL     1       1.806   4.876   9.442  1.00  0.00     0.024 C 
HETATM   27  C14 UNL     1       1.155   5.974  10.211  1.00  0.00     0.002 C 
HETATM   28  C15 UNL     1       1.238   7.321   9.570  1.00  0.00     0.000 C 
HETATM   29  C16 UNL     1       2.666   7.698   9.251  1.00  0.00     0.002 C 
HETATM   30  C17 UNL     1       3.604   6.514   9.512  1.00  0.00     0.024 C 
ENDBRANCH  23  25
ENDBRANCH   6  23
BRANCH   3  31
HETATM   31  C8  UNL     1       6.450   3.927   3.784  1.00  0.00     0.198 C 
BRANCH  31  32
HETATM   32  O8  UNL     1       7.166   2.748   3.561  1.00  0.00    -0.398 OA
ATOM     33  H8  UNL     1       7.660   2.900   2.764  1.00  0.00     0.209 HD
ENDBRANCH  31  32
ENDBRANCH   3  31
BRANCH   5  34
HETATM   34  O10 UNL     1       5.414   1.828   8.003  1.00  0.00    -0.391 OA
ATOM     35  H10 UNL     1       4.698   1.913   8.623  1.00  0.00     0.210 HD
ENDBRANCH   5  34
BRANCH   4  36
HETATM   36  O9  UNL     1       4.932   2.324   5.286  1.00  0.00    -0.390 OA
ATOM     37  H9  UNL     1       4.981   1.377   5.227  1.00  0.00     0.210 HD
ENDBRANCH   4  36
TORSDOF 12
ENDMDL
MODEL 2
REMARK VINA RESULT: -7.537998400      3.609      6.189
REMARK  12 active torsions:
REMARK  status: ('A' for Active; 'I' for Inactive)
REMARK    1  A    between atoms: N1_1  and  C1_5 
REMARK    2  A    between atoms: C2_6  and  C3_7 
REMARK    3  A    between atoms: C3_7  and  O1_8 
REMARK    4  A    between atoms: O1_8  and  S1_9 
REMARK    5  A    between atoms: C5_15  and  O6_16 
REMARK    6  A    between atoms: O6_16  and  C6_17 
REMARK    7  A    between atoms: C7_19  and  C8_20 
REMARK    8  A    between atoms: C8_20  and  O8_21 
REMARK    9  A    between atoms: C9_23  and  O9_24 
REMARK   10  A    between atoms: C10_26  and  O10_27 
REMARK   11  A    between atoms: C11_29  and  N2_30 
REMARK   12  A    between atoms: N2_30  and  C12_32 
ROOT
HETATM    1  C6  UNL     1       7.643   6.431   9.001  1.00  0.00     0.285 C 
HETATM    2  O7  UNL     1       8.251   6.724  10.223  1.00  0.00    -0.349 OA
HETATM    3  C7  UNL     1       9.013   7.858  10.197  1.00  0.00     0.179 C 
HETATM    4  C9  UNL     1       8.319   9.080   9.687  1.00  0.00     0.180 C 
HETATM    5  C10 UNL     1       7.574   8.749   8.392  1.00  0.00     0.176 C 
HETATM    6  C11 UNL     1       6.668   7.596   8.751  1.00  0.00     0.164 C 
ENDROOT
BRANCH   1   7
HETATM    7  O6  UNL     1       8.578   6.401   7.996  1.00  0.00    -0.349 OA
BRANCH   7   8
HETATM    8  C5  UNL     1       8.327   5.463   7.006  1.00  0.00     0.181 C 
HETATM    9  C1  UNL     1       9.567   5.075   6.229  1.00  0.00     0.245 C 
HETATM   10  C2  UNL     1      10.183   4.078   7.151  1.00  0.00     0.179 C 
HETATM   11  O5  UNL     1       9.189   3.472   7.864  1.00  0.00    -0.379 OA
HETATM   12  C4  UNL     1       7.998   4.098   7.622  1.00  0.00     0.202 C 
BRANCH   9  13
HETATM   13  N1  UNL     1       9.108   4.448   4.988  1.00  0.00    -0.070 N 
ATOM     14  H13 UNL     1       9.493   4.917   4.169  1.00  0.00     0.274 HD
ATOM     15  H12 UNL     1       9.530   3.528   4.857  1.00  0.00     0.274 HD
ATOM     16  H11 UNL     1       8.089   4.401   4.947  1.00  0.00     0.274 HD
ENDBRANCH   9  13
BRANCH  10  17
HETATM   17  C3  UNL     1      11.135   3.110   6.503  1.00  0.00     0.227 C 
BRANCH  17  18
HETATM   18  O1  UNL     1      12.023   3.678   5.626  1.00  0.00    -0.254 OA
BRANCH  18  19
HETATM   19  S1  UNL     1      13.526   2.954   5.881  1.00  0.00     0.251 S 
HETATM   20  O2  UNL     1      14.628   3.820   5.317  1.00  0.00    -0.572 OA
HETATM   21  O3  UNL     1      13.605   1.597   5.270  1.00  0.00    -0.572 OA
HETATM   22  O4  UNL     1      13.814   2.854   7.551  1.00  0.00    -0.572 OA
ENDBRANCH  18  19
ENDBRANCH  17  18
ENDBRANCH  10  17
ENDBRANCH   7   8
ENDBRANCH   1   7
BRANCH   6  23
HETATM   23  N2  UNL     1       5.715   7.225   7.784  1.00  0.00    -0.406 N 
ATOM     24  H2  UNL     1       6.019   6.916   6.861  1.00  0.00     0.154 HD
BRANCH  23  25
HETATM   25  C12 UNL     1       4.348   7.279   8.088  1.00  0.00     0.077 C 
HETATM   26  C13 UNL     1       4.015   6.084   8.997  1.00  0.00     0.024 C 
HETATM   27  C14 UNL     1       2.850   6.368   9.882  1.00  0.00     0.002 C 
HETATM   28  C15 UNL     1       1.780   7.204   9.260  1.00  0.00     0.000 C 
HETATM   29  C16 UNL     1       2.332   8.499   8.712  1.00  0.00     0.002 C 
HETATM   30  C17 UNL     1       3.863   8.505   8.792  1.00  0.00     0.024 C 
ENDBRANCH  23  25
ENDBRANCH   6  23
BRANCH   3  31
HETATM   31  C8  UNL     1       9.407   8.154  11.653  1.00  0.00     0.198 C 
BRANCH  31  32
HETATM   32  O8  UNL     1      10.562   7.402  11.884  1.00  0.00    -0.398 OA
ATOM     33  H8  UNL     1      10.953   7.775  12.665  1.00  0.00     0.209 HD
ENDBRANCH  31  32
ENDBRANCH   3  31
BRANCH   5  34
HETATM   34  O10 UNL     1       6.969   9.838   7.845  1.00  0.00    -0.391 OA
ATOM     35  H10 UNL     1       6.435   9.617   7.090  1.00  0.00     0.210 HD
ENDBRANCH   5  34
BRANCH   4  36
HETATM   36  O9  UNL     1       7.336   9.470  10.600  1.00  0.00    -0.390 OA
ATOM     37  H9  UNL     1       7.465  10.381  10.833  1.00  0.00     0.210 HD
ENDBRANCH   4  36
TORSDOF 12
ENDMDL
MODEL 3
REMARK VINA RESULT: -7.373473148      3.167      6.452
REMARK  12 active torsions:
REMARK  status: ('A' for Active; 'I' for Inactive)
REMARK    1  A    between atoms: N1_1  and  C1_5 
REMARK    2  A    between atoms: C2_6  and  C3_7 
REMARK    3  A    between atoms: C3_7  and  O1_8 
REMARK    4  A    between atoms: O1_8  and  S1_9 
REMARK    5  A    between atoms: C5_15  and  O6_16 
REMARK    6  A    between atoms: O6_16  and  C6_17 
REMARK    7  A    between atoms: C7_19  and  C8_20 
REMARK    8  A    between atoms: C8_20  and  O8_21 
REMARK    9  A    between atoms: C9_23  and  O9_24 
REMARK   10  A    between atoms: C10_26  and  O10_27 
REMARK   11  A    between atoms: C11_29  and  N2_30 
REMARK   12  A    between atoms: N2_30  and  C12_32 
ROOT
HETATM    1  C6  UNL     1       7.632   6.427   8.995  1.00  0.00     0.285 C 
HETATM    2  O7  UNL     1       8.242   6.717  10.216  1.00  0.00    -0.349 OA
HETATM    3  C7  UNL     1       9.005   7.850  10.192  1.00  0.00     0.179 C 
HETATM    4  C9  UNL     1       8.311   9.075   9.686  1.00  0.00     0.180 C 
HETATM    5  C10 UNL     1       7.565   8.747   8.391  1.00  0.00     0.176 C 
HETATM    6  C11 UNL     1       6.657   7.594   8.748  1.00  0.00     0.164 C 
ENDROOT
BRANCH   1   7
HETATM    7  O6  UNL     1       8.566   6.399   7.988  1.00  0.00    -0.349 OA
BRANCH   7   8
HETATM    8  C5  UNL     1       8.321   5.453   7.004  1.00  0.00     0.181 C 
HETATM    9  C1  UNL     1       9.559   5.090   6.210  1.00  0.00     0.245 C 
HETATM   10  C2  UNL     1      10.210   4.110   7.126  1.00  0.00     0.179 C 
HETATM   11  O5  UNL     1       9.239   3.485   7.855  1.00  0.00    -0.379 OA
HETATM   12  C4  UNL     1       8.031   4.083   7.629  1.00  0.00     0.202 C 
BRANCH   9  13
HETATM   13  N1  UNL     1       9.095   4.450   4.978  1.00  0.00    -0.070 N 
ATOM     14  H13 UNL     1       9.871   4.044   4.454  1.00  0.00     0.274 HD
ATOM     15  H12 UNL     1       8.575   3.595   5.176  1.00  0.00     0.274 HD
ATOM     16  H11 UNL     1       8.553   5.093   4.402  1.00  0.00     0.274 HD
ENDBRANCH   9  13
BRANCH  10  17
HETATM   17  C3  UNL     1      11.173   3.161   6.467  1.00  0.00     0.227 C 
BRANCH  17  18
HETATM   18  O1  UNL     1      10.927   1.835   6.706  1.00  0.00    -0.254 OA
BRANCH  18  19
HETATM   19  S1  UNL     1      10.273   1.174   5.297  1.00  0.00     0.251 S 
HETATM   20  O2  UNL     1       8.770   1.327   5.294  1.00  0.00    -0.572 OA
HETATM   21  O3  UNL     1      10.621  -0.268   5.142  1.00  0.00    -0.572 OA
HETATM   22  O4  UNL     1      10.839   2.053   3.961  1.00  0.00    -0.572 OA
ENDBRANCH  18  19
ENDBRANCH  17  18
ENDBRANCH  10  17
ENDBRANCH   7   8
ENDBRANCH   1   7
BRANCH   6  23
HETATM   23  N2  UNL     1       5.703   7.226   7.781  1.00  0.00    -0.406 N 
ATOM     24  H2  UNL     1       6.006   6.921   6.857  1.00  0.00     0.154 HD
BRANCH  23  25
HETATM   25  C12 UNL     1       4.337   7.278   8.088  1.00  0.00     0.077 C 
HETATM   26  C13 UNL     1       4.011   6.090   9.009  1.00  0.00     0.024 C 
HETATM   27  C14 UNL     1       2.847   6.378   9.895  1.00  0.00     0.002 C 
HETATM   28  C15 UNL     1       1.772   7.203   9.267  1.00  0.00     0.000 C 
HETATM   29  C16 UNL     1       2.317   8.495   8.705  1.00  0.00     0.002 C 
HETATM   30  C17 UNL     1       3.848   8.508   8.782  1.00  0.00     0.024 C 
ENDBRANCH  23  25
ENDBRANCH   6  23
BRANCH   3  31
HETATM   31  C8  UNL     1       9.401   8.143  11.648  1.00  0.00     0.198 C 
BRANCH  31  32
HETATM   32  O8  UNL     1      10.559   7.394  11.874  1.00  0.00    -0.398 OA
ATOM     33  H8  UNL     1      10.255   6.519  12.086  1.00  0.00     0.209 HD
ENDBRANCH  31  32
ENDBRANCH   3  31
BRANCH   5  34
HETATM   34  O10 UNL     1       6.959   9.838   7.847  1.00  0.00    -0.391 OA
ATOM     35  H10 UNL     1       6.831  10.536   8.479  1.00  0.00     0.210 HD
ENDBRANCH   5  34
BRANCH   4  36
HETATM   36  O9  UNL     1       7.329   9.463  10.601  1.00  0.00    -0.390 OA
ATOM     37  H9  UNL     1       6.606   9.866  10.136  1.00  0.00     0.210 HD
ENDBRANCH   4  36
TORSDOF 12
ENDMDL
MODEL 4
REMARK VINA RESULT: -7.316505922      2.651      6.517
REMARK  12 active torsions:
REMARK  status: ('A' for Active; 'I' for Inactive)
REMARK    1  A    between atoms: N1_1  and  C1_5 
REMARK    2  A    between atoms: C2_6  and  C3_7 
REMARK    3  A    between atoms: C3_7  and  O1_8 
REMARK    4  A    between atoms: O1_8  and  S1_9 
REMARK    5  A    between atoms: C5_15  and  O6_16 
REMARK    6  A    between atoms: O6_16  and  C6_17 
REMARK    7  A    between atoms: C7_19  and  C8_20 
REMARK    8  A    between atoms: C8_20  and  O8_21 
REMARK    9  A    between atoms: C9_23  and  O9_24 
REMARK   10  A    between atoms: C10_26  and  O10_27 
REMARK   11  A    between atoms: C11_29  and  N2_30 
REMARK   12  A    between atoms: N2_30  and  C12_32 
ROOT
HETATM    1  C6  UNL     1       7.472   6.326   9.087  1.00  0.00     0.285 C 
HETATM    2  O7  UNL     1       8.105   6.699  10.274  1.00  0.00    -0.349 OA
HETATM    3  C7  UNL     1       8.956   7.759  10.131  1.00  0.00     0.179 C 
HETATM    4  C9  UNL     1       8.360   8.971   9.489  1.00  0.00     0.180 C 
HETATM    5  C10 UNL     1       7.588   8.563   8.232  1.00  0.00     0.176 C 
HETATM    6  C11 UNL     1       6.593   7.532   8.707  1.00  0.00     0.164 C 
ENDROOT
BRANCH   1   7
HETATM    7  O6  UNL     1       8.398   6.113   8.096  1.00  0.00    -0.349 OA
BRANCH   7   8
HETATM    8  C5  UNL     1       8.673   4.778   7.843  1.00  0.00     0.181 C 
HETATM    9  C1  UNL     1       7.521   4.051   7.181  1.00  0.00     0.245 C 
HETATM   10  C2  UNL     1       7.706   4.458   5.758  1.00  0.00     0.179 C 
HETATM   11  O5  UNL     1       9.034   4.689   5.540  1.00  0.00    -0.379 OA
HETATM   12  C4  UNL     1       9.713   4.640   6.725  1.00  0.00     0.202 C 
BRANCH   9  13
HETATM   13  N1  UNL     1       7.764   2.620   7.367  1.00  0.00    -0.070 N 
ATOM     14  H13 UNL     1       7.931   2.151   6.476  1.00  0.00     0.274 HD
ATOM     15  H12 UNL     1       8.668   2.450   7.808  1.00  0.00     0.274 HD
ATOM     16  H11 UNL     1       7.006   2.175   7.885  1.00  0.00     0.274 HD
ENDBRANCH   9  13
BRANCH  10  17
HETATM   17  C3  UNL     1       7.079   3.540   4.745  1.00  0.00     0.227 C 
BRANCH  17  18
HETATM   18  O1  UNL     1       5.754   3.265   4.960  1.00  0.00    -0.254 OA
BRANCH  18  19
HETATM   19  S1  UNL     1       4.852   4.482   4.217  1.00  0.00     0.251 S 
HETATM   20  O2  UNL     1       5.640   5.108   3.090  1.00  0.00    -0.572 OA
HETATM   21  O3  UNL     1       4.444   5.545   5.180  1.00  0.00    -0.572 OA
HETATM   22  O4  UNL     1       3.476   3.791   3.502  1.00  0.00    -0.572 OA
ENDBRANCH  18  19
ENDBRANCH  17  18
ENDBRANCH  10  17
ENDBRANCH   7   8
ENDBRANCH   1   7
BRANCH   6  23
HETATM   23  N2  UNL     1       5.610   7.137   7.780  1.00  0.00    -0.406 N 
ATOM     24  H2  UNL     1       5.887   6.756   6.875  1.00  0.00     0.154 HD
BRANCH  23  25
HETATM   25  C12 UNL     1       4.252   7.266   8.099  1.00  0.00     0.077 C 
HETATM   26  C13 UNL     1       3.863   6.087   9.008  1.00  0.00     0.024 C 
HETATM   27  C14 UNL     1       2.725   6.432   9.907  1.00  0.00     0.002 C 
HETATM   28  C15 UNL     1       1.696   7.327   9.298  1.00  0.00     0.000 C 
HETATM   29  C16 UNL     1       2.312   8.592   8.747  1.00  0.00     0.002 C 
HETATM   30  C17 UNL     1       3.842   8.513   8.811  1.00  0.00     0.024 C 
ENDBRANCH  23  25
ENDBRANCH   6  23
BRANCH   3  31
HETATM   31  C8  UNL     1       9.377   8.177  11.548  1.00  0.00     0.198 C 
BRANCH  31  32
HETATM   32  O8  UNL     1      10.511   7.414  11.838  1.00  0.00    -0.398 OA
ATOM     33  H8  UNL     1      10.183   6.619  12.241  1.00  0.00     0.209 HD
ENDBRANCH  31  32
ENDBRANCH   3  31
BRANCH   5  34
HETATM   34  O10 UNL     1       7.070   9.632   7.568  1.00  0.00    -0.391 OA
ATOM     35  H10 UNL     1       6.328   9.398   7.024  1.00  0.00     0.210 HD
ENDBRANCH   5  34
BRANCH   4  36
HETATM   36  O9  UNL     1       7.414   9.534  10.349  1.00  0.00    -0.390 OA
ATOM     37  H9  UNL     1       6.708   9.911   9.838  1.00  0.00     0.210 HD
ENDBRANCH   4  36
TORSDOF 12
ENDMDL
MODEL 5
REMARK VINA RESULT: -7.274003454      1.652      2.273
REMARK  12 active torsions:
REMARK  status: ('A' for Active; 'I' for Inactive)
REMARK    1  A    between atoms: N1_1  and  C1_5 
REMARK    2  A    between atoms: C2_6  and  C3_7 
REMARK    3  A    between atoms: C3_7  and  O1_8 
REMARK    4  A    between atoms: O1_8  and  S1_9 
REMARK    5  A    between atoms: C5_15  and  O6_16 
REMARK    6  A    between atoms: O6_16  and  C6_17 
REMARK    7  A    between atoms: C7_19  and  C8_20 
REMARK    8  A    between atoms: C8_20  and  O8_21 
REMARK    9  A    between atoms: C9_23  and  O9_24 
REMARK   10  A    between atoms: C10_26  and  O10_27 
REMARK   11  A    between atoms: C11_29  and  N2_30 
REMARK   12  A    between atoms: N2_30  and  C12_32 
ROOT
HETATM    1  C6  UNL     1       4.318   6.599   7.545  1.00  0.00     0.285 C 
HETATM    2  O7  UNL     1       4.404   6.172   6.218  1.00  0.00    -0.349 OA
HETATM    3  C7  UNL     1       4.600   4.826   6.088  1.00  0.00     0.179 C 
HETATM    4  C9  UNL     1       3.618   3.966   6.819  1.00  0.00     0.180 C 
HETATM    5  C10 UNL     1       3.449   4.478   8.251  1.00  0.00     0.176 C 
HETATM    6  C11 UNL     1       3.048   5.926   8.099  1.00  0.00     0.164 C 
ENDROOT
BRANCH   1   7
HETATM    7  O6  UNL     1       5.408   6.164   8.259  1.00  0.00    -0.349 OA
BRANCH   7   8
HETATM    8  C5  UNL     1       6.631   6.448   7.671  1.00  0.00     0.181 C 
HETATM    9  C1  UNL     1       7.233   7.751   8.153  1.00  0.00     0.245 C 
HETATM   10  C2  UNL     1       7.844   7.324   9.444  1.00  0.00     0.179 C 
HETATM   11  O5  UNL     1       8.193   6.007   9.346  1.00  0.00    -0.379 OA
HETATM   12  C4  UNL     1       7.713   5.486   8.177  1.00  0.00     0.202 C 
BRANCH   9  13
HETATM   13  N1  UNL     1       8.253   8.130   7.174  1.00  0.00    -0.070 N 
ATOM     14  H13 UNL     1       8.661   7.311   6.725  1.00  0.00     0.274 HD
ATOM     15  H12 UNL     1       7.836   8.569   6.352  1.00  0.00     0.274 HD
ATOM     16  H11 UNL     1       8.971   8.724   7.590  1.00  0.00     0.274 HD
ENDBRANCH   9  13
BRANCH  10  17
HETATM   17  C3  UNL     1       8.954   8.205   9.947  1.00  0.00     0.227 C 
BRANCH  17  18
HETATM   18  O1  UNL     1       8.702   8.817  11.147  1.00  0.00    -0.254 OA
BRANCH  18  19
HETATM   19  S1  UNL     1       9.689   8.092  12.309  1.00  0.00     0.251 S 
HETATM   20  O2  UNL     1      10.803   7.320  11.644  1.00  0.00    -0.572 OA
HETATM   21  O3  UNL     1       8.922   7.178  13.203  1.00  0.00    -0.572 OA
HETATM   22  O4  UNL     1      10.439   9.304  13.229  1.00  0.00    -0.572 OA
ENDBRANCH  18  19
ENDBRANCH  17  18
ENDBRANCH  10  17
ENDBRANCH   7   8
ENDBRANCH   1   7
BRANCH   6  23
HETATM   23  N2  UNL     1       2.628   6.585   9.270  1.00  0.00    -0.406 N 
ATOM     24  H2  UNL     1       2.953   6.262  10.181  1.00  0.00     0.154 HD
BRANCH  23  25
HETATM   25  C12 UNL     1       1.765   7.686   9.184  1.00  0.00     0.077 C 
HETATM   26  C13 UNL     1       0.597   7.451  10.156  1.00  0.00     0.024 C 
HETATM   27  C14 UNL     1       0.010   8.733  10.638  1.00  0.00     0.002 C 
HETATM   28  C15 UNL     1      -0.022   9.828   9.623  1.00  0.00     0.000 C 
HETATM   29  C16 UNL     1       1.347  10.082   9.035  1.00  0.00     0.002 C 
HETATM   30  C17 UNL     1       2.343   9.022   9.520  1.00  0.00     0.024 C 
ENDBRANCH  23  25
ENDBRANCH   6  23
BRANCH   3  31
HETATM   31  C8  UNL     1       4.437   4.502   4.595  1.00  0.00     0.198 C 
BRANCH  31  32
HETATM   32  O8  UNL     1       4.548   3.112   4.503  1.00  0.00    -0.398 OA
ATOM     33  H8  UNL     1       3.795   2.768   4.968  1.00  0.00     0.209 HD
ENDBRANCH  31  32
ENDBRANCH   3  31
BRANCH   5  34
HETATM   34  O10 UNL     1       2.611   3.700   8.988  1.00  0.00    -0.391 OA
ATOM     35  H10 UNL     1       2.881   3.632   9.896  1.00  0.00     0.210 HD
ENDBRANCH   5  34
BRANCH   4  36
HETATM   36  O9  UNL     1       2.361   4.088   6.222  1.00  0.00    -0.390 OA
ATOM     37  H9  UNL     1       1.688   4.003   6.886  1.00  0.00     0.210 HD
ENDBRANCH   4  36
TORSDOF 12
ENDMDL
