MODEL 1
REMARK VINA RESULT: -7.182454662      0.000      0.000
REMARK  12 active torsions:
REMARK  status: ('A' for Active; 'I' for Inactive)
REMARK    1  A    between atoms: C2_2  and  C4_4 
REMARK    2  A    between atoms: C5_6  and  C6_7 
REMARK    3  A    between atoms: C7_10  and  O4_11 
REMARK    4  A    between atoms: C8_13  and  O5_14 
REMARK    5  A    between atoms: O5_14  and  C9_15 
REMARK    6  A    between atoms: C10_17  and  C11_18 
REMARK    7  A    between atoms: C11_18  and  O7_19 
REMARK    8  A    between atoms: C12_21  and  O8_22 
REMARK    9  A    between atoms: C13_24  and  O9_25 
REMARK   10  A    between atoms: C14_27  and  O10_28 
REMARK   11  A    between atoms: C15_30  and  N1_31 
REMARK   12  A    between atoms: N1_31  and  C16_33 
ROOT
HETATM    1  C4  UNL     1       7.163   4.040   5.289  1.00  0.00     0.175 C 
HETATM    2  O1  UNL     1       8.425   4.472   4.801  1.00  0.00    -0.361 OA
HETATM    3  C5  UNL     1       9.474   3.915   5.506  1.00  0.00     0.254 C 
HETATM    4  C7  UNL     1       9.242   4.191   6.961  1.00  0.00     0.189 C 
HETATM    5  C8  UNL     1       8.132   5.249   7.167  1.00  0.00     0.181 C 
HETATM    6  C15 UNL     1       6.882   4.505   6.660  1.00  0.00     0.142 C 
ENDROOT
BRANCH   5   7
HETATM    7  O5  UNL     1       8.138   5.476   8.508  1.00  0.00    -0.348 OA
BRANCH   7   8
HETATM    8  C9  UNL     1       8.193   6.793   8.938  1.00  0.00     0.292 C 
HETATM    9  O6  UNL     1       7.491   7.011  10.092  1.00  0.00    -0.348 OA
HETATM   10  C10 UNL     1       7.716   8.206  10.678  1.00  0.00     0.179 C 
HETATM   11  C12 UNL     1       7.101   9.298   9.837  1.00  0.00     0.180 C 
HETATM   12  C13 UNL     1       7.064   8.987   8.377  1.00  0.00     0.183 C 
HETATM   13  C14 UNL     1       7.807   7.807   7.925  1.00  0.00     0.204 C 
BRANCH  10  14
HETATM   14  C11 UNL     1       9.156   8.520  11.031  1.00  0.00     0.198 C 
BRANCH  14  15
HETATM   15  O7  UNL     1       9.710   7.514  11.823  1.00  0.00    -0.398 OA
ATOM     16  H7  UNL     1      10.088   7.873  12.617  1.00  0.00     0.209 HD
ENDBRANCH  14  15
ENDBRANCH  10  14
BRANCH  11  17
HETATM   17  O8  UNL     1       5.813   9.523  10.343  1.00  0.00    -0.390 OA
ATOM     18  H8  UNL     1       5.210   9.410   9.619  1.00  0.00     0.210 HD
ENDBRANCH  11  17
BRANCH  12  19
HETATM   19  O9  UNL     1       7.414  10.146   7.682  1.00  0.00    -0.390 OA
ATOM     20  H9  UNL     1       7.122  10.048   6.783  1.00  0.00     0.210 HD
ENDBRANCH  12  19
BRANCH  13  21
HETATM   21  O10 UNL     1       8.987   8.248   7.283  1.00  0.00    -0.388 OA
ATOM     22  H10 UNL     1       8.930   8.002   6.367  1.00  0.00     0.210 HD
ENDBRANCH  13  21
ENDBRANCH   7   8
ENDBRANCH   5   7
BRANCH   4  23
HETATM   23  O4  UNL     1      10.441   4.635   7.495  1.00  0.00    -0.390 OA
ATOM     24  H4  UNL     1      10.319   5.542   7.751  1.00  0.00     0.210 HD
ENDBRANCH   4  23
BRANCH   6  25
HETATM   25  N1  UNL     1       5.748   5.389   6.761  1.00  0.00    -0.408 N 
ATOM     26  H1  UNL     1       5.647   6.181   6.126  1.00  0.00     0.154 HD
BRANCH  25  27
HETATM   27  C16 UNL     1       4.791   5.139   7.744  1.00  0.00     0.077 C 
HETATM   28  C17 UNL     1       4.357   6.369   8.507  1.00  0.00     0.024 C 
HETATM   29  C18 UNL     1       2.863   6.370   8.763  1.00  0.00     0.002 C 
HETATM   30  C19 UNL     1       2.443   4.988   9.224  1.00  0.00     0.000 C 
HETATM   31  C20 UNL     1       2.566   4.046   8.071  1.00  0.00     0.002 C 
HETATM   32  C21 UNL     1       3.536   4.591   7.048  1.00  0.00     0.024 C 
ENDBRANCH  25  27
ENDBRANCH   6  25
BRANCH   3  33
HETATM   33  C6  UNL     1      10.717   4.566   5.039  1.00  0.00     0.205 C 
HETATM   34  O2  UNL     1      10.660   5.682   4.463  1.00  0.00    -0.646 OA
HETATM   35  O3  UNL     1      11.948   3.996   5.209  1.00  0.00    -0.646 OA
ENDBRANCH   3  33
BRANCH   1  36
HETATM   36  C2  UNL     1       7.150   2.583   5.052  1.00  0.00    -0.062 C 
HETATM   37  C1  UNL     1       7.512   1.926   3.976  1.00  0.00     0.016 C 
HETATM   38  C3  UNL     1       6.666   1.705   6.190  1.00  0.00     0.045 C 
ENDBRANCH   1  36
TORSDOF 12
ENDMDL
MODEL 2
REMARK VINA RESULT: -7.085120137      1.653      2.547
REMARK  12 active torsions:
REMARK  status: ('A' for Active; 'I' for Inactive)
REMARK    1  A    between atoms: C2_2  and  C4_4 
REMARK    2  A    between atoms: C5_6  and  C6_7 
REMARK    3  A    between atoms: C7_10  and  O4_11 
REMARK    4  A    between atoms: C8_13  and  O5_14 
REMARK    5  A    between atoms: O5_14  and  C9_15 
REMARK    6  A    between atoms: C10_17  and  C11_18 
REMARK    7  A    between atoms: C11_18  and  O7_19 
REMARK    8  A    between atoms: C12_21  and  O8_22 
REMARK    9  A    between atoms: C13_24  and  O9_25 
REMARK   10  A    between atoms: C14_27  and  O10_28 
REMARK   11  A    between atoms: C15_30  and  N1_31 
REMARK   12  A    between atoms: N1_31  and  C16_33 
ROOT
HETATM    1  C4  UNL     1       4.719   4.699   5.509  1.00  0.00     0.175 C 
HETATM    2  O1  UNL     1       5.859   4.392   4.718  1.00  0.00    -0.361 OA
HETATM    3  C5  UNL     1       6.540   3.290   5.195  1.00  0.00     0.254 C 
HETATM    4  C7  UNL     1       6.836   3.531   6.645  1.00  0.00     0.189 C 
HETATM    5  C8  UNL     1       6.589   5.008   7.036  1.00  0.00     0.181 C 
HETATM    6  C15 UNL     1       5.062   5.130   6.876  1.00  0.00     0.142 C 
ENDROOT
BRANCH   5   7
HETATM    7  O5  UNL     1       7.021   5.084   8.323  1.00  0.00    -0.348 OA
BRANCH   7   8
HETATM    8  C9  UNL     1       7.653   6.252   8.722  1.00  0.00     0.292 C 
HETATM    9  O6  UNL     1       6.839   7.085   9.440  1.00  0.00    -0.348 OA
HETATM   10  C10 UNL     1       7.471   8.107  10.056  1.00  0.00     0.179 C 
HETATM   11  C12 UNL     1       7.942   9.099   9.020  1.00  0.00     0.180 C 
HETATM   12  C13 UNL     1       8.267   8.484   7.699  1.00  0.00     0.183 C 
HETATM   13  C14 UNL     1       8.311   7.020   7.635  1.00  0.00     0.204 C 
BRANCH  10  14
HETATM   14  C11 UNL     1       8.585   7.730  11.011  1.00  0.00     0.198 C 
BRANCH  14  15
HETATM   15  O7  UNL     1       9.328   8.851  11.384  1.00  0.00    -0.398 OA
ATOM     16  H7  UNL     1      10.204   8.605  11.658  1.00  0.00     0.209 HD
ENDBRANCH  14  15
ENDBRANCH  10  14
BRANCH  11  17
HETATM   17  O8  UNL     1       6.933  10.066   8.898  1.00  0.00    -0.390 OA
ATOM     18  H8  UNL     1       7.342  10.843   8.536  1.00  0.00     0.210 HD
ENDBRANCH  11  17
BRANCH  12  19
HETATM   19  O9  UNL     1       9.436   9.081   7.224  1.00  0.00    -0.390 OA
ATOM     20  H9  UNL     1       9.387   9.105   6.275  1.00  0.00     0.210 HD
ENDBRANCH  12  19
BRANCH  13  21
HETATM   21  O10 UNL     1       9.667   6.621   7.583  1.00  0.00    -0.388 OA
ATOM     22  H10 UNL     1      10.203   7.395   7.707  1.00  0.00     0.210 HD
ENDBRANCH  13  21
ENDBRANCH   7   8
ENDBRANCH   5   7
BRANCH   4  23
HETATM   23  O4  UNL     1       8.160   3.186   6.862  1.00  0.00    -0.390 OA
ATOM     24  H4  UNL     1       8.696   3.904   6.546  1.00  0.00     0.210 HD
ENDBRANCH   4  23
BRANCH   6  25
HETATM   25  N1  UNL     1       4.675   6.485   7.181  1.00  0.00    -0.408 N 
ATOM     26  H1  UNL     1       5.295   7.265   6.962  1.00  0.00     0.154 HD
BRANCH  25  27
HETATM   27  C16 UNL     1       3.436   6.707   7.781  1.00  0.00     0.077 C 
HETATM   28  C17 UNL     1       3.048   5.660   8.799  1.00  0.00     0.024 C 
HETATM   29  C18 UNL     1       2.392   6.280  10.017  1.00  0.00     0.002 C 
HETATM   30  C19 UNL     1       1.388   7.320   9.559  1.00  0.00     0.000 C 
HETATM   31  C20 UNL     1       2.136   8.476   8.978  1.00  0.00     0.002 C 
HETATM   32  C21 UNL     1       3.514   8.043   8.536  1.00  0.00     0.024 C 
ENDBRANCH  25  27
ENDBRANCH   6  25
BRANCH   3  33
HETATM   33  C6  UNL     1       7.792   3.172   4.416  1.00  0.00     0.205 C 
HETATM   34  O2  UNL     1       8.373   4.208   4.006  1.00  0.00    -0.646 OA
HETATM   35  O3  UNL     1       8.355   1.963   4.118  1.00  0.00    -0.646 OA
ENDBRANCH   3  33
BRANCH   1  36
HETATM   36  C2  UNL     1       3.839   3.522   5.370  1.00  0.00    -0.062 C 
HETATM   37  C1  UNL     1       3.312   2.779   6.315  1.00  0.00     0.016 C 
HETATM   38  C3  UNL     1       3.473   3.099   3.961  1.00  0.00     0.045 C 
ENDBRANCH   1  36
TORSDOF 12
ENDMDL
MODEL 3
REMARK VINA RESULT: -6.832933387      1.488      2.146
REMARK  12 active torsions:
REMARK  status: ('A' for Active; 'I' for Inactive)
REMARK    1  A    between atoms: C2_2  and  C4_4 
REMARK    2  A    between atoms: C5_6  and  C6_7 
REMARK    3  A    between atoms: C7_10  and  O4_11 
REMARK    4  A    between atoms: C8_13  and  O5_14 
REMARK    5  A    between atoms: O5_14  and  C9_15 
REMARK    6  A    between atoms: C10_17  and  C11_18 
REMARK    7  A    between atoms: C11_18  and  O7_19 
REMARK    8  A    between atoms: C12_21  and  O8_22 
REMARK    9  A    between atoms: C13_24  and  O9_25 
REMARK   10  A    between atoms: C14_27  and  O10_28 
REMARK   11  A    between atoms: C15_30  and  N1_31 
REMARK   12  A    between atoms: N1_31  and  C16_33 
ROOT
HETATM    1  C4  UNL     1       7.584   2.754   5.894  1.00  0.00     0.175 C 
HETATM    2  O1  UNL     1       8.654   3.380   5.199  1.00  0.00    -0.361 OA
HETATM    3  C5  UNL     1       9.806   3.432   5.957  1.00  0.00     0.254 C 
HETATM    4  C7  UNL     1       9.460   4.069   7.269  1.00  0.00     0.189 C 
HETATM    5  C8  UNL     1       8.064   4.736   7.224  1.00  0.00     0.181 C 
HETATM    6  C15 UNL     1       7.133   3.518   7.071  1.00  0.00     0.142 C 
ENDROOT
BRANCH   5   7
HETATM    7  O5  UNL     1       7.962   5.368   8.424  1.00  0.00    -0.348 OA
BRANCH   7   8
HETATM    8  C9  UNL     1       7.583   6.701   8.419  1.00  0.00     0.292 C 
HETATM    9  O6  UNL     1       8.367   7.486   9.220  1.00  0.00    -0.348 OA
HETATM   10  C10 UNL     1       8.198   8.815   9.058  1.00  0.00     0.179 C 
HETATM   11  C12 UNL     1       6.850   9.217   9.608  1.00  0.00     0.180 C 
HETATM   12  C13 UNL     1       5.816   8.144   9.516  1.00  0.00     0.183 C 
HETATM   13  C14 UNL     1       6.153   6.956   8.725  1.00  0.00     0.204 C 
BRANCH  10  14
HETATM   14  C11 UNL     1       8.410   9.353   7.658  1.00  0.00     0.198 C 
BRANCH  14  15
HETATM   15  O7  UNL     1       7.477  10.346   7.354  1.00  0.00    -0.398 OA
ATOM     16  H7  UNL     1       7.742  10.841   6.588  1.00  0.00     0.209 HD
ENDBRANCH  14  15
ENDBRANCH  10  14
BRANCH  11  17
HETATM   17  O8  UNL     1       7.057   9.613  10.937  1.00  0.00    -0.390 OA
ATOM     18  H8  UNL     1       6.301  10.130  11.190  1.00  0.00     0.210 HD
ENDBRANCH  11  17
BRANCH  12  19
HETATM   19  O9  UNL     1       4.617   8.737   9.117  1.00  0.00    -0.390 OA
ATOM     20  H9  UNL     1       3.968   8.564   9.790  1.00  0.00     0.210 HD
ENDBRANCH  12  19
BRANCH  13  21
HETATM   21  O10 UNL     1       5.454   7.030   7.498  1.00  0.00    -0.388 OA
ATOM     22  H10 UNL     1       5.097   7.907   7.419  1.00  0.00     0.210 HD
ENDBRANCH  13  21
ENDBRANCH   7   8
ENDBRANCH   5   7
BRANCH   4  23
HETATM   23  O4  UNL     1      10.438   5.011   7.544  1.00  0.00    -0.390 OA
ATOM     24  H4  UNL     1      10.335   5.719   6.920  1.00  0.00     0.210 HD
ENDBRANCH   4  23
BRANCH   6  25
HETATM   25  N1  UNL     1       5.773   3.988   6.981  1.00  0.00    -0.408 N 
ATOM     26  H1  UNL     1       5.508   4.685   6.285  1.00  0.00     0.154 HD
BRANCH  25  27
HETATM   27  C16 UNL     1       4.827   3.471   7.867  1.00  0.00     0.077 C 
HETATM   28  C17 UNL     1       3.578   4.310   7.993  1.00  0.00     0.024 C 
HETATM   29  C18 UNL     1       2.331   3.450   8.058  1.00  0.00     0.002 C 
HETATM   30  C19 UNL     1       2.581   2.293   9.004  1.00  0.00     0.000 C 
HETATM   31  C20 UNL     1       3.570   1.369   8.371  1.00  0.00     0.002 C 
HETATM   32  C21 UNL     1       4.382   2.102   7.329  1.00  0.00     0.024 C 
ENDBRANCH  25  27
ENDBRANCH   6  25
BRANCH   3  33
HETATM   33  C6  UNL     1      10.787   4.255   5.216  1.00  0.00     0.205 C 
HETATM   34  O2  UNL     1      10.391   5.214   4.509  1.00  0.00    -0.646 OA
HETATM   35  O3  UNL     1      12.131   4.010   5.267  1.00  0.00    -0.646 OA
ENDBRANCH   3  33
BRANCH   1  36
HETATM   36  C2  UNL     1       8.045   1.370   6.122  1.00  0.00    -0.062 C 
HETATM   37  C1  UNL     1       8.571   0.532   5.260  1.00  0.00     0.016 C 
HETATM   38  C3  UNL     1       7.913   0.824   7.530  1.00  0.00     0.045 C 
ENDBRANCH   1  36
TORSDOF 12
ENDMDL
MODEL 4
REMARK VINA RESULT: -6.817684282      1.296      2.007
REMARK  12 active torsions:
REMARK  status: ('A' for Active; 'I' for Inactive)
REMARK    1  A    between atoms: C2_2  and  C4_4 
REMARK    2  A    between atoms: C5_6  and  C6_7 
REMARK    3  A    between atoms: C7_10  and  O4_11 
REMARK    4  A    between atoms: C8_13  and  O5_14 
REMARK    5  A    between atoms: O5_14  and  C9_15 
REMARK    6  A    between atoms: C10_17  and  C11_18 
REMARK    7  A    between atoms: C11_18  and  O7_19 
REMARK    8  A    between atoms: C12_21  and  O8_22 
REMARK    9  A    between atoms: C13_24  and  O9_25 
REMARK   10  A    between atoms: C14_27  and  O10_28 
REMARK   11  A    between atoms: C15_30  and  N1_31 
REMARK   12  A    between atoms: N1_31  and  C16_33 
ROOT
HETATM    1  C4  UNL     1       7.622   3.221   4.933  1.00  0.00     0.175 C 
HETATM    2  O1  UNL     1       8.831   3.846   4.526  1.00  0.00    -0.361 OA
HETATM    3  C5  UNL     1       9.865   3.600   5.407  1.00  0.00     0.254 C 
HETATM    4  C7  UNL     1       9.397   3.984   6.778  1.00  0.00     0.189 C 
HETATM    5  C8  UNL     1       8.088   4.808   6.719  1.00  0.00     0.181 C 
HETATM    6  C15 UNL     1       7.081   3.770   6.189  1.00  0.00     0.142 C 
ENDROOT
BRANCH   5   7
HETATM    7  O5  UNL     1       7.876   5.181   8.010  1.00  0.00    -0.348 OA
BRANCH   7   8
HETATM    8  C9  UNL     1       7.557   6.509   8.251  1.00  0.00     0.292 C 
HETATM    9  O6  UNL     1       8.435   7.127   9.099  1.00  0.00    -0.348 OA
HETATM   10  C10 UNL     1       8.312   8.469   9.168  1.00  0.00     0.179 C 
HETATM   11  C12 UNL     1       7.031   8.816   9.888  1.00  0.00     0.180 C 
HETATM   12  C13 UNL     1       5.947   7.805   9.712  1.00  0.00     0.183 C 
HETATM   13  C14 UNL     1       6.168   6.752   8.715  1.00  0.00     0.204 C 
BRANCH  10  14
HETATM   14  C11 UNL     1       8.436   9.223   7.859  1.00  0.00     0.198 C 
BRANCH  14  15
HETATM   15  O7  UNL     1       7.344  10.070   7.662  1.00  0.00    -0.398 OA
ATOM     16  H7  UNL     1       7.629  10.939   7.404  1.00  0.00     0.209 HD
ENDBRANCH  14  15
ENDBRANCH  10  14
BRANCH  11  17
HETATM   17  O8  UNL     1       7.359   8.983  11.241  1.00  0.00    -0.390 OA
ATOM     18  H8  UNL     1       7.157   9.884  11.463  1.00  0.00     0.210 HD
ENDBRANCH  11  17
BRANCH  12  19
HETATM   19  O9  UNL     1       4.747   8.491   9.518  1.00  0.00    -0.390 OA
ATOM     20  H9  UNL     1       4.102   7.868   9.202  1.00  0.00     0.210 HD
ENDBRANCH  12  19
BRANCH  13  21
HETATM   21  O10 UNL     1       5.378   7.048   7.579  1.00  0.00    -0.388 OA
ATOM     22  H10 UNL     1       4.482   7.166   7.871  1.00  0.00     0.210 HD
ENDBRANCH  13  21
ENDBRANCH   7   8
ENDBRANCH   5   7
BRANCH   4  23
HETATM   23  O4  UNL     1      10.409   4.723   7.370  1.00  0.00    -0.390 OA
ATOM     24  H4  UNL     1      10.155   5.637   7.328  1.00  0.00     0.210 HD
ENDBRANCH   4  23
BRANCH   6  25
HETATM   25  N1  UNL     1       5.796   4.407   6.048  1.00  0.00    -0.408 N 
ATOM     26  H1  UNL     1       5.723   5.358   5.686  1.00  0.00     0.154 HD
BRANCH  25  27
HETATM   27  C16 UNL     1       4.653   3.697   6.417  1.00  0.00     0.077 C 
HETATM   28  C17 UNL     1       4.404   3.664   7.907  1.00  0.00     0.024 C 
HETATM   29  C18 UNL     1       2.932   3.832   8.231  1.00  0.00     0.002 C 
HETATM   30  C19 UNL     1       2.120   2.961   7.293  1.00  0.00     0.000 C 
HETATM   31  C20 UNL     1       2.209   3.536   5.917  1.00  0.00     0.002 C 
HETATM   32  C21 UNL     1       3.441   4.401   5.786  1.00  0.00     0.024 C 
ENDBRANCH  25  27
ENDBRANCH   6  25
BRANCH   3  33
HETATM   33  C6  UNL     1      11.012   4.436   4.989  1.00  0.00     0.205 C 
HETATM   34  O2  UNL     1      10.808   5.549   4.443  1.00  0.00    -0.646 OA
HETATM   35  O3  UNL     1      12.308   4.042   5.174  1.00  0.00    -0.646 OA
ENDBRANCH   3  33
BRANCH   1  36
HETATM   36  C2  UNL     1       7.918   1.775   4.897  1.00  0.00    -0.062 C 
HETATM   37  C1  UNL     1       8.515   1.086   3.954  1.00  0.00     0.016 C 
HETATM   38  C3  UNL     1       7.495   0.957   6.101  1.00  0.00     0.045 C 
ENDBRANCH   1  36
TORSDOF 12
ENDMDL
MODEL 5
REMARK VINA RESULT: -6.814165133      1.300      2.169
REMARK  12 active torsions:
REMARK  status: ('A' for Active; 'I' for Inactive)
REMARK    1  A    between atoms: C2_2  and  C4_4 
REMARK    2  A    between atoms: C5_6  and  C6_7 
REMARK    3  A    between atoms: C7_10  and  O4_11 
REMARK    4  A    between atoms: C8_13  and  O5_14 
REMARK    5  A    between atoms: O5_14  and  C9_15 
REMARK    6  A    between atoms: C10_17  and  C11_18 
REMARK    7  A    between atoms: C11_18  and  O7_19 
REMARK    8  A    between atoms: C12_21  and  O8_22 
REMARK    9  A    between atoms: C13_24  and  O9_25 
REMARK   10  A    between atoms: C14_27  and  O10_28 
REMARK   11  A    between atoms: C15_30  and  N1_31 
REMARK   12  A    between atoms: N1_31  and  C16_33 
ROOT
HETATM    1  C4  UNL     1       7.264   3.649   4.680  1.00  0.00     0.175 C 
HETATM    2  O1  UNL     1       8.607   4.061   4.468  1.00  0.00    -0.361 OA
HETATM    3  C5  UNL     1       9.462   3.559   5.428  1.00  0.00     0.254 C 
HETATM    4  C7  UNL     1       8.904   3.925   6.770  1.00  0.00     0.189 C 
HETATM    5  C8  UNL     1       7.782   4.984   6.648  1.00  0.00     0.181 C 
HETATM    6  C15 UNL     1       6.678   4.198   5.916  1.00  0.00     0.142 C 
ENDROOT
BRANCH   5   7
HETATM    7  O5  UNL     1       7.482   5.296   7.937  1.00  0.00    -0.348 OA
BRANCH   7   8
HETATM    8  C9  UNL     1       7.313   6.636   8.252  1.00  0.00     0.292 C 
HETATM    9  O6  UNL     1       8.300   7.126   9.063  1.00  0.00    -0.348 OA
HETATM   10  C10 UNL     1       8.316   8.470   9.194  1.00  0.00     0.179 C 
HETATM   11  C12 UNL     1       7.123   8.906  10.010  1.00  0.00     0.180 C 
HETATM   12  C13 UNL     1       5.934   8.013   9.867  1.00  0.00     0.183 C 
HETATM   13  C14 UNL     1       5.987   6.992   8.816  1.00  0.00     0.204 C 
BRANCH  10  14
HETATM   14  C11 UNL     1       8.432   9.267   7.911  1.00  0.00     0.198 C 
BRANCH  14  15
HETATM   15  O7  UNL     1       7.378  10.172   7.784  1.00  0.00    -0.398 OA
ATOM     16  H7  UNL     1       6.603   9.860   8.237  1.00  0.00     0.209 HD
ENDBRANCH  14  15
ENDBRANCH  10  14
BRANCH  11  17
HETATM   17  O8  UNL     1       7.550   8.977  11.344  1.00  0.00    -0.390 OA
ATOM     18  H8  UNL     1       6.775   9.129  11.872  1.00  0.00     0.210 HD
ENDBRANCH  11  17
BRANCH  12  19
HETATM   19  O9  UNL     1       4.799   8.821   9.780  1.00  0.00    -0.390 OA
ATOM     20  H9  UNL     1       4.330   8.582   8.989  1.00  0.00     0.210 HD
ENDBRANCH  12  19
BRANCH  13  21
HETATM   21  O10 UNL     1       5.162   7.415   7.749  1.00  0.00    -0.388 OA
ATOM     22  H10 UNL     1       5.448   8.282   7.486  1.00  0.00     0.210 HD
ENDBRANCH  13  21
ENDBRANCH   7   8
ENDBRANCH   5   7
BRANCH   4  23
HETATM   23  O4  UNL     1       9.951   4.413   7.536  1.00  0.00    -0.390 OA
ATOM     24  H4  UNL     1       9.911   3.980   8.381  1.00  0.00     0.210 HD
ENDBRANCH   4  23
BRANCH   6  25
HETATM   25  N1  UNL     1       5.557   5.076   5.697  1.00  0.00    -0.408 N 
ATOM     26  H1  UNL     1       5.690   5.993   5.270  1.00  0.00     0.154 HD
BRANCH  25  27
HETATM   27  C16 UNL     1       4.286   4.647   6.080  1.00  0.00     0.077 C 
HETATM   28  C17 UNL     1       3.630   3.710   5.094  1.00  0.00     0.024 C 
HETATM   29  C18 UNL     1       2.899   2.581   5.795  1.00  0.00     0.002 C 
HETATM   30  C19 UNL     1       2.112   3.153   6.957  1.00  0.00     0.000 C 
HETATM   31  C20 UNL     1       3.076   3.607   8.005  1.00  0.00     0.002 C 
HETATM   32  C21 UNL     1       4.433   3.864   7.395  1.00  0.00     0.024 C 
ENDBRANCH  25  27
ENDBRANCH   6  25
BRANCH   3  33
HETATM   33  C6  UNL     1      10.784   4.190   5.218  1.00  0.00     0.205 C 
HETATM   34  O2  UNL     1      10.862   5.290   4.617  1.00  0.00    -0.646 OA
HETATM   35  O3  UNL     1      11.944   3.617   5.657  1.00  0.00    -0.646 OA
ENDBRANCH   3  33
BRANCH   1  36
HETATM   36  C2  UNL     1       7.297   2.180   4.540  1.00  0.00    -0.062 C 
HETATM   37  C1  UNL     1       7.880   1.459   3.612  1.00  0.00     0.016 C 
HETATM   38  C3  UNL     1       6.576   1.372   5.602  1.00  0.00     0.045 C 
ENDBRANCH   1  36
TORSDOF 12
ENDMDL
