MODEL 1
REMARK VINA RESULT: -8.681530608      0.000      0.000
REMARK  6 active torsions:
REMARK  status: ('A' for Active; 'I' for Inactive)
REMARK    1  A    between atoms: C2_2  and  C6_11 
REMARK    2  A    between atoms: C3_3  and  C4_4 
REMARK       I    between atoms: C4_4  and  N1_6 
REMARK       I    between atoms: C6_11  and  N4_13 
REMARK    3  A    between atoms: N4_13  and  N5_15 
REMARK    4  A    between atoms: C7_17  and  C8_18 
REMARK    5  A    between atoms: C9_21  and  N7_22 
REMARK    6  A    between atoms: N9_29  and  N10_30 
ROOT
HETATM    1  N5  UNL     1      63.188  41.325  37.070  1.00  0.00    -0.305 N 
ATOM      2  H5  UNL     1      63.938  40.994  36.463  1.00  0.00     0.186 HD
HETATM    3  C7  UNL     1      62.907  40.675  38.138  1.00  0.00     0.158 C 
ENDROOT
BRANCH   1   4
HETATM    4  N4  UNL     1      62.469  42.500  36.720  1.00  0.00    -0.266 N 
HETATM    5  C6  UNL     1      63.048  43.735  36.999  1.00  0.00     0.265 C 
HETATM    6  O2  UNL     1      64.190  43.768  37.552  1.00  0.00    -0.266 OA
ATOM      7  H4  UNL     1      61.552  42.441  36.276  1.00  0.00     0.190 HD
BRANCH   5   8
HETATM    8  C2  UNL     1      62.412  44.999  36.689  1.00  0.00     0.013 C 
HETATM    9  C1  UNL     1      61.228  45.031  35.832  1.00  0.00     0.054 C 
HETATM   10  C3  UNL     1      62.942  46.078  37.205  1.00  0.00     0.086 C 
BRANCH  10  11
HETATM   11  C4  UNL     1      62.447  47.408  37.005  1.00  0.00     0.247 C 
HETATM   12  O1  UNL     1      62.379  47.851  35.800  1.00  0.00    -0.268 OA
HETATM   13  N1  UNL     1      62.035  48.250  38.038  1.00  0.00    -0.300 N 
HETATM   14  C5  UNL     1      60.983  48.973  37.916  1.00  0.00     0.203 C 
ATOM     15  H1  UNL     1      62.578  48.292  38.900  1.00  0.00     0.171 HD
HETATM   16  N2  UNL     1      60.618  49.804  38.995  1.00  0.00    -0.066 NA
HETATM   17  N3  UNL     1      60.244  48.896  36.707  1.00  0.00    -0.066 NA
ENDBRANCH  10  11
ENDBRANCH   5   8
ENDBRANCH   1   4
BRANCH   3  18
HETATM   18  C8  UNL     1      63.635  39.476  38.501  1.00  0.00     0.163 A 
HETATM   19  N6  UNL     1      64.166  38.643  37.577  1.00  0.00    -0.173 N 
HETATM   20  C9  UNL     1      64.843  37.530  37.902  1.00  0.00     0.681 A 
ATOM     21  H6  UNL     1      64.046  38.870  36.590  1.00  0.00     0.186 HD
HETATM   22  N8  UNL     1      64.996  37.240  39.211  1.00  0.00    -0.140 N 
HETATM   23  C10 UNL     1      64.467  38.068  40.131  1.00  0.00     0.361 A 
ATOM     24  H8  UNL     1      65.505  36.404  39.499  1.00  0.00     0.189 HD
HETATM   25  O3  UNL     1      64.622  37.777  41.357  1.00  0.00    -0.244 OA
HETATM   26  N9  UNL     1      63.796  39.172  39.787  1.00  0.00    -0.193 N 
BRANCH  20  27
HETATM   27  N7  UNL     1      65.357  36.719  37.055  1.00  0.00    -0.234 N 
ATOM     28  H72 UNL     1      66.267  36.964  36.665  1.00  0.00     0.174 HD
ATOM     29  H71 UNL     1      64.920  35.852  36.746  1.00  0.00     0.174 HD
ENDBRANCH  20  27
BRANCH  26  30
HETATM   30  N10 UNL     1      63.249  40.032  40.767  1.00  0.00    -0.333 N 
ATOM     31 2H10 UNL     1      63.160  41.035  40.601  1.00  0.00     0.177 HD
ATOM     32 1H10 UNL     1      62.940  39.636  41.655  1.00  0.00     0.177 HD
ENDBRANCH  26  30
ENDBRANCH   3  18
TORSDOF 6
ENDMDL
MODEL 2
REMARK VINA RESULT: -8.655233017      2.571      9.348
REMARK  6 active torsions:
REMARK  status: ('A' for Active; 'I' for Inactive)
REMARK    1  A    between atoms: C2_2  and  C6_11 
REMARK    2  A    between atoms: C3_3  and  C4_4 
REMARK       I    between atoms: C4_4  and  N1_6 
REMARK       I    between atoms: C6_11  and  N4_13 
REMARK    3  A    between atoms: N4_13  and  N5_15 
REMARK    4  A    between atoms: C7_17  and  C8_18 
REMARK    5  A    between atoms: C9_21  and  N7_22 
REMARK    6  A    between atoms: N9_29  and  N10_30 
ROOT
HETATM    1  N5  UNL     1      63.139  41.682  37.941  1.00  0.00    -0.305 N 
ATOM      2  H5  UNL     1      62.232  41.773  38.399  1.00  0.00     0.186 HD
HETATM    3  C7  UNL     1      63.468  42.511  37.020  1.00  0.00     0.158 C 
ENDROOT
BRANCH   1   4
HETATM    4  N4  UNL     1      64.021  40.639  38.333  1.00  0.00    -0.266 N 
HETATM    5  C6  UNL     1      63.549  39.673  39.218  1.00  0.00     0.265 C 
HETATM    6  O2  UNL     1      62.355  39.759  39.641  1.00  0.00    -0.266 OA
ATOM      7  H4  UNL     1      64.976  40.597  37.975  1.00  0.00     0.190 HD
BRANCH   5   8
HETATM    8  C2  UNL     1      64.354  38.565  39.688  1.00  0.00     0.013 C 
HETATM    9  C1  UNL     1      63.781  37.583  40.608  1.00  0.00     0.054 C 
HETATM   10  C3  UNL     1      65.587  38.495  39.257  1.00  0.00     0.086 C 
BRANCH  10  11
HETATM   11  C4  UNL     1      66.522  37.472  39.617  1.00  0.00     0.247 C 
HETATM   12  O1  UNL     1      67.225  36.941  38.680  1.00  0.00    -0.268 OA
HETATM   13  N1  UNL     1      66.717  37.016  40.921  1.00  0.00    -0.300 N 
HETATM   14  C5  UNL     1      67.897  36.780  41.366  1.00  0.00     0.203 C 
ATOM     15  H1  UNL     1      65.911  36.870  41.529  1.00  0.00     0.171 HD
HETATM   16  N2  UNL     1      68.028  36.321  42.692  1.00  0.00    -0.066 NA
HETATM   17  N3  UNL     1      69.002  36.992  40.501  1.00  0.00    -0.066 NA
ENDBRANCH  10  11
ENDBRANCH   5   8
ENDBRANCH   1   4
BRANCH   3  18
HETATM   18  C8  UNL     1      62.574  43.578  36.616  1.00  0.00     0.163 A 
HETATM   19  N6  UNL     1      62.608  44.805  37.182  1.00  0.00    -0.173 N 
HETATM   20  C9  UNL     1      61.785  45.800  36.816  1.00  0.00     0.681 A 
ATOM     21  H6  UNL     1      63.290  44.983  37.920  1.00  0.00     0.186 HD
HETATM   22  N8  UNL     1      60.888  45.554  35.838  1.00  0.00    -0.140 N 
HETATM   23  C10 UNL     1      60.853  44.332  35.275  1.00  0.00     0.361 A 
ATOM     24  H8  UNL     1      60.245  46.284  35.530  1.00  0.00     0.189 HD
HETATM   25  O3  UNL     1      60.002  44.121  34.357  1.00  0.00    -0.244 OA
HETATM   26  N9  UNL     1      61.682  43.354  35.654  1.00  0.00    -0.193 N 
BRANCH  20  27
HETATM   27  N7  UNL     1      61.789  46.973  37.329  1.00  0.00    -0.234 N 
ATOM     28  H72 UNL     1      60.885  47.404  37.523  1.00  0.00     0.174 HD
ATOM     29  H71 UNL     1      62.631  47.502  37.556  1.00  0.00     0.174 HD
ENDBRANCH  20  27
BRANCH  26  30
HETATM   30  N10 UNL     1      61.632  42.076  35.050  1.00  0.00    -0.333 N 
ATOM     31 2H10 UNL     1      60.961  41.372  35.357  1.00  0.00     0.177 HD
ATOM     32 1H10 UNL     1      62.283  41.862  34.293  1.00  0.00     0.177 HD
ENDBRANCH  26  30
ENDBRANCH   3  18
TORSDOF 6
ENDMDL
MODEL 3
REMARK VINA RESULT: -8.193950842      1.476      1.520
REMARK  6 active torsions:
REMARK  status: ('A' for Active; 'I' for Inactive)
REMARK    1  A    between atoms: C2_2  and  C6_11 
REMARK    2  A    between atoms: C3_3  and  C4_4 
REMARK       I    between atoms: C4_4  and  N1_6 
REMARK       I    between atoms: C6_11  and  N4_13 
REMARK    3  A    between atoms: N4_13  and  N5_15 
REMARK    4  A    between atoms: C7_17  and  C8_18 
REMARK    5  A    between atoms: C9_21  and  N7_22 
REMARK    6  A    between atoms: N9_29  and  N10_30 
ROOT
HETATM    1  N5  UNL     1      62.890  40.740  37.447  1.00  0.00    -0.305 N 
ATOM      2  H5  UNL     1      63.639  40.497  36.798  1.00  0.00     0.186 HD
HETATM    3  C7  UNL     1      62.813  40.141  38.577  1.00  0.00     0.158 C 
ENDROOT
BRANCH   1   4
HETATM    4  N4  UNL     1      61.945  41.739  37.084  1.00  0.00    -0.266 N 
HETATM    5  C6  UNL     1      62.422  42.985  36.688  1.00  0.00     0.265 C 
HETATM    6  O2  UNL     1      63.676  43.184  36.664  1.00  0.00    -0.266 OA
ATOM      7  H4  UNL     1      60.943  41.548  37.114  1.00  0.00     0.190 HD
BRANCH   5   8
HETATM    8  C2  UNL     1      61.558  44.080  36.297  1.00  0.00     0.013 C 
HETATM    9  C1  UNL     1      61.014  44.134  34.941  1.00  0.00     0.054 C 
HETATM   10  C3  UNL     1      61.300  44.990  37.200  1.00  0.00     0.086 C 
BRANCH  10  11
HETATM   11  C4  UNL     1      60.469  46.138  36.990  1.00  0.00     0.247 C 
HETATM   12  O1  UNL     1      59.194  45.974  37.024  1.00  0.00    -0.268 OA
HETATM   13  N1  UNL     1      60.958  47.422  36.751  1.00  0.00    -0.300 N 
HETATM   14  C5  UNL     1      60.419  48.445  37.305  1.00  0.00     0.203 C 
ATOM     15  H1  UNL     1      61.754  47.549  36.126  1.00  0.00     0.171 HD
HETATM   16  N2  UNL     1      60.958  49.717  37.023  1.00  0.00    -0.066 NA
HETATM   17  N3  UNL     1      59.312  48.242  38.170  1.00  0.00    -0.066 NA
ENDBRANCH  10  11
ENDBRANCH   5   8
ENDBRANCH   1   4
BRANCH   3  18
HETATM   18  C8  UNL     1      63.772  39.122  38.953  1.00  0.00     0.163 A 
HETATM   19  N6  UNL     1      64.790  38.752  38.143  1.00  0.00    -0.173 N 
HETATM   20  C9  UNL     1      65.685  37.809  38.481  1.00  0.00     0.681 A 
ATOM     21  H6  UNL     1      64.883  39.209  37.237  1.00  0.00     0.186 HD
HETATM   22  N8  UNL     1      65.553  37.212  39.683  1.00  0.00    -0.140 N 
HETATM   23  C10 UNL     1      64.539  37.579  40.489  1.00  0.00     0.361 A 
ATOM     24  H8  UNL     1      66.213  36.491  39.978  1.00  0.00     0.189 HD
HETATM   25  O3  UNL     1      64.433  37.004  41.616  1.00  0.00    -0.244 OA
HETATM   26  N9  UNL     1      63.659  38.520  40.134  1.00  0.00    -0.193 N 
BRANCH  20  27
HETATM   27  N7  UNL     1      66.660  37.435  37.740  1.00  0.00    -0.234 N 
ATOM     28  H72 UNL     1      66.431  37.023  36.836  1.00  0.00     0.174 HD
ATOM     29  H71 UNL     1      67.644  37.520  37.994  1.00  0.00     0.174 HD
ENDBRANCH  20  27
BRANCH  26  30
HETATM   30  N10 UNL     1      62.600  38.895  40.995  1.00  0.00    -0.333 N 
ATOM     31 2H10 UNL     1      61.626  38.764  40.722  1.00  0.00     0.177 HD
ATOM     32 1H10 UNL     1      62.823  39.302  41.903  1.00  0.00     0.177 HD
ENDBRANCH  26  30
ENDBRANCH   3  18
TORSDOF 6
ENDMDL
MODEL 4
REMARK VINA RESULT: -8.175980789      2.298      9.231
REMARK  6 active torsions:
REMARK  status: ('A' for Active; 'I' for Inactive)
REMARK    1  A    between atoms: C2_2  and  C6_11 
REMARK    2  A    between atoms: C3_3  and  C4_4 
REMARK       I    between atoms: C4_4  and  N1_6 
REMARK       I    between atoms: C6_11  and  N4_13 
REMARK    3  A    between atoms: N4_13  and  N5_15 
REMARK    4  A    between atoms: C7_17  and  C8_18 
REMARK    5  A    between atoms: C9_21  and  N7_22 
REMARK    6  A    between atoms: N9_29  and  N10_30 
ROOT
HETATM    1  N5  UNL     1      61.557  42.820  38.211  1.00  0.00    -0.305 N 
ATOM      2  H5  UNL     1      60.986  42.674  37.378  1.00  0.00     0.186 HD
HETATM    3  C7  UNL     1      61.770  44.013  38.629  1.00  0.00     0.158 C 
ENDROOT
BRANCH   1   4
HETATM    4  N4  UNL     1      62.104  41.698  38.892  1.00  0.00    -0.266 N 
HETATM    5  C6  UNL     1      62.999  40.882  38.205  1.00  0.00     0.265 C 
HETATM    6  O2  UNL     1      63.291  41.166  37.002  1.00  0.00    -0.266 OA
ATOM      7  H4  UNL     1      61.849  41.497  39.859  1.00  0.00     0.190 HD
BRANCH   5   8
HETATM    8  C2  UNL     1      63.620  39.713  38.792  1.00  0.00     0.013 C 
HETATM    9  C1  UNL     1      63.047  39.105  39.992  1.00  0.00     0.054 C 
HETATM   10  C3  UNL     1      64.693  39.247  38.207  1.00  0.00     0.086 C 
BRANCH  10  11
HETATM   11  C4  UNL     1      65.435  38.104  38.649  1.00  0.00     0.247 C 
HETATM   12  O1  UNL     1      65.503  37.089  37.863  1.00  0.00    -0.268 OA
HETATM   13  N1  UNL     1      66.088  38.026  39.878  1.00  0.00    -0.300 N 
HETATM   14  C5  UNL     1      67.255  37.502  39.971  1.00  0.00     0.203 C 
ATOM     15  H1  UNL     1      65.632  38.390  40.715  1.00  0.00     0.171 HD
HETATM   16  N2  UNL     1      67.863  37.451  41.242  1.00  0.00    -0.066 NA
HETATM   17  N3  UNL     1      67.869  37.002  38.793  1.00  0.00    -0.066 NA
ENDBRANCH  10  11
ENDBRANCH   5   8
ENDBRANCH   1   4
BRANCH   3  18
HETATM   18  C8  UNL     1      61.215  45.160  37.940  1.00  0.00     0.163 A 
HETATM   19  N6  UNL     1      59.896  45.456  37.973  1.00  0.00    -0.173 N 
HETATM   20  C9  UNL     1      59.371  46.517  37.338  1.00  0.00     0.681 A 
ATOM     21  H6  UNL     1      59.273  44.848  38.503  1.00  0.00     0.186 HD
HETATM   22  N8  UNL     1      60.205  47.316  36.641  1.00  0.00    -0.140 N 
HETATM   23  C10 UNL     1      61.518  47.021  36.607  1.00  0.00     0.361 A 
ATOM     24  H8  UNL     1      59.846  48.132  36.145  1.00  0.00     0.189 HD
HETATM   25  O3  UNL     1      62.286  47.785  35.946  1.00  0.00    -0.244 OA
HETATM   26  N9  UNL     1      62.022  45.960  37.246  1.00  0.00    -0.193 N 
BRANCH  20  27
HETATM   27  N7  UNL     1      58.129  46.827  37.347  1.00  0.00    -0.234 N 
ATOM     28  H72 UNL     1      57.839  47.587  37.963  1.00  0.00     0.174 HD
ATOM     29  H71 UNL     1      57.414  46.366  36.784  1.00  0.00     0.174 HD
ENDBRANCH  20  27
BRANCH  26  30
HETATM   30  N10 UNL     1      63.404  45.666  37.202  1.00  0.00    -0.333 N 
ATOM     31 2H10 UNL     1      63.891  45.546  36.313  1.00  0.00     0.177 HD
ATOM     32 1H10 UNL     1      63.918  45.574  38.078  1.00  0.00     0.177 HD
ENDBRANCH  26  30
ENDBRANCH   3  18
TORSDOF 6
ENDMDL
MODEL 5
REMARK VINA RESULT: -7.926899857      2.912      9.256
REMARK  6 active torsions:
REMARK  status: ('A' for Active; 'I' for Inactive)
REMARK    1  A    between atoms: C2_2  and  C6_11 
REMARK    2  A    between atoms: C3_3  and  C4_4 
REMARK       I    between atoms: C4_4  and  N1_6 
REMARK       I    between atoms: C6_11  and  N4_13 
REMARK    3  A    between atoms: N4_13  and  N5_15 
REMARK    4  A    between atoms: C7_17  and  C8_18 
REMARK    5  A    between atoms: C9_21  and  N7_22 
REMARK    6  A    between atoms: N9_29  and  N10_30 
ROOT
HETATM    1  N5  UNL     1      61.753  40.876  38.445  1.00  0.00    -0.305 N 
ATOM      2  H5  UNL     1      60.968  40.565  37.872  1.00  0.00     0.186 HD
HETATM    3  C7  UNL     1      62.200  42.070  38.310  1.00  0.00     0.158 C 
ENDROOT
BRANCH   1   4
HETATM    4  N4  UNL     1      62.336  39.979  39.381  1.00  0.00    -0.266 N 
HETATM    5  C6  UNL     1      63.472  39.270  38.995  1.00  0.00     0.265 C 
HETATM    6  O2  UNL     1      63.942  39.449  37.829  1.00  0.00    -0.266 OA
ATOM      7  H4  UNL     1      61.935  39.857  40.310  1.00  0.00     0.190 HD
BRANCH   5   8
HETATM    8  C2  UNL     1      64.152  38.329  39.860  1.00  0.00     0.013 C 
HETATM    9  C1  UNL     1      65.185  37.449  39.315  1.00  0.00     0.054 C 
HETATM   10  C3  UNL     1      63.800  38.311  41.120  1.00  0.00     0.086 C 
BRANCH  10  11
HETATM   11  C4  UNL     1      64.364  37.448  42.114  1.00  0.00     0.247 C 
HETATM   12  O1  UNL     1      63.875  36.265  42.233  1.00  0.00    -0.268 OA
HETATM   13  N1  UNL     1      65.412  37.812  42.960  1.00  0.00    -0.300 N 
HETATM   14  C5  UNL     1      66.361  36.991  43.223  1.00  0.00     0.203 C 
ATOM     15  H1  UNL     1      65.422  38.743  43.376  1.00  0.00     0.171 HD
HETATM   16  N2  UNL     1      67.391  37.418  44.086  1.00  0.00    -0.066 NA
HETATM   17  N3  UNL     1      66.323  35.701  42.632  1.00  0.00    -0.066 NA
ENDBRANCH  10  11
ENDBRANCH   5   8
ENDBRANCH   1   4
BRANCH   3  18
HETATM   18  C8  UNL     1      61.610  42.989  37.359  1.00  0.00     0.163 A 
HETATM   19  N6  UNL     1      60.882  44.062  37.744  1.00  0.00    -0.173 N 
HETATM   20  C9  UNL     1      60.331  44.920  36.871  1.00  0.00     0.681 A 
ATOM     21  H6  UNL     1      60.746  44.227  38.741  1.00  0.00     0.186 HD
HETATM   22  N8  UNL     1      60.518  44.694  35.554  1.00  0.00    -0.140 N 
HETATM   23  C10 UNL     1      61.242  43.626  35.170  1.00  0.00     0.361 A 
ATOM     24  H8  UNL     1      60.117  45.324  34.859  1.00  0.00     0.189 HD
HETATM   25  O3  UNL     1      61.407  43.431  33.927  1.00  0.00    -0.244 OA
HETATM   26  N9  UNL     1      61.783  42.783  36.056  1.00  0.00    -0.193 N 
BRANCH  20  27
HETATM   27  N7  UNL     1      59.637  45.945  37.200  1.00  0.00    -0.234 N 
ATOM     28  H72 UNL     1      60.074  46.629  37.817  1.00  0.00     0.174 HD
ATOM     29  H71 UNL     1      58.682  46.121  36.888  1.00  0.00     0.174 HD
ENDBRANCH  20  27
BRANCH  26  30
HETATM   30  N10 UNL     1      62.542  41.666  35.634  1.00  0.00    -0.333 N 
ATOM     31 2H10 UNL     1      63.508  41.539  35.936  1.00  0.00     0.177 HD
ATOM     32 1H10 UNL     1      62.109  40.979  35.017  1.00  0.00     0.177 HD
ENDBRANCH  26  30
ENDBRANCH   3  18
TORSDOF 6
ENDMDL
