MODEL 1
REMARK VINA RESULT: -7.983947709      0.000      0.000
REMARK  6 active torsions:
REMARK  status: ('A' for Active; 'I' for Inactive)
REMARK    1  A    between atoms: C2_2  and  C4_10 
REMARK    2  A    between atoms: N1_3  and  N2_5 
REMARK    3  A    between atoms: C6_15  and  N7_16 
REMARK    4  A    between atoms: C7_18  and  C8_19 
REMARK    5  A    between atoms: C7_18  and  C9_22 
REMARK       I    between atoms: C9_22  and  N8_24 
REMARK    6  A    between atoms: N8_24  and  N9_26 
ROOT
HETATM    1  C4  UNL     1      63.470  39.797  38.041  1.00  0.00     0.160 A 
HETATM    2  N5  UNL     1      62.368  40.300  38.640  1.00  0.00    -0.267 N 
ATOM      3  H5  UNL     1      61.907  39.864  39.439  1.00  0.00     0.189 HD
HETATM    4  N6  UNL     1      61.955  41.419  38.076  1.00  0.00    -0.126 N 
HETATM    5  C5  UNL     1      60.772  42.189  38.527  1.00  0.00     0.197 C 
HETATM    6  C6  UNL     1      62.792  41.688  37.067  1.00  0.00     0.701 A 
HETATM    7  N10 UNL     1      63.729  40.657  37.068  1.00  0.00    -0.172 N 
ATOM      8  H10 UNL     1      64.506  40.576  36.413  1.00  0.00     0.186 HD
ENDROOT
BRANCH   6   9
HETATM    9  N7  UNL     1      62.817  42.620  36.251  1.00  0.00    -0.178 N 
HETATM   10  C7  UNL     1      62.658  43.944  36.008  1.00  0.00     0.194 C 
ATOM     11  H7  UNL     1      63.072  42.202  35.357  1.00  0.00     0.185 HD
BRANCH  10  12
HETATM   12  C8  UNL     1      63.630  44.899  36.657  1.00  0.00     0.233 C 
HETATM   13  O1  UNL     1      64.654  44.541  37.268  1.00  0.00    -0.643 OA
HETATM   14  O2  UNL     1      63.401  46.275  36.588  1.00  0.00    -0.643 OA
ENDBRANCH  10  12
BRANCH  10  15
HETATM   15  C9  UNL     1      61.284  44.523  36.062  1.00  0.00     0.293 C 
HETATM   16  O3  UNL     1      60.489  44.249  35.120  1.00  0.00    -0.264 OA
HETATM   17  N8  UNL     1      60.801  45.354  37.087  1.00  0.00    -0.271 N 
ATOM     18  H8  UNL     1      61.432  45.584  37.855  1.00  0.00     0.189 HD
BRANCH  17  19
HETATM   19  N9  UNL     1      59.512  45.882  37.119  1.00  0.00    -0.342 N 
ATOM     20  H92 UNL     1      58.865  45.481  37.796  1.00  0.00     0.176 HD
ATOM     21  H91 UNL     1      59.190  46.636  36.511  1.00  0.00     0.176 HD
ENDBRANCH  17  19
ENDBRANCH  10  15
ENDBRANCH   6   9
BRANCH   1  22
HETATM   22  C2  UNL     1      64.180  38.583  38.409  1.00  0.00     0.068 C 
HETATM   23  C1  UNL     1      65.060  37.946  37.389  1.00  0.00     0.074 C 
HETATM   24  N1  UNL     1      64.087  38.055  39.534  1.00  0.00    -0.299 N 
ATOM     25  H1  UNL     1      64.656  37.212  39.614  1.00  0.00     0.186 HD
BRANCH  24  26
HETATM   26  N2  UNL     1      63.417  38.328  40.674  1.00  0.00    -0.276 N 
HETATM   27  C3  UNL     1      63.519  37.724  41.789  1.00  0.00     0.215 C 
HETATM   28  N3  UNL     1      64.422  36.635  41.908  1.00  0.00    -0.065 NA
HETATM   29  N4  UNL     1      62.749  38.117  42.915  1.00  0.00    -0.065 NA
ATOM     30  H2  UNL     1      62.755  39.103  40.637  1.00  0.00     0.189 HD
ENDBRANCH  24  26
ENDBRANCH   1  22
TORSDOF 6
ENDMDL
MODEL 2
REMARK VINA RESULT: -7.710877083      2.256      3.795
REMARK  6 active torsions:
REMARK  status: ('A' for Active; 'I' for Inactive)
REMARK    1  A    between atoms: C2_2  and  C4_10 
REMARK    2  A    between atoms: N1_3  and  N2_5 
REMARK    3  A    between atoms: C6_15  and  N7_16 
REMARK    4  A    between atoms: C7_18  and  C8_19 
REMARK    5  A    between atoms: C7_18  and  C9_22 
REMARK       I    between atoms: C9_22  and  N8_24 
REMARK    6  A    between atoms: N8_24  and  N9_26 
ROOT
HETATM    1  C4  UNL     1      61.199  42.062  38.088  1.00  0.00     0.160 A 
HETATM    2  N5  UNL     1      61.452  41.957  36.764  1.00  0.00    -0.267 N 
ATOM      3  H5  UNL     1      61.752  41.094  36.310  1.00  0.00     0.189 HD
HETATM    4  N6  UNL     1      61.266  43.096  36.125  1.00  0.00    -0.126 N 
HETATM    5  C5  UNL     1      61.469  43.272  34.667  1.00  0.00     0.197 C 
HETATM    6  C6  UNL     1      60.879  44.002  37.030  1.00  0.00     0.701 A 
HETATM    7  N10 UNL     1      60.845  43.327  38.249  1.00  0.00    -0.172 N 
ATOM      8  H10 UNL     1      60.584  43.749  39.140  1.00  0.00     0.186 HD
ENDROOT
BRANCH   6   9
HETATM    9  N7  UNL     1      60.590  45.202  36.915  1.00  0.00    -0.178 N 
HETATM   10  C7  UNL     1      60.899  46.493  37.184  1.00  0.00     0.194 C 
ATOM     11  H7  UNL     1      59.727  45.229  36.371  1.00  0.00     0.185 HD
BRANCH  10  12
HETATM   12  C8  UNL     1      62.155  47.058  36.566  1.00  0.00     0.233 C 
HETATM   13  O1  UNL     1      62.177  48.054  35.821  1.00  0.00    -0.643 OA
HETATM   14  O2  UNL     1      63.388  46.454  36.824  1.00  0.00    -0.643 OA
ENDBRANCH  10  12
BRANCH  10  15
HETATM   15  C9  UNL     1      60.774  46.983  38.587  1.00  0.00     0.293 C 
HETATM   16  O3  UNL     1      59.996  46.361  39.364  1.00  0.00    -0.264 OA
HETATM   17  N8  UNL     1      61.459  48.089  39.118  1.00  0.00    -0.271 N 
ATOM     18  H8  UNL     1      62.091  48.601  38.502  1.00  0.00     0.189 HD
BRANCH  17  19
HETATM   19  N9  UNL     1      61.329  48.529  40.433  1.00  0.00    -0.342 N 
ATOM     20  H92 UNL     1      61.884  48.046  41.139  1.00  0.00     0.176 HD
ATOM     21  H91 UNL     1      60.719  49.294  40.721  1.00  0.00     0.176 HD
ENDBRANCH  17  19
ENDBRANCH  10  15
ENDBRANCH   6   9
BRANCH   1  22
HETATM   22  C2  UNL     1      61.303  41.003  39.078  1.00  0.00     0.068 C 
HETATM   23  C1  UNL     1      60.413  41.065  40.270  1.00  0.00     0.074 C 
HETATM   24  N1  UNL     1      62.099  40.049  38.973  1.00  0.00    -0.299 N 
ATOM     25  H1  UNL     1      62.032  39.402  39.759  1.00  0.00     0.186 HD
BRANCH  24  26
HETATM   26  N2  UNL     1      63.028  39.665  38.072  1.00  0.00    -0.276 N 
HETATM   27  C3  UNL     1      63.990  38.854  38.259  1.00  0.00     0.215 C 
HETATM   28  N3  UNL     1      64.157  38.258  39.536  1.00  0.00    -0.065 NA
HETATM   29  N4  UNL     1      64.900  38.535  37.217  1.00  0.00    -0.065 NA
ATOM     30  H2  UNL     1      62.949  40.068  37.138  1.00  0.00     0.189 HD
ENDBRANCH  24  26
ENDBRANCH   1  22
TORSDOF 6
ENDMDL
MODEL 3
REMARK VINA RESULT: -7.613727079      1.615      1.766
REMARK  6 active torsions:
REMARK  status: ('A' for Active; 'I' for Inactive)
REMARK    1  A    between atoms: C2_2  and  C4_10 
REMARK    2  A    between atoms: N1_3  and  N2_5 
REMARK    3  A    between atoms: C6_15  and  N7_16 
REMARK    4  A    between atoms: C7_18  and  C8_19 
REMARK    5  A    between atoms: C7_18  and  C9_22 
REMARK       I    between atoms: C9_22  and  N8_24 
REMARK    6  A    between atoms: N8_24  and  N9_26 
ROOT
HETATM    1  C4  UNL     1      63.494  39.293  38.621  1.00  0.00     0.160 A 
HETATM    2  N5  UNL     1      62.539  39.554  39.542  1.00  0.00    -0.267 N 
ATOM      3  H5  UNL     1      62.401  39.003  40.389  1.00  0.00     0.189 HD
HETATM    4  N6  UNL     1      61.805  40.603  39.222  1.00  0.00    -0.126 N 
HETATM    5  C5  UNL     1      60.687  41.118  40.048  1.00  0.00     0.197 C 
HETATM    6  C6  UNL     1      62.266  41.070  38.055  1.00  0.00     0.701 A 
HETATM    7  N10 UNL     1      63.322  40.232  37.703  1.00  0.00    -0.172 N 
ATOM      8  H10 UNL     1      63.884  40.328  36.858  1.00  0.00     0.186 HD
ENDROOT
BRANCH   6   9
HETATM    9  N7  UNL     1      61.905  42.029  37.358  1.00  0.00    -0.178 N 
HETATM   10  C7  UNL     1      61.965  43.359  37.108  1.00  0.00     0.194 C 
ATOM     11  H7  UNL     1      61.278  41.641  36.654  1.00  0.00     0.185 HD
BRANCH  10  12
HETATM   12  C8  UNL     1      63.286  43.930  36.655  1.00  0.00     0.233 C 
HETATM   13  O1  UNL     1      63.561  44.196  35.470  1.00  0.00    -0.643 OA
HETATM   14  O2  UNL     1      64.288  44.191  37.593  1.00  0.00    -0.643 OA
ENDBRANCH  10  12
BRANCH  10  15
HETATM   15  C9  UNL     1      61.323  44.300  38.071  1.00  0.00     0.293 C 
HETATM   16  O3  UNL     1      60.296  44.928  37.690  1.00  0.00    -0.264 OA
HETATM   17  N8  UNL     1      61.773  44.542  39.380  1.00  0.00    -0.271 N 
ATOM     18  H8  UNL     1      62.601  44.042  39.702  1.00  0.00     0.189 HD
BRANCH  17  19
HETATM   19  N9  UNL     1      61.156  45.424  40.265  1.00  0.00    -0.342 N 
ATOM     20  H92 UNL     1      60.800  46.296  39.875  1.00  0.00     0.176 HD
ATOM     21  H91 UNL     1      61.045  45.246  41.263  1.00  0.00     0.176 HD
ENDBRANCH  17  19
ENDBRANCH  10  15
ENDBRANCH   6   9
BRANCH   1  22
HETATM   22  C2  UNL     1      64.469  38.216  38.664  1.00  0.00     0.068 C 
HETATM   23  C1  UNL     1      65.176  37.858  37.403  1.00  0.00     0.074 C 
HETATM   24  N1  UNL     1      64.739  37.584  39.703  1.00  0.00    -0.299 N 
ATOM     25  H1  UNL     1      65.446  36.866  39.546  1.00  0.00     0.186 HD
BRANCH  24  26
HETATM   26  N2  UNL     1      64.322  37.617  40.987  1.00  0.00    -0.276 N 
HETATM   27  C3  UNL     1      64.963  37.223  42.013  1.00  0.00     0.215 C 
HETATM   28  N3  UNL     1      66.263  36.678  41.852  1.00  0.00    -0.065 NA
HETATM   29  N4  UNL     1      64.402  37.317  43.314  1.00  0.00    -0.065 NA
ATOM     30  H2  UNL     1      63.391  38.001  41.152  1.00  0.00     0.189 HD
ENDBRANCH  24  26
ENDBRANCH   1  22
TORSDOF 6
ENDMDL
MODEL 4
REMARK VINA RESULT: -7.605178090      2.116      3.418
REMARK  6 active torsions:
REMARK  status: ('A' for Active; 'I' for Inactive)
REMARK    1  A    between atoms: C2_2  and  C4_10 
REMARK    2  A    between atoms: N1_3  and  N2_5 
REMARK    3  A    between atoms: C6_15  and  N7_16 
REMARK    4  A    between atoms: C7_18  and  C8_19 
REMARK    5  A    between atoms: C7_18  and  C9_22 
REMARK       I    between atoms: C9_22  and  N8_24 
REMARK    6  A    between atoms: N8_24  and  N9_26 
ROOT
HETATM    1  C4  UNL     1      61.470  41.731  39.768  1.00  0.00     0.160 A 
HETATM    2  N5  UNL     1      61.435  42.899  40.447  1.00  0.00    -0.267 N 
ATOM      3  H5  UNL     1      61.607  42.978  41.450  1.00  0.00     0.189 HD
HETATM    4  N6  UNL     1      61.155  43.926  39.668  1.00  0.00    -0.126 N 
HETATM    5  C5  UNL     1      61.053  45.326  40.143  1.00  0.00     0.197 C 
HETATM    6  C6  UNL     1      60.992  43.451  38.427  1.00  0.00     0.701 A 
HETATM    7  N10 UNL     1      61.195  42.076  38.519  1.00  0.00    -0.172 N 
ATOM      8  H10 UNL     1      61.140  41.426  37.736  1.00  0.00     0.186 HD
ENDROOT
BRANCH   6   9
HETATM    9  N7  UNL     1      60.719  44.022  37.362  1.00  0.00    -0.178 N 
HETATM   10  C7  UNL     1      61.149  44.743  36.298  1.00  0.00     0.194 C 
ATOM     11  H7  UNL     1      59.718  43.890  37.223  1.00  0.00     0.185 HD
BRANCH  10  12
HETATM   12  C8  UNL     1      62.100  44.077  35.335  1.00  0.00     0.233 C 
HETATM   13  O1  UNL     1      63.339  44.092  35.457  1.00  0.00    -0.643 OA
HETATM   14  O2  UNL     1      61.598  43.390  34.227  1.00  0.00    -0.643 OA
ENDBRANCH  10  12
BRANCH  10  15
HETATM   15  C9  UNL     1      61.573  46.157  36.514  1.00  0.00     0.293 C 
HETATM   16  O3  UNL     1      60.876  47.071  35.989  1.00  0.00    -0.264 OA
HETATM   17  N8  UNL     1      62.693  46.556  37.263  1.00  0.00    -0.271 N 
ATOM     18  H8  UNL     1      63.265  45.829  37.694  1.00  0.00     0.189 HD
BRANCH  17  19
HETATM   19  N9  UNL     1      63.070  47.883  37.454  1.00  0.00    -0.342 N 
ATOM     20  H92 UNL     1      63.198  48.193  38.417  1.00  0.00     0.176 HD
ATOM     21  H91 UNL     1      63.221  48.548  36.696  1.00  0.00     0.176 HD
ENDBRANCH  17  19
ENDBRANCH  10  15
ENDBRANCH   6   9
BRANCH   1  22
HETATM   22  C2  UNL     1      61.749  40.415  40.318  1.00  0.00     0.068 C 
HETATM   23  C1  UNL     1      61.165  40.070  41.645  1.00  0.00     0.074 C 
HETATM   24  N1  UNL     1      62.450  39.567  39.733  1.00  0.00    -0.299 N 
ATOM     25  H1  UNL     1      62.536  38.702  40.267  1.00  0.00     0.186 HD
BRANCH  24  26
HETATM   26  N2  UNL     1      63.123  39.514  38.564  1.00  0.00    -0.276 N 
HETATM   27  C3  UNL     1      64.097  38.750  38.272  1.00  0.00     0.215 C 
HETATM   28  N3  UNL     1      64.573  37.831  39.243  1.00  0.00    -0.065 NA
HETATM   29  N4  UNL     1      64.717  38.799  36.996  1.00  0.00    -0.065 NA
ATOM     30  H2  UNL     1      62.817  40.158  37.834  1.00  0.00     0.189 HD
ENDBRANCH  24  26
ENDBRANCH   1  22
TORSDOF 6
ENDMDL
MODEL 5
REMARK VINA RESULT: -7.588537664      1.876      2.657
REMARK  6 active torsions:
REMARK  status: ('A' for Active; 'I' for Inactive)
REMARK    1  A    between atoms: C2_2  and  C4_10 
REMARK    2  A    between atoms: N1_3  and  N2_5 
REMARK    3  A    between atoms: C6_15  and  N7_16 
REMARK    4  A    between atoms: C7_18  and  C8_19 
REMARK    5  A    between atoms: C7_18  and  C9_22 
REMARK       I    between atoms: C9_22  and  N8_24 
REMARK    6  A    between atoms: N8_24  and  N9_26 
ROOT
HETATM    1  C4  UNL     1      63.189  39.497  39.968  1.00  0.00     0.160 A 
HETATM    2  N5  UNL     1      61.981  40.103  39.958  1.00  0.00    -0.267 N 
ATOM      3  H5  UNL     1      61.238  39.899  40.626  1.00  0.00     0.189 HD
HETATM    4  N6  UNL     1      61.872  40.990  38.988  1.00  0.00    -0.126 N 
HETATM    5  C5  UNL     1      60.659  41.805  38.739  1.00  0.00     0.197 C 
HETATM    6  C6  UNL     1      63.031  40.990  38.317  1.00  0.00     0.701 A 
HETATM    7  N10 UNL     1      63.835  40.047  38.953  1.00  0.00    -0.172 N 
ATOM      8  H10 UNL     1      64.788  39.813  38.675  1.00  0.00     0.186 HD
ENDROOT
BRANCH   6   9
HETATM    9  N7  UNL     1      63.407  41.645  37.335  1.00  0.00    -0.178 N 
HETATM   10  C7  UNL     1      63.281  42.761  36.577  1.00  0.00     0.194 C 
ATOM     11  H7  UNL     1      64.147  41.094  36.899  1.00  0.00     0.185 HD
BRANCH  10  12
HETATM   12  C8  UNL     1      63.648  44.083  37.206  1.00  0.00     0.233 C 
HETATM   13  O1  UNL     1      63.213  44.476  38.304  1.00  0.00    -0.643 OA
HETATM   14  O2  UNL     1      64.527  44.946  36.546  1.00  0.00    -0.643 OA
ENDBRANCH  10  12
BRANCH  10  15
HETATM   15  C9  UNL     1      62.052  42.931  35.748  1.00  0.00     0.293 C 
HETATM   16  O3  UNL     1      61.596  41.915  35.152  1.00  0.00    -0.264 OA
HETATM   17  N8  UNL     1      61.356  44.140  35.580  1.00  0.00    -0.271 N 
ATOM     18  H8  UNL     1      61.713  44.969  36.055  1.00  0.00     0.189 HD
BRANCH  17  19
HETATM   19  N9  UNL     1      60.208  44.275  34.803  1.00  0.00    -0.342 N 
ATOM     20  H92 UNL     1      60.171  45.072  34.167  1.00  0.00     0.176 HD
ATOM     21  H91 UNL     1      59.417  43.632  34.836  1.00  0.00     0.176 HD
ENDBRANCH  17  19
ENDBRANCH  10  15
ENDBRANCH   6   9
BRANCH   1  22
HETATM   22  C2  UNL     1      63.639  38.475  40.900  1.00  0.00     0.068 C 
HETATM   23  C1  UNL     1      62.832  38.241  42.130  1.00  0.00     0.074 C 
HETATM   24  N1  UNL     1      64.663  37.789  40.716  1.00  0.00    -0.299 N 
ATOM     25  H1  UNL     1      64.823  37.123  41.471  1.00  0.00     0.186 HD
BRANCH  24  26
HETATM   26  N2  UNL     1      65.613  37.715  39.759  1.00  0.00    -0.276 N 
HETATM   27  C3  UNL     1      66.852  37.472  39.924  1.00  0.00     0.215 C 
HETATM   28  N3  UNL     1      67.347  37.248  41.234  1.00  0.00    -0.065 NA
HETATM   29  N4  UNL     1      67.746  37.422  38.822  1.00  0.00    -0.065 NA
ATOM     30  H2  UNL     1      65.305  37.869  38.799  1.00  0.00     0.189 HD
ENDBRANCH  24  26
ENDBRANCH   1  22
TORSDOF 6
ENDMDL
