MODEL 1
REMARK VINA RESULT: -7.439056681      0.000      0.000
REMARK  4 active torsions:
REMARK  status: ('A' for Active; 'I' for Inactive)
REMARK    1  A    between atoms: C3_5  and  N2_6 
REMARK    2  A    between atoms: N2_6  and  N3_8 
REMARK    3  A    between atoms: N3_8  and  C4_10 
REMARK       I    between atoms: N4_11  and  C5_13 
REMARK    4  A    between atoms: C7_21  and  N8_22 
ROOT
HETATM    1  C1  UNL     1       9.742  19.190   8.148  1.00  0.00     0.047 C 
HETATM    2  C2  UNL     1       9.235  19.383   9.353  1.00  0.00     0.071 A 
HETATM    3  N1  UNL     1       9.719  18.758  10.436  1.00  0.00    -0.334 N 
ATOM      4  H1  UNL     1      10.502  18.113  10.326  1.00  0.00     0.168 HD
HETATM    5  C3  UNL     1       9.194  18.958  11.685  1.00  0.00     0.192 A 
HETATM    6  C6  UNL     1       8.136  19.824  11.854  1.00  0.00     0.314 A 
HETATM    7  O2  UNL     1       7.630  20.031  12.987  1.00  0.00    -0.262 OA
HETATM    8  N6  UNL     1       7.660  20.448  10.742  1.00  0.00    -0.183 N 
HETATM    9  N7  UNL     1       6.671  21.316  10.615  1.00  0.00    -0.121 N 
ATOM     10  H7  UNL     1       6.094  21.655  11.384  1.00  0.00     0.206 HD
HETATM   11  C7  UNL     1       6.532  21.686   9.333  1.00  0.00     0.692 A 
HETATM   12  N9  UNL     1       7.472  21.023   8.641  1.00  0.00    -0.172 N 
ATOM     13  H9  UNL     1       7.631  21.086   7.635  1.00  0.00     0.186 HD
HETATM   14  C8  UNL     1       8.177  20.251   9.517  1.00  0.00     0.172 A 
ENDROOT
BRANCH   5  15
HETATM   15  N2  UNL     1       9.707  18.323  12.689  1.00  0.00    -0.280 N 
ATOM     16  H2  UNL     1      10.714  18.355  12.848  1.00  0.00     0.188 HD
BRANCH  15  17
HETATM   17  N3  UNL     1       8.897  17.601  13.548  1.00  0.00    -0.294 N 
ATOM     18  H3  UNL     1       8.223  18.056  14.164  1.00  0.00     0.187 HD
BRANCH  17  19
HETATM   19  C4  UNL     1       9.060  16.167  13.523  1.00  0.00     0.201 C 
HETATM   20  N4  UNL     1       9.515  15.550  14.561  1.00  0.00    -0.306 N 
HETATM   21  C5  UNL     1       9.853  16.268  15.717  1.00  0.00     0.333 C 
ATOM     22  H4  UNL     1       9.629  14.537  14.542  1.00  0.00     0.171 HD
HETATM   23  N5  UNL     1       9.660  15.694  16.995  1.00  0.00    -0.040 NA
HETATM   24  O1  UNL     1      10.328  17.426  15.580  1.00  0.00    -0.251 OA
ENDBRANCH  17  19
ENDBRANCH  15  17
ENDBRANCH   5  15
BRANCH  11  25
HETATM   25  N8  UNL     1       5.638  22.534   8.887  1.00  0.00    -0.233 N 
ATOM     26  H82 UNL     1       5.033  22.446   8.071  1.00  0.00     0.174 HD
ATOM     27  H81 UNL     1       5.419  23.433   9.315  1.00  0.00     0.174 HD
ENDBRANCH  11  25
TORSDOF 4
ENDMDL
MODEL 2
REMARK VINA RESULT: -7.254646322      1.437      2.295
REMARK  4 active torsions:
REMARK  status: ('A' for Active; 'I' for Inactive)
REMARK    1  A    between atoms: C3_5  and  N2_6 
REMARK    2  A    between atoms: N2_6  and  N3_8 
REMARK    3  A    between atoms: N3_8  and  C4_10 
REMARK       I    between atoms: N4_11  and  C5_13 
REMARK    4  A    between atoms: C7_21  and  N8_22 
ROOT
HETATM    1  C1  UNL     1       6.377  21.591  13.019  1.00  0.00     0.047 C 
HETATM    2  C2  UNL     1       7.186  20.941  12.202  1.00  0.00     0.071 A 
HETATM    3  N1  UNL     1       8.062  20.028  12.648  1.00  0.00    -0.334 N 
ATOM      4  H1  UNL     1       8.103  19.831  13.648  1.00  0.00     0.168 HD
HETATM    5  C3  UNL     1       8.901  19.353  11.802  1.00  0.00     0.192 A 
HETATM    6  C6  UNL     1       8.859  19.606  10.448  1.00  0.00     0.314 A 
HETATM    7  O2  UNL     1       9.616  19.005   9.643  1.00  0.00    -0.262 OA
HETATM    8  N6  UNL     1       7.964  20.536  10.017  1.00  0.00    -0.183 N 
HETATM    9  N7  UNL     1       7.714  20.968   8.793  1.00  0.00    -0.121 N 
ATOM     10  H7  UNL     1       8.190  20.641   7.953  1.00  0.00     0.206 HD
HETATM   11  C7  UNL     1       6.746  21.897   8.811  1.00  0.00     0.692 A 
HETATM   12  N9  UNL     1       6.383  22.045  10.095  1.00  0.00    -0.172 N 
ATOM     13  H9  UNL     1       5.666  22.681  10.445  1.00  0.00     0.186 HD
HETATM   14  C8  UNL     1       7.140  21.197  10.849  1.00  0.00     0.172 A 
ENDROOT
BRANCH   5  15
HETATM   15  N2  UNL     1       9.723  18.485  12.296  1.00  0.00    -0.280 N 
ATOM     16  H2  UNL     1      10.570  18.239  11.784  1.00  0.00     0.188 HD
BRANCH  15  17
HETATM   17  N3  UNL     1       9.459  17.887  13.517  1.00  0.00    -0.294 N 
ATOM     18  H3  UNL     1       9.350  18.432  14.372  1.00  0.00     0.187 HD
BRANCH  17  19
HETATM   19  C4  UNL     1       9.345  16.448  13.510  1.00  0.00     0.201 C 
HETATM   20  N4  UNL     1       9.583  15.777  14.587  1.00  0.00    -0.306 N 
HETATM   21  C5  UNL     1       9.954  16.440  15.765  1.00  0.00     0.333 C 
ATOM     22  H4  UNL     1       9.502  14.760  14.580  1.00  0.00     0.171 HD
HETATM   23  N5  UNL     1       9.547  15.938  17.023  1.00  0.00    -0.040 NA
HETATM   24  O1  UNL     1      10.652  17.483  15.666  1.00  0.00    -0.251 OA
ENDBRANCH  17  19
ENDBRANCH  15  17
ENDBRANCH   5  15
BRANCH  11  25
HETATM   25  N8  UNL     1       6.276  22.516   7.755  1.00  0.00    -0.233 N 
ATOM     26  H82 UNL     1       6.591  23.393   7.342  1.00  0.00     0.174 HD
ATOM     27  H81 UNL     1       5.499  22.188   7.182  1.00  0.00     0.174 HD
ENDBRANCH  11  25
TORSDOF 4
ENDMDL
MODEL 3
REMARK VINA RESULT: -7.185903722      2.896      6.662
REMARK  4 active torsions:
REMARK  status: ('A' for Active; 'I' for Inactive)
REMARK    1  A    between atoms: C3_5  and  N2_6 
REMARK    2  A    between atoms: N2_6  and  N3_8 
REMARK    3  A    between atoms: N3_8  and  C4_10 
REMARK       I    between atoms: N4_11  and  C5_13 
REMARK    4  A    between atoms: C7_21  and  N8_22 
ROOT
HETATM    1  C1  UNL     1       8.979  15.058  13.907  1.00  0.00     0.047 C 
HETATM    2  C2  UNL     1       8.117  16.016  14.201  1.00  0.00     0.071 A 
HETATM    3  N1  UNL     1       8.279  17.275  13.766  1.00  0.00    -0.334 N 
ATOM      4  H1  UNL     1       9.091  17.498  13.190  1.00  0.00     0.168 HD
HETATM    5  C3  UNL     1       7.387  18.268  14.070  1.00  0.00     0.192 A 
HETATM    6  C6  UNL     1       6.284  17.985  14.846  1.00  0.00     0.314 A 
HETATM    7  O2  UNL     1       5.445  18.874  15.145  1.00  0.00    -0.262 OA
HETATM    8  N6  UNL     1       6.140  16.703  15.277  1.00  0.00    -0.183 N 
HETATM    9  N7  UNL     1       5.191  16.161  16.023  1.00  0.00    -0.121 N 
ATOM     10  H7  UNL     1       4.389  16.665  16.399  1.00  0.00     0.206 HD
HETATM   11  C7  UNL     1       5.433  14.855  16.215  1.00  0.00     0.692 A 
HETATM   12  N9  UNL     1       6.574  14.579  15.563  1.00  0.00    -0.172 N 
ATOM     13  H9  UNL     1       7.030  13.668  15.515  1.00  0.00     0.186 HD
HETATM   14  C8  UNL     1       7.016  15.729  14.978  1.00  0.00     0.172 A 
ENDROOT
BRANCH   5  15
HETATM   15  N2  UNL     1       7.601  19.461  13.619  1.00  0.00    -0.280 N 
ATOM     16  H2  UNL     1       7.228  20.268  14.120  1.00  0.00     0.188 HD
BRANCH  15  17
HETATM   17  N3  UNL     1       8.333  19.650  12.459  1.00  0.00    -0.294 N 
ATOM     18  H3  UNL     1       9.240  19.206  12.315  1.00  0.00     0.187 HD
BRANCH  17  19
HETATM   19  C4  UNL     1       7.739  20.512  11.464  1.00  0.00     0.201 C 
HETATM   20  N4  UNL     1       8.094  20.409  10.227  1.00  0.00    -0.306 N 
HETATM   21  C5  UNL     1       9.056  19.463   9.844  1.00  0.00     0.333 C 
ATOM     22  H4  UNL     1       7.673  21.018   9.525  1.00  0.00     0.171 HD
HETATM   23  N5  UNL     1       8.969  18.829   8.584  1.00  0.00    -0.040 NA
HETATM   24  O1  UNL     1       9.988  19.202  10.651  1.00  0.00    -0.251 OA
ENDBRANCH  17  19
ENDBRANCH  15  17
ENDBRANCH   5  15
BRANCH  11  25
HETATM   25  N8  UNL     1       4.676  14.044  16.911  1.00  0.00    -0.233 N 
ATOM     26  H82 UNL     1       4.169  13.220  16.591  1.00  0.00     0.174 HD
ATOM     27  H81 UNL     1       4.484  14.133  17.909  1.00  0.00     0.174 HD
ENDBRANCH  11  25
TORSDOF 4
ENDMDL
MODEL 4
REMARK VINA RESULT: -7.096730283      2.651      6.931
REMARK  4 active torsions:
REMARK  status: ('A' for Active; 'I' for Inactive)
REMARK    1  A    between atoms: C3_5  and  N2_6 
REMARK    2  A    between atoms: N2_6  and  N3_8 
REMARK    3  A    between atoms: N3_8  and  C4_10 
REMARK       I    between atoms: N4_11  and  C5_13 
REMARK    4  A    between atoms: C7_21  and  N8_22 
ROOT
HETATM    1  C1  UNL     1       5.574  18.145  15.328  1.00  0.00     0.047 C 
HETATM    2  C2  UNL     1       6.538  17.352  14.895  1.00  0.00     0.071 A 
HETATM    3  N1  UNL     1       7.560  17.813  14.158  1.00  0.00    -0.334 N 
ATOM      4  H1  UNL     1       7.593  18.806  13.926  1.00  0.00     0.168 HD
HETATM    5  C3  UNL     1       8.559  16.992  13.709  1.00  0.00     0.192 A 
HETATM    6  C6  UNL     1       8.531  15.648  14.013  1.00  0.00     0.314 A 
HETATM    7  O2  UNL     1       9.433  14.866  13.616  1.00  0.00    -0.262 OA
HETATM    8  N6  UNL     1       7.486  15.201  14.761  1.00  0.00    -0.183 N 
HETATM    9  N7  UNL     1       7.213  13.981  15.192  1.00  0.00    -0.121 N 
ATOM     10  H7  UNL     1       7.787  13.158  15.010  1.00  0.00     0.206 HD
HETATM   11  C7  UNL     1       6.075  13.978  15.903  1.00  0.00     0.692 A 
HETATM   12  N9  UNL     1       5.628  15.244  15.912  1.00  0.00    -0.172 N 
ATOM     13  H9  UNL     1       4.780  15.576  16.371  1.00  0.00     0.186 HD
HETATM   14  C8  UNL     1       6.506  16.008  15.201  1.00  0.00     0.172 A 
ENDROOT
BRANCH   5  15
HETATM   15  N2  UNL     1       9.517  17.499  13.002  1.00  0.00    -0.280 N 
ATOM     16  H2  UNL     1      10.360  16.954  12.825  1.00  0.00     0.188 HD
BRANCH  15  17
HETATM   17  N3  UNL     1       9.402  18.779  12.485  1.00  0.00    -0.294 N 
ATOM     18  H3  UNL     1       9.169  19.579  13.073  1.00  0.00     0.187 HD
BRANCH  17  19
HETATM   19  C4  UNL     1       9.632  18.915  11.067  1.00  0.00     0.201 C 
HETATM   20  N4  UNL     1       8.815  19.606  10.344  1.00  0.00    -0.306 N 
HETATM   21  C5  UNL     1       7.702  20.224  10.932  1.00  0.00     0.333 C 
ATOM     22  H4  UNL     1       8.979  19.701   9.342  1.00  0.00     0.171 HD
HETATM   23  N5  UNL     1       7.234  21.464  10.440  1.00  0.00    -0.040 NA
HETATM   24  O1  UNL     1       7.141  19.644  11.899  1.00  0.00    -0.251 OA
ENDBRANCH  17  19
ENDBRANCH  15  17
ENDBRANCH   5  15
BRANCH  11  25
HETATM   25  N8  UNL     1       5.540  12.922  16.463  1.00  0.00    -0.233 N 
ATOM     26  H82 UNL     1       5.703  12.548  17.397  1.00  0.00     0.174 HD
ATOM     27  H81 UNL     1       4.860  12.304  16.019  1.00  0.00     0.174 HD
ENDBRANCH  11  25
TORSDOF 4
ENDMDL
MODEL 5
REMARK VINA RESULT: -6.973648370      3.718      5.709
REMARK  4 active torsions:
REMARK  status: ('A' for Active; 'I' for Inactive)
REMARK    1  A    between atoms: C3_5  and  N2_6 
REMARK    2  A    between atoms: N2_6  and  N3_8 
REMARK    3  A    between atoms: N3_8  and  C4_10 
REMARK       I    between atoms: N4_11  and  C5_13 
REMARK    4  A    between atoms: C7_21  and  N8_22 
ROOT
HETATM    1  C1  UNL     1       9.522  15.320  15.574  1.00  0.00     0.047 C 
HETATM    2  C2  UNL     1       8.496  16.084  15.242  1.00  0.00     0.071 A 
HETATM    3  N1  UNL     1       7.305  15.975  15.848  1.00  0.00    -0.334 N 
ATOM      4  H1  UNL     1       7.188  15.283  16.588  1.00  0.00     0.168 HD
HETATM    5  C3  UNL     1       6.241  16.766  15.504  1.00  0.00     0.192 A 
HETATM    6  C6  UNL     1       6.380  17.707  14.507  1.00  0.00     0.314 A 
HETATM    7  O2  UNL     1       5.423  18.449  14.166  1.00  0.00    -0.262 OA
HETATM    8  N6  UNL     1       7.596  17.800  13.905  1.00  0.00    -0.183 N 
HETATM    9  N7  UNL     1       8.003  18.602  12.935  1.00  0.00    -0.121 N 
ATOM     10  H7  UNL     1       7.421  19.304  12.479  1.00  0.00     0.206 HD
HETATM   11  C7  UNL     1       9.289  18.362  12.636  1.00  0.00     0.692 A 
HETATM   12  N9  UNL     1       9.692  17.375  13.451  1.00  0.00    -0.172 N 
ATOM     13  H9  UNL     1      10.625  16.960  13.474  1.00  0.00     0.186 HD
HETATM   14  C8  UNL     1       8.640  17.023  14.244  1.00  0.00     0.172 A 
ENDROOT
BRANCH   5  15
HETATM   15  N2  UNL     1       5.118  16.611  16.128  1.00  0.00    -0.280 N 
ATOM     16  H2  UNL     1       4.619  17.427  16.483  1.00  0.00     0.188 HD
BRANCH  15  17
HETATM   17  N3  UNL     1       4.591  15.345  16.316  1.00  0.00    -0.294 N 
ATOM     18  H3  UNL     1       4.509  14.927  17.242  1.00  0.00     0.187 HD
BRANCH  17  19
HETATM   19  C4  UNL     1       4.163  14.650  15.125  1.00  0.00     0.201 C 
HETATM   20  N4  UNL     1       4.500  13.418  14.940  1.00  0.00    -0.306 N 
HETATM   21  C5  UNL     1       5.282  12.749  15.892  1.00  0.00     0.333 C 
ATOM     22  H4  UNL     1       4.196  12.929  14.098  1.00  0.00     0.171 HD
HETATM   23  N5  UNL     1       5.091  11.369  16.129  1.00  0.00    -0.040 NA
HETATM   24  O1  UNL     1       6.149  13.412  16.521  1.00  0.00    -0.251 OA
ENDBRANCH  17  19
ENDBRANCH  15  17
ENDBRANCH   5  15
BRANCH  11  25
HETATM   25  N8  UNL     1       9.978  18.993  11.717  1.00  0.00    -0.233 N 
ATOM     26  H82 UNL     1      10.917  18.787  11.376  1.00  0.00     0.174 HD
ATOM     27  H81 UNL     1       9.655  19.810  11.200  1.00  0.00     0.174 HD
ENDBRANCH  11  25
TORSDOF 4
ENDMDL
