MODEL 1
REMARK VINA RESULT: -6.781333378      0.000      0.000
REMARK  3 active torsions:
REMARK  status: ('A' for Active; 'I' for Inactive)
REMARK    1  A    between atoms: N3_11  and  C6_12 
REMARK    2  A    between atoms: C9_15  and  N4_16 
REMARK       I    between atoms: N4_16  and  C10_18 
REMARK       I    between atoms: C10_18  and  N5_19 
REMARK       I    between atoms: C10_18  and  N6_23 
REMARK    3  A    between atoms: N6_23  and  N7_24 
ROOT
HETATM    1  C1  UNL     1       8.777  15.076  14.440  1.00  0.00     0.021 C 
HETATM    2  C2  UNL     1       8.245  16.150  14.321  1.00  0.00    -0.041 C 
HETATM    3  C3  UNL     1       7.596  17.424  14.192  1.00  0.00     0.163 A 
HETATM    4  N1  UNL     1       6.489  17.743  14.885  1.00  0.00    -0.319 N 
ATOM      5  H1  UNL     1       6.096  17.055  15.527  1.00  0.00     0.169 HD
HETATM    6  C4  UNL     1       5.882  18.936  14.764  1.00  0.00     0.142 A 
HETATM    7  N2  UNL     1       4.802  19.512  15.312  1.00  0.00    -0.292 N 
ATOM      8  H2  UNL     1       4.185  19.082  15.999  1.00  0.00     0.172 HD
HETATM    9  C5  UNL     1       4.665  20.761  14.802  1.00  0.00     0.328 A 
HETATM   10  O1  UNL     1       3.723  21.517  15.154  1.00  0.00    -0.246 OA
HETATM   11  N3  UNL     1       5.659  20.992  13.923  1.00  0.00    -0.293 N 
HETATM   12  C8  UNL     1       6.408  19.884  13.892  1.00  0.00     0.127 A 
HETATM   13  C9  UNL     1       7.541  19.563  13.180  1.00  0.00     0.137 A 
HETATM   14  N8  UNL     1       8.099  18.344  13.351  1.00  0.00    -0.320 N 
ATOM     15  H8  UNL     1       8.938  18.112  12.820  1.00  0.00     0.169 HD
ENDROOT
BRANCH  13  16
HETATM   16  N4  UNL     1       8.045  20.402  12.381  1.00  0.00    -0.333 N 
HETATM   17  C10 UNL     1       8.324  20.276  10.991  1.00  0.00     0.397 C 
HETATM   18  N5  UNL     1       7.159  20.056  10.158  1.00  0.00    -0.042 N 
HETATM   19  N6  UNL     1       9.331  19.263  10.743  1.00  0.00    -0.093 NA
ATOM     20  H53 UNL     1       6.635  19.245  10.489  1.00  0.00     0.278 HD
ATOM     21  H52 UNL     1       6.467  20.789  10.315  1.00  0.00     0.278 HD
ATOM     22  H51 UNL     1       7.359  19.966   9.162  1.00  0.00     0.278 HD
ATOM     23  H4  UNL     1       8.287  21.302  12.793  1.00  0.00     0.164 HD
BRANCH  19  24
HETATM   24  N7  UNL     1       9.617  19.124   9.400  1.00  0.00    -0.345 N 
ATOM     25  H72 UNL     1       9.945  19.896   8.819  1.00  0.00     0.172 HD
ATOM     26  H71 UNL     1       9.462  18.172   9.067  1.00  0.00     0.172 HD
ENDBRANCH  19  24
ENDBRANCH  13  16
BRANCH  11  27
HETATM   27  C6  UNL     1       5.830  22.191  13.202  1.00  0.00     0.130 C 
HETATM   28  C7  UNL     1       4.900  22.205  11.976  1.00  0.00     0.027 C 
ENDBRANCH  11  27
TORSDOF 3
ENDMDL
MODEL 2
REMARK VINA RESULT: -6.749665928      2.305      4.613
REMARK  3 active torsions:
REMARK  status: ('A' for Active; 'I' for Inactive)
REMARK    1  A    between atoms: N3_11  and  C6_12 
REMARK    2  A    between atoms: C9_15  and  N4_16 
REMARK       I    between atoms: N4_16  and  C10_18 
REMARK       I    between atoms: C10_18  and  N5_19 
REMARK       I    between atoms: C10_18  and  N6_23 
REMARK    3  A    between atoms: N6_23  and  N7_24 
ROOT
HETATM    1  C1  UNL     1       9.970  15.515  16.500  1.00  0.00     0.021 C 
HETATM    2  C2  UNL     1       9.505  16.214  15.636  1.00  0.00    -0.041 C 
HETATM    3  C3  UNL     1       8.970  17.049  14.599  1.00  0.00     0.163 A 
HETATM    4  N1  UNL     1       9.727  17.532  13.599  1.00  0.00    -0.319 N 
ATOM      5  H1  UNL     1      10.719  17.296  13.575  1.00  0.00     0.169 HD
HETATM    6  C4  UNL     1       9.226  18.314  12.627  1.00  0.00     0.142 A 
HETATM    7  N2  UNL     1       9.727  18.919  11.541  1.00  0.00    -0.292 N 
ATOM      8  H2  UNL     1      10.699  18.878  11.235  1.00  0.00     0.172 HD
HETATM    9  C5  UNL     1       8.731  19.592  10.915  1.00  0.00     0.328 A 
HETATM   10  O1  UNL     1       8.940  20.249   9.862  1.00  0.00    -0.246 OA
HETATM   11  N3  UNL     1       7.584  19.423  11.599  1.00  0.00    -0.293 N 
HETATM   12  C8  UNL     1       7.874  18.644  12.646  1.00  0.00     0.127 A 
HETATM   13  C9  UNL     1       7.094  18.152  13.668  1.00  0.00     0.137 A 
HETATM   14  N8  UNL     1       7.665  17.371  14.612  1.00  0.00    -0.320 N 
ATOM     15  H8  UNL     1       7.081  17.011  15.366  1.00  0.00     0.169 HD
ENDROOT
BRANCH  13  16
HETATM   16  N4  UNL     1       5.863  18.432  13.714  1.00  0.00    -0.333 N 
HETATM   17  C10 UNL     1       5.059  18.807  14.826  1.00  0.00     0.397 C 
HETATM   18  N5  UNL     1       5.450  20.048  15.464  1.00  0.00    -0.042 N 
HETATM   19  N6  UNL     1       4.969  17.736  15.799  1.00  0.00    -0.093 NA
ATOM     20  H53 UNL     1       6.434  20.013  15.733  1.00  0.00     0.278 HD
ATOM     21  H52 UNL     1       5.482  20.803  14.779  1.00  0.00     0.278 HD
ATOM     22  H51 UNL     1       4.874  20.317  16.262  1.00  0.00     0.278 HD
ATOM     23  H4  UNL     1       5.372  18.381  12.821  1.00  0.00     0.164 HD
BRANCH  19  24
HETATM   24  N7  UNL     1       4.193  18.079  16.888  1.00  0.00    -0.345 N 
ATOM     25  H72 UNL     1       4.577  18.208  17.825  1.00  0.00     0.172 HD
ATOM     26  H71 UNL     1       3.208  18.185  16.646  1.00  0.00     0.172 HD
ENDBRANCH  19  24
ENDBRANCH  13  16
BRANCH  11  27
HETATM   27  C6  UNL     1       6.342  19.982  11.234  1.00  0.00     0.130 C 
HETATM   28  C7  UNL     1       6.248  21.431  11.743  1.00  0.00     0.027 C 
ENDBRANCH  11  27
TORSDOF 3
ENDMDL
MODEL 3
REMARK VINA RESULT: -6.576188715      1.777      4.044
REMARK  3 active torsions:
REMARK  status: ('A' for Active; 'I' for Inactive)
REMARK    1  A    between atoms: N3_11  and  C6_12 
REMARK    2  A    between atoms: C9_15  and  N4_16 
REMARK       I    between atoms: N4_16  and  C10_18 
REMARK       I    between atoms: C10_18  and  N5_19 
REMARK       I    between atoms: C10_18  and  N6_23 
REMARK    3  A    between atoms: N6_23  and  N7_24 
ROOT
HETATM    1  C1  UNL     1      10.069  18.975   8.706  1.00  0.00     0.021 C 
HETATM    2  C2  UNL     1       9.408  19.263   9.670  1.00  0.00    -0.041 C 
HETATM    3  C3  UNL     1       8.613  19.623  10.810  1.00  0.00     0.163 A 
HETATM    4  N1  UNL     1       7.826  20.713  10.825  1.00  0.00    -0.319 N 
ATOM      5  H1  UNL     1       7.792  21.306   9.996  1.00  0.00     0.169 HD
HETATM    6  C4  UNL     1       7.082  21.051  11.893  1.00  0.00     0.142 A 
HETATM    7  N2  UNL     1       6.232  22.046  12.182  1.00  0.00    -0.292 N 
ATOM      8  H2  UNL     1       5.979  22.810  11.557  1.00  0.00     0.172 HD
HETATM    9  C5  UNL     1       5.764  21.871  13.441  1.00  0.00     0.328 A 
HETATM   10  O1  UNL     1       4.945  22.674  13.958  1.00  0.00    -0.246 OA
HETATM   11  N3  UNL     1       6.312  20.759  13.967  1.00  0.00    -0.293 N 
HETATM   12  C8  UNL     1       7.119  20.250  13.030  1.00  0.00     0.127 A 
HETATM   13  C9  UNL     1       7.922  19.133  13.020  1.00  0.00     0.137 A 
HETATM   14  N8  UNL     1       8.645  18.854  11.911  1.00  0.00    -0.320 N 
ATOM     15  H8  UNL     1       9.239  18.025  11.911  1.00  0.00     0.169 HD
ENDROOT
BRANCH  13  16
HETATM   16  N4  UNL     1       7.977  18.384  14.036  1.00  0.00    -0.333 N 
HETATM   17  C10 UNL     1       8.852  17.297  14.315  1.00  0.00     0.397 C 
HETATM   18  N5  UNL     1      10.254  17.654  14.398  1.00  0.00    -0.042 N 
HETATM   19  N6  UNL     1       8.655  16.206  13.380  1.00  0.00    -0.093 NA
ATOM     20  H53 UNL     1      10.548  18.136  13.548  1.00  0.00     0.278 HD
ATOM     21  H52 UNL     1      10.389  18.401  15.080  1.00  0.00     0.278 HD
ATOM     22  H51 UNL     1      10.881  16.875  14.598  1.00  0.00     0.278 HD
ATOM     23  H4  UNL     1       7.294  18.590  14.764  1.00  0.00     0.164 HD
BRANCH  19  24
HETATM   24  N7  UNL     1       9.495  15.140  13.632  1.00  0.00    -0.345 N 
ATOM     25  H72 UNL     1       9.737  14.834  14.575  1.00  0.00     0.172 HD
ATOM     26  H71 UNL     1       9.837  14.704  12.776  1.00  0.00     0.172 HD
ENDBRANCH  19  24
ENDBRANCH  13  16
BRANCH  11  27
HETATM   27  C6  UNL     1       6.049  20.271  15.263  1.00  0.00     0.130 C 
HETATM   28  C7  UNL     1       4.883  19.268  15.221  1.00  0.00     0.027 C 
ENDBRANCH  11  27
TORSDOF 3
ENDMDL
MODEL 4
REMARK VINA RESULT: -6.498189258      2.429      4.453
REMARK  3 active torsions:
REMARK  status: ('A' for Active; 'I' for Inactive)
REMARK    1  A    between atoms: N3_11  and  C6_12 
REMARK    2  A    between atoms: C9_15  and  N4_16 
REMARK       I    between atoms: N4_16  and  C10_18 
REMARK       I    between atoms: C10_18  and  N5_19 
REMARK       I    between atoms: C10_18  and  N6_23 
REMARK    3  A    between atoms: N6_23  and  N7_24 
ROOT
HETATM    1  C1  UNL     1       4.277  17.731  16.331  1.00  0.00     0.021 C 
HETATM    2  C2  UNL     1       4.981  18.086  15.420  1.00  0.00    -0.041 C 
HETATM    3  C3  UNL     1       5.804  18.518  14.327  1.00  0.00     0.163 A 
HETATM    4  N1  UNL     1       5.357  19.354  13.373  1.00  0.00    -0.319 N 
ATOM      5  H1  UNL     1       4.397  19.693  13.429  1.00  0.00     0.169 HD
HETATM    6  C4  UNL     1       6.128  19.758  12.349  1.00  0.00     0.142 A 
HETATM    7  N2  UNL     1       5.955  20.561  11.289  1.00  0.00    -0.292 N 
ATOM      8  H2  UNL     1       5.097  21.059  11.056  1.00  0.00     0.172 HD
HETATM    9  C5  UNL     1       7.107  20.601  10.577  1.00  0.00     0.328 A 
HETATM   10  O1  UNL     1       7.210  21.287   9.527  1.00  0.00    -0.246 OA
HETATM   11  N3  UNL     1       8.027  19.823  11.178  1.00  0.00    -0.293 N 
HETATM   12  C8  UNL     1       7.440  19.304  12.261  1.00  0.00     0.127 A 
HETATM   13  C9  UNL     1       7.904  18.449  13.235  1.00  0.00     0.137 A 
HETATM   14  N8  UNL     1       7.073  18.082  14.237  1.00  0.00    -0.320 N 
ATOM     15  H8  UNL     1       7.423  17.448  14.955  1.00  0.00     0.169 HD
ENDROOT
BRANCH  13  16
HETATM   16  N4  UNL     1       9.090  18.018  13.186  1.00  0.00    -0.333 N 
HETATM   17  C10 UNL     1       9.691  16.934  13.884  1.00  0.00     0.397 C 
HETATM   18  N5  UNL     1       9.119  15.635  13.592  1.00  0.00    -0.042 N 
HETATM   19  N6  UNL     1       9.717  17.174  15.314  1.00  0.00    -0.093 NA
ATOM     20  H53 UNL     1       8.112  15.647  13.756  1.00  0.00     0.278 HD
ATOM     21  H52 UNL     1       9.132  15.460  12.587  1.00  0.00     0.278 HD
ATOM     22  H51 UNL     1       9.550  14.857  14.093  1.00  0.00     0.278 HD
ATOM     23  H4  UNL     1       9.709  18.523  12.552  1.00  0.00     0.164 HD
BRANCH  19  24
HETATM   24  N7  UNL     1      10.296  16.133  16.012  1.00  0.00    -0.345 N 
ATOM     25  H72 UNL     1      10.592  16.213  16.984  1.00  0.00     0.172 HD
ATOM     26  H71 UNL     1      10.389  15.290  15.445  1.00  0.00     0.172 HD
ENDBRANCH  19  24
ENDBRANCH  13  16
BRANCH  11  27
HETATM   27  C6  UNL     1       9.343  19.630  10.712  1.00  0.00     0.130 C 
HETATM   28  C7  UNL     1       9.319  18.909   9.352  1.00  0.00     0.027 C 
ENDBRANCH  11  27
TORSDOF 3
ENDMDL
MODEL 5
REMARK VINA RESULT: -6.291715298      4.759      6.839
REMARK  3 active torsions:
REMARK  status: ('A' for Active; 'I' for Inactive)
REMARK    1  A    between atoms: N3_11  and  C6_12 
REMARK    2  A    between atoms: C9_15  and  N4_16 
REMARK       I    between atoms: N4_16  and  C10_18 
REMARK       I    between atoms: C10_18  and  N5_19 
REMARK       I    between atoms: C10_18  and  N6_23 
REMARK    3  A    between atoms: N6_23  and  N7_24 
ROOT
HETATM    1  C1  UNL     1       9.534  17.087  13.501  1.00  0.00     0.021 C 
HETATM    2  C2  UNL     1       8.655  16.439  14.010  1.00  0.00    -0.041 C 
HETATM    3  C3  UNL     1       7.617  15.650  14.609  1.00  0.00     0.163 A 
HETATM    4  N1  UNL     1       7.637  14.306  14.600  1.00  0.00    -0.319 N 
ATOM      5  H1  UNL     1       8.419  13.829  14.152  1.00  0.00     0.169 HD
HETATM    6  C4  UNL     1       6.664  13.566  15.161  1.00  0.00     0.142 A 
HETATM    7  N2  UNL     1       6.429  12.254  15.301  1.00  0.00    -0.292 N 
ATOM      8  H2  UNL     1       7.029  11.504  14.958  1.00  0.00     0.172 HD
HETATM    9  C5  UNL     1       5.264  12.086  15.972  1.00  0.00     0.328 A 
HETATM   10  O1  UNL     1       4.813  10.941  16.234  1.00  0.00    -0.246 OA
HETATM   11  N3  UNL     1       4.744  13.293  16.267  1.00  0.00    -0.293 N 
HETATM   12  C8  UNL     1       5.592  14.204  15.776  1.00  0.00     0.127 A 
HETATM   13  C9  UNL     1       5.566  15.580  15.789  1.00  0.00     0.137 A 
HETATM   14  N8  UNL     1       6.578  16.260  15.204  1.00  0.00    -0.320 N 
ATOM     15  H8  UNL     1       6.553  17.280  15.216  1.00  0.00     0.169 HD
ENDROOT
BRANCH  13  16
HETATM   16  N4  UNL     1       4.607  16.190  16.340  1.00  0.00    -0.333 N 
HETATM   17  C10 UNL     1       3.862  17.312  15.881  1.00  0.00     0.397 C 
HETATM   18  N5  UNL     1       3.123  17.086  14.655  1.00  0.00    -0.042 N 
HETATM   19  N6  UNL     1       4.697  18.492  15.767  1.00  0.00    -0.093 NA
ATOM     20  H53 UNL     1       3.748  16.751  13.921  1.00  0.00     0.278 HD
ATOM     21  H52 UNL     1       2.515  16.272  14.753  1.00  0.00     0.278 HD
ATOM     22  H51 UNL     1       2.588  17.890  14.326  1.00  0.00     0.278 HD
ATOM     23  H4  UNL     1       4.326  15.825  17.250  1.00  0.00     0.164 HD
BRANCH  19  24
HETATM   24  N7  UNL     1       3.993  19.593  15.321  1.00  0.00    -0.345 N 
ATOM     25  H72 UNL     1       3.233  19.529  14.643  1.00  0.00     0.172 HD
ATOM     26  H71 UNL     1       4.320  20.460  15.746  1.00  0.00     0.172 HD
ENDBRANCH  19  24
ENDBRANCH  13  16
BRANCH  11  27
HETATM   27  C6  UNL     1       3.536  13.498  16.963  1.00  0.00     0.130 C 
HETATM   28  C7  UNL     1       2.351  13.463  15.982  1.00  0.00     0.027 C 
ENDBRANCH  11  27
TORSDOF 3
ENDMDL
