MODEL 1
REMARK VINA RESULT: -7.015231043      0.000      0.000
REMARK  4 active torsions:
REMARK  status: ('A' for Active; 'I' for Inactive)
REMARK    1  A    between atoms: C5_11  and  N4_12 
REMARK    2  A    between atoms: N6_18  and  C7_20 
REMARK    3  A    between atoms: C7_20  and  C8_21 
REMARK       I    between atoms: C8_21  and  N7_23 
REMARK    4  A    between atoms: N7_23  and  N8_25 
ROOT
HETATM    1  C1  UNL     1       5.572  17.192  15.449  1.00  0.00     0.160 C 
HETATM    2  N1  UNL     1       6.843  16.705  15.038  1.00  0.00    -0.311 N 
HETATM    3  C2  UNL     1       7.357  15.530  15.526  1.00  0.00     0.263 A 
HETATM    4  O1  UNL     1       6.662  14.893  16.354  1.00  0.00    -0.267 OA
HETATM    5  C3  UNL     1       8.576  15.025  15.157  1.00  0.00     0.164 A 
HETATM    6  N2  UNL     1       9.330  15.691  14.275  1.00  0.00    -0.345 N 
ATOM      7  H2  UNL     1      10.239  15.327  13.991  1.00  0.00     0.167 HD
HETATM    8  C4  UNL     1       8.866  16.857  13.765  1.00  0.00     0.152 A 
HETATM    9  N3  UNL     1       9.636  17.521  12.875  1.00  0.00    -0.174 N 
ATOM     10  H3  UNL     1      10.542  17.141  12.605  1.00  0.00     0.186 HD
HETATM   11  C5  UNL     1       9.215  18.675  12.347  1.00  0.00     0.679 A 
HETATM   12  N5  UNL     1       8.025  19.178  12.701  1.00  0.00    -0.175 N 
ATOM     13  H5  UNL     1       7.717  20.060  12.290  1.00  0.00     0.186 HD
HETATM   14  C6  UNL     1       7.213  18.544  13.595  1.00  0.00     0.148 A 
HETATM   15  N6  UNL     1       6.094  19.026  13.921  1.00  0.00    -0.365 N 
ATOM     16  H6  UNL     1       5.517  18.521  14.593  1.00  0.00     0.161 HD
HETATM   17  C9  UNL     1       7.624  17.356  14.151  1.00  0.00     0.127 A 
ENDROOT
BRANCH  15  18
HETATM   18  C7  UNL     1       5.608  20.254  13.381  1.00  0.00     0.225 C 
BRANCH  18  19
HETATM   19  C8  UNL     1       5.110  21.143  14.477  1.00  0.00     0.253 C 
HETATM   20  O2  UNL     1       5.915  21.828  15.155  1.00  0.00    -0.270 OA
HETATM   21  N7  UNL     1       3.730  21.246  14.786  1.00  0.00    -0.275 N 
ATOM     22  H7  UNL     1       3.064  20.697  14.244  1.00  0.00     0.189 HD
BRANCH  21  23
HETATM   23  N8  UNL     1       3.254  22.060  15.790  1.00  0.00    -0.343 N 
ATOM     24  H82 UNL     1       3.793  22.896  16.018  1.00  0.00     0.176 HD
ATOM     25  H81 UNL     1       2.396  21.855  16.302  1.00  0.00     0.176 HD
ENDBRANCH  21  23
ENDBRANCH  18  19
ENDBRANCH  15  18
BRANCH  11  26
HETATM   26  N4  UNL     1       9.974  19.280  11.503  1.00  0.00    -0.234 N 
ATOM     27  H42 UNL     1      10.071  18.949  10.543  1.00  0.00     0.174 HD
ATOM     28  H41 UNL     1      10.484  20.109  11.809  1.00  0.00     0.174 HD
ENDBRANCH  11  26
TORSDOF 4
ENDMDL
MODEL 2
REMARK VINA RESULT: -6.884014190      2.199      5.170
REMARK  4 active torsions:
REMARK  status: ('A' for Active; 'I' for Inactive)
REMARK    1  A    between atoms: C5_11  and  N4_12 
REMARK    2  A    between atoms: N6_18  and  C7_20 
REMARK    3  A    between atoms: C7_20  and  C8_21 
REMARK       I    between atoms: C8_21  and  N7_23 
REMARK    4  A    between atoms: N7_23  and  N8_25 
ROOT
HETATM    1  C1  UNL     1       4.242  17.537  15.679  1.00  0.00     0.160 C 
HETATM    2  N1  UNL     1       5.146  18.447  15.064  1.00  0.00    -0.311 N 
HETATM    3  C2  UNL     1       4.821  19.766  14.871  1.00  0.00     0.263 A 
HETATM    4  O1  UNL     1       3.690  20.147  15.257  1.00  0.00    -0.267 OA
HETATM    5  C3  UNL     1       5.661  20.675  14.284  1.00  0.00     0.164 A 
HETATM    6  N2  UNL     1       6.872  20.285  13.866  1.00  0.00    -0.345 N 
ATOM      7  H2  UNL     1       7.508  20.951  13.428  1.00  0.00     0.167 HD
HETATM    8  C4  UNL     1       7.238  18.993  14.035  1.00  0.00     0.152 A 
HETATM    9  N3  UNL     1       8.462  18.611  13.610  1.00  0.00    -0.174 N 
ATOM     10  H3  UNL     1       9.084  19.291  13.173  1.00  0.00     0.186 HD
HETATM   11  C5  UNL     1       8.864  17.344  13.758  1.00  0.00     0.679 A 
HETATM   12  N5  UNL     1       8.051  16.447  14.330  1.00  0.00    -0.175 N 
ATOM     13  H5  UNL     1       8.371  15.484  14.436  1.00  0.00     0.186 HD
HETATM   14  C6  UNL     1       6.806  16.785  14.775  1.00  0.00     0.148 A 
HETATM   15  N6  UNL     1       6.048  15.933  15.313  1.00  0.00    -0.365 N 
ATOM     16  H6  UNL     1       5.125  16.226  15.632  1.00  0.00     0.161 HD
HETATM   17  C9  UNL     1       6.372  18.082  14.634  1.00  0.00     0.127 A 
ENDROOT
BRANCH  15  18
HETATM   18  C7  UNL     1       6.438  14.572  15.489  1.00  0.00     0.225 C 
BRANCH  18  19
HETATM   19  C8  UNL     1       5.256  13.736  15.869  1.00  0.00     0.253 C 
HETATM   20  O2  UNL     1       4.844  12.832  15.101  1.00  0.00    -0.270 OA
HETATM   21  N7  UNL     1       4.566  13.930  17.092  1.00  0.00    -0.275 N 
ATOM     22  H7  UNL     1       4.888  14.660  17.727  1.00  0.00     0.189 HD
BRANCH  21  23
HETATM   23  N8  UNL     1       3.477  13.170  17.457  1.00  0.00    -0.343 N 
ATOM     24  H82 UNL     1       2.911  12.763  16.712  1.00  0.00     0.176 HD
ATOM     25  H81 UNL     1       3.225  13.006  18.432  1.00  0.00     0.176 HD
ENDBRANCH  21  23
ENDBRANCH  18  19
ENDBRANCH  15  18
BRANCH  11  26
HETATM   26  N4  UNL     1      10.036  17.015  13.341  1.00  0.00    -0.234 N 
ATOM     27  H42 UNL     1      10.879  17.391  13.776  1.00  0.00     0.174 HD
ATOM     28  H41 UNL     1      10.113  16.364  12.560  1.00  0.00     0.174 HD
ENDBRANCH  11  26
TORSDOF 4
ENDMDL
MODEL 3
REMARK VINA RESULT: -6.830473931      1.723      2.115
REMARK  4 active torsions:
REMARK  status: ('A' for Active; 'I' for Inactive)
REMARK    1  A    between atoms: C5_11  and  N4_12 
REMARK    2  A    between atoms: N6_18  and  C7_20 
REMARK    3  A    between atoms: C7_20  and  C8_21 
REMARK       I    between atoms: C8_21  and  N7_23 
REMARK    4  A    between atoms: N7_23  and  N8_25 
ROOT
HETATM    1  C1  UNL     1       4.563  16.632  14.462  1.00  0.00     0.160 C 
HETATM    2  N1  UNL     1       5.653  15.783  14.803  1.00  0.00    -0.311 N 
HETATM    3  C2  UNL     1       5.466  14.457  15.107  1.00  0.00     0.263 A 
HETATM    4  O1  UNL     1       4.292  14.015  15.074  1.00  0.00    -0.267 OA
HETATM    5  C3  UNL     1       6.486  13.606  15.441  1.00  0.00     0.164 A 
HETATM    6  N2  UNL     1       7.743  14.062  15.481  1.00  0.00    -0.345 N 
ATOM      7  H2  UNL     1       8.513  13.439  15.727  1.00  0.00     0.167 HD
HETATM    8  C4  UNL     1       7.978  15.363  15.189  1.00  0.00     0.152 A 
HETATM    9  N3  UNL     1       9.252  15.813  15.232  1.00  0.00    -0.174 N 
ATOM     10  H3  UNL     1      10.007  15.174  15.482  1.00  0.00     0.186 HD
HETATM   11  C5  UNL     1       9.528  17.090  14.951  1.00  0.00     0.679 A 
HETATM   12  N5  UNL     1       8.538  17.932  14.624  1.00  0.00    -0.175 N 
ATOM     13  H5  UNL     1       8.764  18.904  14.412  1.00  0.00     0.186 HD
HETATM   14  C6  UNL     1       7.237  17.525  14.566  1.00  0.00     0.148 A 
HETATM   15  N6  UNL     1       6.312  18.325  14.257  1.00  0.00    -0.365 N 
ATOM     16  H6  UNL     1       5.353  17.981  14.225  1.00  0.00     0.161 HD
HETATM   17  C9  UNL     1       6.930  16.215  14.852  1.00  0.00     0.127 A 
ENDROOT
BRANCH  15  18
HETATM   18  C7  UNL     1       6.564  19.695  13.950  1.00  0.00     0.225 C 
BRANCH  18  19
HETATM   19  C8  UNL     1       5.571  20.575  14.641  1.00  0.00     0.253 C 
HETATM   20  O2  UNL     1       5.922  21.688  15.103  1.00  0.00    -0.270 OA
HETATM   21  N7  UNL     1       4.215  20.191  14.800  1.00  0.00    -0.275 N 
ATOM     22  H7  UNL     1       3.914  19.290  14.430  1.00  0.00     0.189 HD
BRANCH  21  23
HETATM   23  N8  UNL     1       3.288  20.988  15.433  1.00  0.00    -0.343 N 
ATOM     24  H82 UNL     1       2.949  20.687  16.347  1.00  0.00     0.176 HD
ATOM     25  H81 UNL     1       2.937  21.854  15.023  1.00  0.00     0.176 HD
ENDBRANCH  21  23
ENDBRANCH  18  19
ENDBRANCH  15  18
BRANCH  11  26
HETATM   26  N4  UNL     1      10.751  17.483  15.002  1.00  0.00    -0.234 N 
ATOM     27  H42 UNL     1      11.256  17.536  15.887  1.00  0.00     0.174 HD
ATOM     28  H41 UNL     1      11.219  17.746  14.134  1.00  0.00     0.174 HD
ENDBRANCH  11  26
TORSDOF 4
ENDMDL
MODEL 4
REMARK VINA RESULT: -6.795017852      1.982      4.491
REMARK  4 active torsions:
REMARK  status: ('A' for Active; 'I' for Inactive)
REMARK    1  A    between atoms: C5_11  and  N4_12 
REMARK    2  A    between atoms: N6_18  and  C7_20 
REMARK    3  A    between atoms: C7_20  and  C8_21 
REMARK       I    between atoms: C8_21  and  N7_23 
REMARK    4  A    between atoms: N7_23  and  N8_25 
ROOT
HETATM    1  C1  UNL     1       9.288  17.046  13.270  1.00  0.00     0.160 C 
HETATM    2  N1  UNL     1       8.228  16.741  14.168  1.00  0.00    -0.311 N 
HETATM    3  C2  UNL     1       8.205  15.572  14.887  1.00  0.00     0.263 A 
HETATM    4  O1  UNL     1       9.159  14.773  14.724  1.00  0.00    -0.267 OA
HETATM    5  C3  UNL     1       7.205  15.239  15.761  1.00  0.00     0.164 A 
HETATM    6  N2  UNL     1       6.180  16.080  15.947  1.00  0.00    -0.345 N 
ATOM      7  H2  UNL     1       5.428  15.846  16.595  1.00  0.00     0.167 HD
HETATM    8  C4  UNL     1       6.157  17.247  15.260  1.00  0.00     0.152 A 
HETATM    9  N3  UNL     1       5.118  18.088  15.455  1.00  0.00    -0.174 N 
ATOM     10  H3  UNL     1       4.376  17.835  16.107  1.00  0.00     0.186 HD
HETATM   11  C5  UNL     1       5.057  19.251  14.798  1.00  0.00     0.679 A 
HETATM   12  N5  UNL     1       6.030  19.586  13.940  1.00  0.00    -0.175 N 
ATOM     13  H5  UNL     1       5.970  20.476  13.445  1.00  0.00     0.186 HD
HETATM   14  C6  UNL     1       7.099  18.770  13.710  1.00  0.00     0.148 A 
HETATM   15  N6  UNL     1       8.010  19.095  12.901  1.00  0.00    -0.365 N 
ATOM     16  H6  UNL     1       8.792  18.457  12.757  1.00  0.00     0.161 HD
HETATM   17  C9  UNL     1       7.183  17.569  14.375  1.00  0.00     0.127 A 
ENDROOT
BRANCH  15  18
HETATM   18  C7  UNL     1       7.983  20.325  12.179  1.00  0.00     0.225 C 
BRANCH  18  19
HETATM   19  C8  UNL     1       8.306  20.091  10.737  1.00  0.00     0.253 C 
HETATM   20  O2  UNL     1       7.612  20.624   9.836  1.00  0.00    -0.270 OA
HETATM   21  N7  UNL     1       9.392  19.271  10.338  1.00  0.00    -0.275 N 
ATOM     22  H7  UNL     1       9.965  18.832  11.058  1.00  0.00     0.189 HD
BRANCH  21  23
HETATM   23  N8  UNL     1       9.704  19.046   9.016  1.00  0.00    -0.343 N 
ATOM     24  H82 UNL     1      10.653  19.262   8.709  1.00  0.00     0.176 HD
ATOM     25  H81 UNL     1       9.028  18.676   8.348  1.00  0.00     0.176 HD
ENDBRANCH  21  23
ENDBRANCH  18  19
ENDBRANCH  15  18
BRANCH  11  26
HETATM   26  N4  UNL     1       4.053  20.027  15.009  1.00  0.00    -0.234 N 
ATOM     27  H42 UNL     1       3.443  20.323  14.247  1.00  0.00     0.174 HD
ATOM     28  H41 UNL     1       3.873  20.347  15.960  1.00  0.00     0.174 HD
ENDBRANCH  11  26
TORSDOF 4
ENDMDL
MODEL 5
REMARK VINA RESULT: -6.766594529      2.475      5.512
REMARK  4 active torsions:
REMARK  status: ('A' for Active; 'I' for Inactive)
REMARK    1  A    between atoms: C5_11  and  N4_12 
REMARK    2  A    between atoms: N6_18  and  C7_20 
REMARK    3  A    between atoms: C7_20  and  C8_21 
REMARK       I    between atoms: C8_21  and  N7_23 
REMARK    4  A    between atoms: N7_23  and  N8_25 
ROOT
HETATM    1  C1  UNL     1       4.300  16.845  15.637  1.00  0.00     0.160 C 
HETATM    2  N1  UNL     1       5.103  17.910  15.144  1.00  0.00    -0.311 N 
HETATM    3  C2  UNL     1       4.631  19.197  15.077  1.00  0.00     0.263 A 
HETATM    4  O1  UNL     1       3.457  19.405  15.468  1.00  0.00    -0.267 OA
HETATM    5  C3  UNL     1       5.369  20.251  14.609  1.00  0.00     0.164 A 
HETATM    6  N2  UNL     1       6.623  20.047  14.188  1.00  0.00    -0.345 N 
ATOM      7  H2  UNL     1       7.185  20.823  13.838  1.00  0.00     0.167 HD
HETATM    8  C4  UNL     1       7.134  18.794  14.234  1.00  0.00     0.152 A 
HETATM    9  N3  UNL     1       8.401  18.600  13.807  1.00  0.00    -0.174 N 
ATOM     10  H3  UNL     1       8.946  19.388  13.460  1.00  0.00     0.186 HD
HETATM   11  C5  UNL     1       8.944  17.379  13.837  1.00  0.00     0.679 A 
HETATM   12  N5  UNL     1       8.231  16.340  14.291  1.00  0.00    -0.175 N 
ATOM     13  H5  UNL     1       8.658  15.414  14.307  1.00  0.00     0.186 HD
HETATM   14  C6  UNL     1       6.948  16.486  14.734  1.00  0.00     0.148 A 
HETATM   15  N6  UNL     1       6.285  15.503  15.161  1.00  0.00    -0.365 N 
ATOM     16  H6  UNL     1       5.329  15.654  15.482  1.00  0.00     0.161 HD
HETATM   17  C9  UNL     1       6.369  17.733  14.713  1.00  0.00     0.127 A 
ENDROOT
BRANCH  15  18
HETATM   18  C7  UNL     1       6.827  14.184  15.208  1.00  0.00     0.225 C 
BRANCH  18  19
HETATM   19  C8  UNL     1       5.740  13.168  15.050  1.00  0.00     0.253 C 
HETATM   20  O2  UNL     1       4.637  13.491  14.543  1.00  0.00    -0.270 OA
HETATM   21  N7  UNL     1       5.910  11.821  15.461  1.00  0.00    -0.275 N 
ATOM     22  H7  UNL     1       6.799  11.544  15.875  1.00  0.00     0.189 HD
BRANCH  21  23
HETATM   23  N8  UNL     1       4.920  10.874  15.324  1.00  0.00    -0.343 N 
ATOM     24  H82 UNL     1       3.953  11.197  15.310  1.00  0.00     0.176 HD
ATOM     25  H81 UNL     1       5.123   9.877  15.236  1.00  0.00     0.176 HD
ENDBRANCH  21  23
ENDBRANCH  18  19
ENDBRANCH  15  18
BRANCH  11  26
HETATM   26  N4  UNL     1      10.153  17.230  13.422  1.00  0.00    -0.234 N 
ATOM     27  H42 UNL     1      10.462  17.626  12.534  1.00  0.00     0.174 HD
ATOM     28  H41 UNL     1      10.808  16.704  14.000  1.00  0.00     0.174 HD
ENDBRANCH  11  26
TORSDOF 4
ENDMDL
