MODEL 1
REMARK VINA RESULT: -6.190341454      0.000      0.000
REMARK  4 active torsions:
REMARK  status: ('A' for Active; 'I' for Inactive)
REMARK    1  A    between atoms: N1_2  and  C2_5 
REMARK    2  A    between atoms: C3_6  and  O1_8 
REMARK    3  A    between atoms: N2_11  and  O2_13 
REMARK    4  A    between atoms: C10_21  and  N3_22 
ROOT
HETATM    1  C2  UNL     1       1.673 -80.852-143.890  1.00  0.00     0.271 C 
HETATM    2  C3  UNL     1       1.657 -79.690-142.926  1.00  0.00     0.129 C 
HETATM    3  C4  UNL     1       0.815 -79.896-141.708  1.00  0.00     0.055 C 
HETATM    4  C5  UNL     1       1.042 -78.888-144.016  1.00  0.00     0.088 C 
HETATM    5  N2  UNL     1       0.341 -77.827-144.025  1.00  0.00    -0.271 N 
ATOM      6  H2  UNL     1       0.023 -77.454-144.919  1.00  0.00     0.193 HD
HETATM    7  C6  UNL     1       1.655 -79.852-144.975  1.00  0.00     0.210 C 
HETATM    8  O3  UNL     1       2.875 -79.425-145.481  1.00  0.00    -0.330 OA
HETATM    9  C7  UNL     1       2.573 -78.750-146.650  1.00  0.00     0.163 C 
HETATM   10  C8  UNL     1       3.636 -79.018-147.702  1.00  0.00     0.078 C 
HETATM   11  C9  UNL     1       2.499 -77.251-146.478  1.00  0.00     0.078 C 
HETATM   12  O4  UNL     1       1.316 -79.160-147.072  1.00  0.00    -0.304 OA
HETATM   13  C10 UNL     1       0.893 -80.161-146.212  1.00  0.00     0.355 C 
HETATM   14  C11 UNL     1      -0.537 -80.186-146.024  1.00  0.00     0.132 C 
HETATM   15  N4  UNL     1      -1.660 -80.223-145.877  1.00  0.00    -0.192 NA
ENDROOT
BRANCH  13  16
HETATM   16  N3  UNL     1       1.372 -81.418-146.801  1.00  0.00    -0.029 N 
ATOM     17  H33 UNL     1       1.996 -81.921-146.170  1.00  0.00     0.279 HD
ATOM     18  H32 UNL     1       0.631 -82.116-146.866  1.00  0.00     0.279 HD
ATOM     19  H31 UNL     1       1.807 -81.239-147.706  1.00  0.00     0.279 HD
ENDBRANCH  13  16
BRANCH   1  20
HETATM   20  N1  UNL     1       2.776 -81.751-143.795  1.00  0.00    -0.068 N 
HETATM   21  C1  UNL     1       2.683 -82.435-142.500  1.00  0.00     0.267 C 
ATOM     22  H12 UNL     1       3.676 -81.291-143.937  1.00  0.00     0.277 HD
ATOM     23  H11 UNL     1       2.831 -82.397-144.582  1.00  0.00     0.277 HD
ENDBRANCH   1  20
BRANCH   2  24
HETATM   24  O1  UNL     1       2.925 -79.201-142.601  1.00  0.00    -0.382 OA
ATOM     25  H1  UNL     1       3.019 -78.943-141.692  1.00  0.00     0.211 HD
ENDBRANCH   2  24
BRANCH   5  26
HETATM   26  O2  UNL     1       0.000 -77.173-142.882  1.00  0.00    -0.290 OA
ATOM     27  H2  UNL     1      -0.602 -77.543-142.247  1.00  0.00     0.244 HD
ENDBRANCH   5  26
TORSDOF 4
ENDMDL
MODEL 2
REMARK VINA RESULT: -5.375165965      1.633      4.555
REMARK  4 active torsions:
REMARK  status: ('A' for Active; 'I' for Inactive)
REMARK    1  A    between atoms: N1_2  and  C2_5 
REMARK    2  A    between atoms: C3_6  and  O1_8 
REMARK    3  A    between atoms: N2_11  and  O2_13 
REMARK    4  A    between atoms: C10_21  and  N3_22 
ROOT
HETATM    1  C2  UNL     1       2.455 -78.416-146.465  1.00  0.00     0.271 C 
HETATM    2  C3  UNL     1       3.218 -79.551-147.107  1.00  0.00     0.129 C 
HETATM    3  C4  UNL     1       3.235 -79.530-148.601  1.00  0.00     0.055 C 
HETATM    4  C5  UNL     1       2.235 -80.472-146.478  1.00  0.00     0.088 C 
HETATM    5  N2  UNL     1       1.867 -81.660-146.740  1.00  0.00    -0.271 N 
ATOM      6  H2  UNL     1       1.157 -82.097-146.153  1.00  0.00     0.193 HD
HETATM    7  C6  UNL     1       1.981 -79.400-145.472  1.00  0.00     0.210 C 
HETATM    8  O3  UNL     1       2.721 -79.551-144.307  1.00  0.00    -0.330 OA
HETATM    9  C7  UNL     1       1.916 -80.280-143.450  1.00  0.00     0.163 C 
HETATM   10  C8  UNL     1       2.087 -79.790-142.023  1.00  0.00     0.078 C 
HETATM   11  C9  UNL     1       2.227 -81.758-143.443  1.00  0.00     0.078 C 
HETATM   12  O4  UNL     1       0.603 -80.157-143.884  1.00  0.00    -0.304 OA
HETATM   13  C10 UNL     1       0.597 -79.270-144.949  1.00  0.00     0.355 C 
HETATM   14  C11 UNL     1      -0.423 -79.558-145.926  1.00  0.00     0.132 C 
HETATM   15  N4  UNL     1      -1.229 -79.767-146.696  1.00  0.00    -0.192 NA
ENDROOT
BRANCH  13  16
HETATM   16  N3  UNL     1       0.403 -77.940-144.356  1.00  0.00    -0.029 N 
ATOM     17  H33 UNL     1       1.265 -77.573-143.953  1.00  0.00     0.279 HD
ATOM     18  H32 UNL     1       0.253 -77.224-145.067  1.00  0.00     0.279 HD
ATOM     19  H31 UNL     1      -0.356 -77.967-143.675  1.00  0.00     0.279 HD
ENDBRANCH  13  16
BRANCH   1  20
HETATM   20  N1  UNL     1       3.220 -77.298-146.020  1.00  0.00    -0.068 N 
HETATM   21  C1  UNL     1       3.481 -76.445-147.186  1.00  0.00     0.267 C 
ATOM     22  H12 UNL     1       4.072 -77.570-145.529  1.00  0.00     0.277 HD
ATOM     23  H11 UNL     1       2.777 -76.795-145.252  1.00  0.00     0.277 HD
ENDBRANCH   1  20
BRANCH   2  24
HETATM   24  O1  UNL     1       4.496 -79.749-146.578  1.00  0.00    -0.382 OA
ATOM     25  H1  UNL     1       4.662 -80.638-146.288  1.00  0.00     0.211 HD
ENDBRANCH   2  24
BRANCH   5  26
HETATM   26  O2  UNL     1       2.389 -82.369-147.778  1.00  0.00    -0.290 OA
ATOM     27  H2  UNL     1       2.791 -83.220-147.658  1.00  0.00     0.244 HD
ENDBRANCH   5  26
TORSDOF 4
ENDMDL
MODEL 3
REMARK VINA RESULT: -4.837119412      1.616      2.572
REMARK  4 active torsions:
REMARK  status: ('A' for Active; 'I' for Inactive)
REMARK    1  A    between atoms: N1_2  and  C2_5 
REMARK    2  A    between atoms: C3_6  and  O1_8 
REMARK    3  A    between atoms: N2_11  and  O2_13 
REMARK    4  A    between atoms: C10_21  and  N3_22 
ROOT
HETATM    1  C2  UNL     1       0.610 -79.886-143.819  1.00  0.00     0.271 C 
HETATM    2  C3  UNL     1      -0.586 -79.050-144.208  1.00  0.00     0.129 C 
HETATM    3  C4  UNL     1      -1.912 -79.665-143.892  1.00  0.00     0.055 C 
HETATM    4  C5  UNL     1      -0.127 -79.176-145.616  1.00  0.00     0.088 C 
HETATM    5  N2  UNL     1      -0.718 -79.064-146.736  1.00  0.00    -0.271 N 
ATOM      6  H2  UNL     1      -0.181 -79.199-147.592  1.00  0.00     0.193 HD
HETATM    7  C6  UNL     1       1.240 -79.428-145.073  1.00  0.00     0.210 C 
HETATM    8  O3  UNL     1       2.030 -78.287-145.019  1.00  0.00    -0.330 OA
HETATM    9  C7  UNL     1       2.719 -78.260-146.218  1.00  0.00     0.163 C 
HETATM   10  C8  UNL     1       4.131 -77.744-146.001  1.00  0.00     0.078 C 
HETATM   11  C9  UNL     1       2.085 -77.366-147.258  1.00  0.00     0.078 C 
HETATM   12  O4  UNL     1       2.715 -79.543-146.747  1.00  0.00    -0.304 OA
HETATM   13  C10 UNL     1       2.107 -80.375-145.820  1.00  0.00     0.355 C 
HETATM   14  C11 UNL     1       1.388 -81.471-146.421  1.00  0.00     0.132 C 
HETATM   15  N4  UNL     1       0.829 -82.343-146.881  1.00  0.00    -0.192 NA
ENDROOT
BRANCH  13  16
HETATM   16  N3  UNL     1       3.189 -80.861-144.954  1.00  0.00    -0.029 N 
ATOM     17  H33 UNL     1       2.837 -81.452-144.200  1.00  0.00     0.279 HD
ATOM     18  H32 UNL     1       3.774 -81.551-145.425  1.00  0.00     0.279 HD
ATOM     19  H31 UNL     1       3.735 -80.075-144.600  1.00  0.00     0.279 HD
ENDBRANCH  13  16
BRANCH   1  20
HETATM   20  N1  UNL     1       1.235 -79.576-142.576  1.00  0.00    -0.068 N 
HETATM   21  C1  UNL     1       0.886 -80.638-141.625  1.00  0.00     0.267 C 
ATOM     22  H12 UNL     1       0.998 -78.644-142.235  1.00  0.00     0.277 HD
ATOM     23  H11 UNL     1       2.242 -79.435-142.663  1.00  0.00     0.277 HD
ENDBRANCH   1  20
BRANCH   2  24
HETATM   24  O1  UNL     1      -0.517 -77.723-143.777  1.00  0.00    -0.382 OA
ATOM     25  H1  UNL     1       0.127 -77.570-143.096  1.00  0.00     0.211 HD
ENDBRANCH   2  24
BRANCH   5  26
HETATM   26  O2  UNL     1      -2.043 -78.769-146.831  1.00  0.00    -0.290 OA
ATOM     27  H2  UNL     1      -2.612 -79.192-147.462  1.00  0.00     0.244 HD
ENDBRANCH   5  26
TORSDOF 4
ENDMDL
MODEL 4
REMARK VINA RESULT: -3.663138966      1.802      3.862
REMARK  4 active torsions:
REMARK  status: ('A' for Active; 'I' for Inactive)
REMARK    1  A    between atoms: N1_2  and  C2_5 
REMARK    2  A    between atoms: C3_6  and  O1_8 
REMARK    3  A    between atoms: N2_11  and  O2_13 
REMARK    4  A    between atoms: C10_21  and  N3_22 
ROOT
HETATM    1  C2  UNL     1       0.560 -80.335-146.541  1.00  0.00     0.271 C 
HETATM    2  C3  UNL     1      -0.734 -79.788-145.986  1.00  0.00     0.129 C 
HETATM    3  C4  UNL     1      -1.567 -79.029-146.968  1.00  0.00     0.055 C 
HETATM    4  C5  UNL     1       0.093 -78.969-145.060  1.00  0.00     0.088 C 
HETATM    5  N2  UNL     1      -0.132 -77.900-144.410  1.00  0.00    -0.271 N 
ATOM      6  H2  UNL     1       0.608 -77.515-143.825  1.00  0.00     0.193 HD
HETATM    7  C6  UNL     1       1.175 -79.980-145.246  1.00  0.00     0.210 C 
HETATM    8  O3  UNL     1       1.199 -80.950-144.254  1.00  0.00    -0.330 OA
HETATM    9  C7  UNL     1       2.072 -80.474-143.293  1.00  0.00     0.163 C 
HETATM   10  C8  UNL     1       2.879 -81.617-142.703  1.00  0.00     0.078 C 
HETATM   11  C9  UNL     1       1.381 -79.787-142.139  1.00  0.00     0.078 C 
HETATM   12  O4  UNL     1       2.887 -79.520-143.887  1.00  0.00    -0.304 OA
HETATM   13  C10 UNL     1       2.576 -79.487-145.237  1.00  0.00     0.355 C 
HETATM   14  C11 UNL     1       2.737 -78.182-145.829  1.00  0.00     0.132 C 
HETATM   15  N4  UNL     1       2.872 -77.164-146.308  1.00  0.00    -0.192 NA
ENDROOT
BRANCH  13  16
HETATM   16  N3  UNL     1       3.462 -80.471-145.873  1.00  0.00    -0.029 N 
ATOM     17  H33 UNL     1       4.086 -80.038-146.554  1.00  0.00     0.279 HD
ATOM     18  H32 UNL     1       4.168 -80.822-145.225  1.00  0.00     0.279 HD
ATOM     19  H31 UNL     1       2.912 -81.226-146.283  1.00  0.00     0.279 HD
ENDBRANCH  13  16
BRANCH   1  20
HETATM   20  N1  UNL     1       0.557 -81.700-146.954  1.00  0.00    -0.068 N 
HETATM   21  C1  UNL     1       1.851 -81.975-147.591  1.00  0.00     0.267 C 
ATOM     22  H12 UNL     1      -0.237 -81.931-147.552  1.00  0.00     0.277 HD
ATOM     23  H11 UNL     1       0.344 -82.344-146.193  1.00  0.00     0.277 HD
ENDBRANCH   1  20
BRANCH   2  24
HETATM   24  O1  UNL     1      -1.492 -80.726-145.282  1.00  0.00    -0.382 OA
ATOM     25  H1  UNL     1      -1.116 -81.598-145.268  1.00  0.00     0.211 HD
ENDBRANCH   2  24
BRANCH   5  26
HETATM   26  O2  UNL     1      -1.328 -77.254-144.469  1.00  0.00    -0.290 OA
ATOM     27  H2  UNL     1      -1.501 -76.566-145.102  1.00  0.00     0.244 HD
ENDBRANCH   5  26
TORSDOF 4
ENDMDL
MODEL 5
REMARK VINA RESULT: -2.744334434      1.796      4.060
REMARK  4 active torsions:
REMARK  status: ('A' for Active; 'I' for Inactive)
REMARK    1  A    between atoms: N1_2  and  C2_5 
REMARK    2  A    between atoms: C3_6  and  O1_8 
REMARK    3  A    between atoms: N2_11  and  O2_13 
REMARK    4  A    between atoms: C10_21  and  N3_22 
ROOT
HETATM    1  C2  UNL     1       0.135 -79.135-144.707  1.00  0.00     0.271 C 
HETATM    2  C3  UNL     1      -0.502 -79.956-145.803  1.00  0.00     0.129 C 
HETATM    3  C4  UNL     1      -1.567 -80.899-145.344  1.00  0.00     0.055 C 
HETATM    4  C5  UNL     1       0.840 -80.553-146.037  1.00  0.00     0.088 C 
HETATM    5  N2  UNL     1       1.227 -81.636-146.577  1.00  0.00    -0.271 N 
ATOM      6  H2  UNL     1       2.226 -81.835-146.623  1.00  0.00     0.193 HD
HETATM    7  C6  UNL     1       1.416 -79.324-145.416  1.00  0.00     0.210 C 
HETATM    8  O3  UNL     1       1.789 -78.361-146.344  1.00  0.00    -0.330 OA
HETATM    9  C7  UNL     1       3.121 -78.613-146.621  1.00  0.00     0.163 C 
HETATM   10  C8  UNL     1       3.874 -77.308-146.811  1.00  0.00     0.078 C 
HETATM   11  C9  UNL     1       3.331 -79.424-147.877  1.00  0.00     0.078 C 
HETATM   12  O4  UNL     1       3.644 -79.363-145.576  1.00  0.00    -0.304 OA
HETATM   13  C10 UNL     1       2.655 -79.483-144.613  1.00  0.00     0.355 C 
HETATM   14  C11 UNL     1       2.719 -80.724-143.881  1.00  0.00     0.132 C 
HETATM   15  N4  UNL     1       2.766 -81.691-143.291  1.00  0.00    -0.192 NA
ENDROOT
BRANCH  13  16
HETATM   16  N3  UNL     1       2.830 -78.331-143.719  1.00  0.00    -0.029 N 
ATOM     17  H33 UNL     1       3.659 -77.786-143.956  1.00  0.00     0.279 HD
ATOM     18  H32 UNL     1       2.126 -77.611-143.883  1.00  0.00     0.279 HD
ATOM     19  H31 UNL     1       2.841 -78.639-142.746  1.00  0.00     0.279 HD
ENDBRANCH  13  16
BRANCH   1  20
HETATM   20  N1  UNL     1      -0.365 -77.813-144.521  1.00  0.00    -0.068 N 
HETATM   21  C1  UNL     1      -1.827 -77.868-144.644  1.00  0.00     0.267 C 
ATOM     22  H12 UNL     1       0.061 -77.135-145.153  1.00  0.00     0.277 HD
ATOM     23  H11 UNL     1      -0.056 -77.392-143.645  1.00  0.00     0.277 HD
ENDBRANCH   1  20
BRANCH   2  24
HETATM   24  O1  UNL     1      -0.915 -79.208-146.908  1.00  0.00    -0.382 OA
ATOM     25  H1  UNL     1      -0.976 -79.708-147.713  1.00  0.00     0.211 HD
ENDBRANCH   2  24
BRANCH   5  26
HETATM   26  O2  UNL     1       0.353 -82.540-147.097  1.00  0.00    -0.290 OA
ATOM     27  H2  UNL     1       0.590 -83.123-147.808  1.00  0.00     0.244 HD
ENDBRANCH   5  26
TORSDOF 4
ENDMDL
