MODEL 1
REMARK VINA RESULT: -7.091575921      0.000      0.000
REMARK  3 active torsions:
REMARK  status: ('A' for Active; 'I' for Inactive)
REMARK    1  A    between atoms: N1_1  and  C1_4 
REMARK    2  A    between atoms: C3_13  and  N7_14 
REMARK    3  A    between atoms: C4_17  and  N8_18 
ROOT
HETATM    1  C1  UNL     1       2.990 -80.340-144.590  1.00  0.00     0.145 A 
HETATM    2  N2  UNL     1       2.700 -80.579-143.303  1.00  0.00    -0.172 N 
ATOM      3  H2  UNL     1       3.423 -80.979-142.704  1.00  0.00     0.186 HD
HETATM    4  C2  UNL     1       1.496 -80.313-142.768  1.00  0.00     0.718 A 
HETATM    5  N3  UNL     1       1.004 -80.475-141.518  1.00  0.00    -0.116 N 
ATOM      6  H3  UNL     1       1.491 -80.852-140.704  1.00  0.00     0.202 HD
HETATM    7  N4  UNL     1      -0.255 -80.035-141.575  1.00  0.00     0.007 NA
HETATM    8  N5  UNL     1      -0.541 -79.620-142.797  1.00  0.00     0.016 NA
HETATM    9  N6  UNL     1       0.535 -79.786-143.548  1.00  0.00    -0.046 N 
HETATM   10  C3  UNL     1       0.790 -79.528-144.866  1.00  0.00     0.241 A 
HETATM   11  C4  UNL     1       2.010 -79.798-145.407  1.00  0.00     0.131 A 
ENDROOT
BRANCH  11  12
HETATM   12  N8  UNL     1       2.267 -79.534-146.755  1.00  0.00    -0.339 N 
HETATM   13  C5  UNL     1       2.951 -78.552-147.199  1.00  0.00     0.103 C 
HETATM   14  C6  UNL     1       3.614 -77.499-146.429  1.00  0.00     0.308 C 
HETATM   15  N10 UNL     1       3.110 -78.433-148.633  1.00  0.00    -0.377 N 
HETATM   16  N9  UNL     1       3.248 -76.168-146.862  1.00  0.00    -0.067 N 
HETATM   17  C7  UNL     1       3.324 -75.998-148.288  1.00  0.00     0.252 C 
ATOM     18  H92 UNL     1       2.323 -75.915-146.515  1.00  0.00     0.277 HD
ATOM     19  H91 UNL     1       3.807 -75.463-146.382  1.00  0.00     0.277 HD
HETATM   20  C8  UNL     1       3.785 -77.201-149.041  1.00  0.00     0.148 C 
ATOM     21  H10 UNL     1       2.784 -79.139-149.293  1.00  0.00     0.160 HD
ATOM     22  H8  UNL     1       1.875 -80.180-147.441  1.00  0.00     0.167 HD
ENDBRANCH  11  12
BRANCH   1  23
HETATM   23  N1  UNL     1       4.147 -80.591-145.107  1.00  0.00    -0.383 N 
ATOM     24  H12 UNL     1       4.413 -81.566-145.243  1.00  0.00     0.157 HD
ATOM     25  H11 UNL     1       4.800 -79.859-145.386  1.00  0.00     0.157 HD
ENDBRANCH   1  23
BRANCH  10  26
HETATM   26  N7  UNL     1      -0.234 -78.969-145.671  1.00  0.00    -0.093 N 
HETATM   27  O1  UNL     1      -0.629 -77.807-145.592  1.00  0.00    -0.530 OA
HETATM   28  O2  UNL     1      -0.829 -79.797-146.614  1.00  0.00    -0.530 OA
ENDBRANCH  10  26
TORSDOF 3
ENDMDL
MODEL 2
REMARK VINA RESULT: -6.461972504      1.430      1.986
REMARK  3 active torsions:
REMARK  status: ('A' for Active; 'I' for Inactive)
REMARK    1  A    between atoms: N1_1  and  C1_4 
REMARK    2  A    between atoms: C3_13  and  N7_14 
REMARK    3  A    between atoms: C4_17  and  N8_18 
ROOT
HETATM    1  C1  UNL     1       3.006 -80.239-143.928  1.00  0.00     0.145 A 
HETATM    2  N2  UNL     1       2.705 -81.182-143.024  1.00  0.00    -0.172 N 
ATOM      3  H2  UNL     1       3.336 -81.976-142.917  1.00  0.00     0.186 HD
HETATM    4  C2  UNL     1       1.605 -81.125-142.254  1.00  0.00     0.718 A 
HETATM    5  N3  UNL     1       1.122 -81.954-141.300  1.00  0.00    -0.116 N 
ATOM      6  H3  UNL     1       1.534 -82.829-140.974  1.00  0.00     0.202 HD
HETATM    7  N4  UNL     1      -0.008 -81.384-140.876  1.00  0.00     0.007 NA
HETATM    8  N5  UNL     1      -0.226 -80.257-141.530  1.00  0.00     0.016 NA
HETATM    9  N6  UNL     1       0.766 -80.082-142.388  1.00  0.00    -0.046 N 
HETATM   10  C3  UNL     1       1.037 -79.099-143.297  1.00  0.00     0.241 A 
HETATM   11  C4  UNL     1       2.152 -79.158-144.078  1.00  0.00     0.131 A 
ENDROOT
BRANCH  11  12
HETATM   12  N8  UNL     1       2.425 -78.151-145.009  1.00  0.00    -0.339 N 
HETATM   13  C5  UNL     1       2.489 -78.312-146.273  1.00  0.00     0.103 C 
HETATM   14  C6  UNL     1       2.296 -79.549-147.032  1.00  0.00     0.308 C 
HETATM   15  N10 UNL     1       2.789 -77.153-147.086  1.00  0.00    -0.377 N 
HETATM   16  N9  UNL     1       3.395 -79.838-147.926  1.00  0.00    -0.067 N 
HETATM   17  C7  UNL     1       3.788 -78.708-148.724  1.00  0.00     0.252 C 
ATOM     18  H92 UNL     1       4.192 -80.214-147.413  1.00  0.00     0.277 HD
ATOM     19  H91 UNL     1       3.182 -80.642-148.517  1.00  0.00     0.277 HD
HETATM   20  C8  UNL     1       2.982 -77.472-148.502  1.00  0.00     0.148 C 
ATOM     21  H10 UNL     1       2.859 -76.207-146.710  1.00  0.00     0.160 HD
ATOM     22  H8  UNL     1       2.586 -77.211-144.647  1.00  0.00     0.167 HD
ENDBRANCH  11  12
BRANCH   1  23
HETATM   23  N1  UNL     1       4.064 -80.288-144.668  1.00  0.00    -0.383 N 
ATOM     24  H12 UNL     1       4.131 -81.030-145.365  1.00  0.00     0.157 HD
ATOM     25  H11 UNL     1       4.830 -79.619-144.587  1.00  0.00     0.157 HD
ENDBRANCH   1  23
BRANCH  10  26
HETATM   26  N7  UNL     1       0.143 -78.006-143.420  1.00  0.00    -0.093 N 
HETATM   27  O1  UNL     1       0.017 -77.109-142.589  1.00  0.00    -0.530 OA
HETATM   28  O2  UNL     1      -0.644 -77.950-144.564  1.00  0.00    -0.530 OA
ENDBRANCH  10  26
TORSDOF 3
ENDMDL
MODEL 3
REMARK VINA RESULT: -6.080297208      2.398      3.671
REMARK  3 active torsions:
REMARK  status: ('A' for Active; 'I' for Inactive)
REMARK    1  A    between atoms: N1_1  and  C1_4 
REMARK    2  A    between atoms: C3_13  and  N7_14 
REMARK    3  A    between atoms: C4_17  and  N8_18 
ROOT
HETATM    1  C1  UNL     1       0.415 -78.834-142.736  1.00  0.00     0.145 A 
HETATM    2  N2  UNL     1      -0.386 -79.470-141.869  1.00  0.00    -0.172 N 
ATOM      3  H2  UNL     1      -1.236 -79.003-141.555  1.00  0.00     0.186 HD
HETATM    4  C2  UNL     1      -0.113 -80.698-141.396  1.00  0.00     0.718 A 
HETATM    5  N3  UNL     1      -0.774 -81.504-140.532  1.00  0.00    -0.116 N 
ATOM      6  H3  UNL     1      -1.653 -81.309-140.053  1.00  0.00     0.202 HD
HETATM    7  N4  UNL     1      -0.028 -82.607-140.440  1.00  0.00     0.007 NA
HETATM    8  N5  UNL     1       1.045 -82.501-141.204  1.00  0.00     0.016 NA
HETATM    9  N6  UNL     1       1.006 -81.323-141.803  1.00  0.00    -0.046 N 
HETATM   10  C3  UNL     1       1.849 -80.709-142.686  1.00  0.00     0.241 A 
HETATM   11  C4  UNL     1       1.573 -79.463-143.165  1.00  0.00     0.131 A 
ENDROOT
BRANCH  11  12
HETATM   12  N8  UNL     1       2.438 -78.837-144.066  1.00  0.00    -0.339 N 
HETATM   13  C5  UNL     1       2.350 -78.896-145.338  1.00  0.00     0.103 C 
HETATM   14  C6  UNL     1       1.351 -79.610-146.136  1.00  0.00     0.308 C 
HETATM   15  N10 UNL     1       3.340 -78.186-146.117  1.00  0.00    -0.377 N 
HETATM   16  N9  UNL     1       1.941 -80.494-147.118  1.00  0.00    -0.067 N 
HETATM   17  C7  UNL     1       2.981 -79.868-147.889  1.00  0.00     0.252 C 
ATOM     18  H92 UNL     1       2.280 -81.349-146.678  1.00  0.00     0.277 HD
ATOM     19  H91 UNL     1       1.225 -80.890-147.727  1.00  0.00     0.277 HD
HETATM   20  C8  UNL     1       3.235 -78.435-147.556  1.00  0.00     0.148 C 
ATOM     21  H10 UNL     1       4.043 -77.571-145.705  1.00  0.00     0.160 HD
ATOM     22  H8  UNL     1       3.203 -78.287-143.675  1.00  0.00     0.167 HD
ENDBRANCH  11  12
BRANCH   1  23
HETATM   23  N1  UNL     1       0.155 -77.654-143.195  1.00  0.00    -0.383 N 
ATOM     24  H12 UNL     1       0.202 -76.865-142.551  1.00  0.00     0.157 HD
ATOM     25  H11 UNL     1      -0.090 -77.480-144.169  1.00  0.00     0.157 HD
ENDBRANCH   1  23
BRANCH  10  26
HETATM   26  N7  UNL     1       3.022 -81.385-143.107  1.00  0.00    -0.093 N 
HETATM   27  O1  UNL     1       3.575 -81.214-144.191  1.00  0.00    -0.530 OA
HETATM   28  O2  UNL     1       3.579 -82.304-142.228  1.00  0.00    -0.530 OA
ENDBRANCH  10  26
TORSDOF 3
ENDMDL
MODEL 4
REMARK VINA RESULT: -5.775944042      2.173      3.494
REMARK  3 active torsions:
REMARK  status: ('A' for Active; 'I' for Inactive)
REMARK    1  A    between atoms: N1_1  and  C1_4 
REMARK    2  A    between atoms: C3_13  and  N7_14 
REMARK    3  A    between atoms: C4_17  and  N8_18 
ROOT
HETATM    1  C1  UNL     1       2.364 -82.136-141.916  1.00  0.00     0.145 A 
HETATM    2  N2  UNL     1       1.571 -82.917-141.168  1.00  0.00    -0.172 N 
ATOM      3  H2  UNL     1       1.940 -83.805-140.828  1.00  0.00     0.186 HD
HETATM    4  C2  UNL     1       0.312 -82.576-140.847  1.00  0.00     0.718 A 
HETATM    5  N3  UNL     1      -0.639 -83.206-140.118  1.00  0.00    -0.116 N 
ATOM      6  H3  UNL     1      -0.565 -84.110-139.652  1.00  0.00     0.202 HD
HETATM    7  N4  UNL     1      -1.696 -82.390-140.139  1.00  0.00     0.007 NA
HETATM    8  N5  UNL     1      -1.425 -81.306-140.844  1.00  0.00     0.016 NA
HETATM    9  N6  UNL     1      -0.184 -81.407-141.290  1.00  0.00    -0.046 N 
HETATM   10  C3  UNL     1       0.591 -80.583-142.056  1.00  0.00     0.241 A 
HETATM   11  C4  UNL     1       1.869 -80.928-142.381  1.00  0.00     0.131 A 
ENDROOT
BRANCH  11  12
HETATM   12  N8  UNL     1       2.658 -80.084-143.166  1.00  0.00    -0.339 N 
HETATM   13  C5  UNL     1       2.558 -79.942-144.431  1.00  0.00     0.103 C 
HETATM   14  C6  UNL     1       1.621 -80.608-145.337  1.00  0.00     0.308 C 
HETATM   15  N10 UNL     1       3.467 -79.023-145.081  1.00  0.00    -0.377 N 
HETATM   16  N9  UNL     1       2.278 -81.260-146.449  1.00  0.00    -0.067 N 
HETATM   17  C7  UNL     1       3.243 -80.420-147.105  1.00  0.00     0.252 C 
ATOM     18  H92 UNL     1       2.702 -82.139-146.155  1.00  0.00     0.277 HD
ATOM     19  H91 UNL     1       1.595 -81.617-147.116  1.00  0.00     0.277 HD
HETATM   20  C8  UNL     1       3.366 -79.044-146.541  1.00  0.00     0.148 C 
ATOM     21  H10 UNL     1       4.114 -78.420-144.573  1.00  0.00     0.160 HD
ATOM     22  H8  UNL     1       3.374 -79.534-142.689  1.00  0.00     0.167 HD
ENDBRANCH  11  12
BRANCH   1  23
HETATM   23  N1  UNL     1       3.577 -82.458-142.225  1.00  0.00    -0.383 N 
ATOM     24  H12 UNL     1       4.320 -82.228-141.565  1.00  0.00     0.157 HD
ATOM     25  H11 UNL     1       3.821 -82.933-143.094  1.00  0.00     0.157 HD
ENDBRANCH   1  23
BRANCH  10  26
HETATM   26  N7  UNL     1       0.053 -79.353-142.510  1.00  0.00    -0.093 N 
HETATM   27  O1  UNL     1       0.479 -78.244-142.192  1.00  0.00    -0.530 OA
HETATM   28  O2  UNL     1      -1.033 -79.410-143.374  1.00  0.00    -0.530 OA
ENDBRANCH  10  26
TORSDOF 3
ENDMDL
MODEL 5
REMARK VINA RESULT: -5.536854149      1.920      2.721
REMARK  3 active torsions:
REMARK  status: ('A' for Active; 'I' for Inactive)
REMARK    1  A    between atoms: N1_1  and  C1_4 
REMARK    2  A    between atoms: C3_13  and  N7_14 
REMARK    3  A    between atoms: C4_17  and  N8_18 
ROOT
HETATM    1  C1  UNL     1      -0.173 -79.390-145.380  1.00  0.00     0.145 A 
HETATM    2  N2  UNL     1      -0.837 -79.392-144.215  1.00  0.00    -0.172 N 
ATOM      3  H2  UNL     1      -1.803 -79.066-144.202  1.00  0.00     0.186 HD
HETATM    4  C2  UNL     1      -0.281 -79.807-143.064  1.00  0.00     0.718 A 
HETATM    5  N3  UNL     1      -0.764 -79.889-141.802  1.00  0.00    -0.116 N 
ATOM      6  H3  UNL     1      -1.698 -79.633-141.478  1.00  0.00     0.202 HD
HETATM    7  N4  UNL     1       0.241 -80.376-141.071  1.00  0.00     0.007 NA
HETATM    8  N5  UNL     1       1.301 -80.587-141.832  1.00  0.00     0.016 NA
HETATM    9  N6  UNL     1       0.992 -80.239-143.070  1.00  0.00    -0.046 N 
HETATM   10  C3  UNL     1       1.704 -80.253-144.237  1.00  0.00     0.241 A 
HETATM   11  C4  UNL     1       1.140 -79.833-145.404  1.00  0.00     0.131 A 
ENDROOT
BRANCH  11  12
HETATM   12  N8  UNL     1       1.871 -79.846-146.595  1.00  0.00    -0.339 N 
HETATM   13  C5  UNL     1       2.625 -78.904-147.010  1.00  0.00     0.103 C 
HETATM   14  C6  UNL     1       2.901 -77.622-146.359  1.00  0.00     0.308 C 
HETATM   15  N10 UNL     1       3.304 -79.090-148.274  1.00  0.00    -0.377 N 
HETATM   16  N9  UNL     1       2.663 -76.488-147.224  1.00  0.00    -0.067 N 
HETATM   17  C7  UNL     1       3.260 -76.634-148.524  1.00  0.00     0.252 C 
ATOM     18  H92 UNL     1       1.665 -76.294-147.302  1.00  0.00     0.277 HD
ATOM     19  H91 UNL     1       2.969 -75.622-146.780  1.00  0.00     0.277 HD
HETATM   20  C8  UNL     1       4.025 -77.899-148.726  1.00  0.00     0.148 C 
ATOM     21  H10 UNL     1       3.282 -79.965-148.799  1.00  0.00     0.160 HD
ATOM     22  H8  UNL     1       1.795 -80.678-147.181  1.00  0.00     0.167 HD
ENDBRANCH  11  12
BRANCH   1  23
HETATM   23  N1  UNL     1      -0.705 -78.995-146.490  1.00  0.00    -0.383 N 
ATOM     24  H12 UNL     1      -0.109 -78.932-147.314  1.00  0.00     0.157 HD
ATOM     25  H11 UNL     1      -1.691 -78.748-146.575  1.00  0.00     0.157 HD
ENDBRANCH   1  23
BRANCH  10  26
HETATM   26  N7  UNL     1       3.043 -80.716-144.224  1.00  0.00    -0.093 N 
HETATM   27  O1  UNL     1       3.980 -80.159-144.793  1.00  0.00    -0.530 OA
HETATM   28  O2  UNL     1       3.309 -81.883-143.519  1.00  0.00    -0.530 OA
ENDBRANCH  10  26
TORSDOF 3
ENDMDL
