MODEL 1
REMARK VINA RESULT: -8.056533634      0.000      0.000
REMARK  5 active torsions:
REMARK  status: ('A' for Active; 'I' for Inactive)
REMARK       I    between atoms: N2_3  and  C2_4 
REMARK    1  A    between atoms: C2_4  and  O2_6 
REMARK    2  A    between atoms: O2_6  and  C3_7 
REMARK    3  A    between atoms: C3_7  and  C4_9 
REMARK    4  A    between atoms: C5_10  and  O4_11 
REMARK    5  A    between atoms: N4_17  and  N5_18 
ROOT
HETATM    1  N1  UNL     1       2.616 -75.382-149.478  1.00  0.00    -0.156 NA
HETATM    2  C1  UNL     1       2.877 -76.106-148.634  1.00  0.00     0.273 C 
HETATM    3  N2  UNL     1       3.129 -76.950-147.625  1.00  0.00    -0.265 NA
HETATM    4  C2  UNL     1       3.384 -77.803-146.607  1.00  0.00     0.458 C 
HETATM    5  O1  UNL     1       4.256 -78.575-146.276  1.00  0.00    -0.220 OA
ENDROOT
BRANCH   4   6
HETATM    6  O2  UNL     1       2.296 -77.817-145.582  1.00  0.00    -0.210 OA
BRANCH   6   7
HETATM    7  C3  UNL     1       1.557 -78.958-145.428  1.00  0.00     0.312 C 
HETATM    8  O3  UNL     1       0.963 -79.428-146.412  1.00  0.00    -0.258 OA
BRANCH   7   9
HETATM    9  C4  UNL     1       1.433 -79.657-144.140  1.00  0.00     0.160 A 
HETATM   10  C5  UNL     1       0.414 -79.303-143.292  1.00  0.00     0.164 A 
HETATM   11  N3  UNL     1       0.231 -79.916-142.125  1.00  0.00    -0.311 N 
HETATM   12  C6  UNL     1       1.088 -80.925-141.790  1.00  0.00     0.202 A 
ATOM     13  H3  UNL     1      -0.527 -79.641-141.501  1.00  0.00     0.170 HD
HETATM   14  S1  UNL     1       0.802 -81.628-140.336  1.00  0.00    -0.038 SA
HETATM   15  N4  UNL     1       2.083 -81.292-142.582  1.00  0.00    -0.199 N 
HETATM   16  C7  UNL     1       2.272 -80.666-143.768  1.00  0.00     0.289 A 
HETATM   17  O5  UNL     1       3.203 -80.973-144.570  1.00  0.00    -0.265 OA
BRANCH  10  18
HETATM   18  O4  UNL     1      -0.435 -78.256-143.703  1.00  0.00    -0.345 OA
ATOM     19  H4  UNL     1      -0.839 -77.730-143.023  1.00  0.00     0.219 HD
ENDBRANCH  10  18
BRANCH  15  20
HETATM   20  N5  UNL     1       2.933 -82.313-142.206  1.00  0.00    -0.333 N 
ATOM     21  H52 UNL     1       3.028 -82.553-141.220  1.00  0.00     0.177 HD
ATOM     22  H51 UNL     1       3.465 -82.825-142.910  1.00  0.00     0.177 HD
ENDBRANCH  15  20
ENDBRANCH   7   9
ENDBRANCH   6   7
ENDBRANCH   4   6
TORSDOF 5
ENDMDL
MODEL 2
REMARK VINA RESULT: -7.652459236      0.567      2.148
REMARK  5 active torsions:
REMARK  status: ('A' for Active; 'I' for Inactive)
REMARK       I    between atoms: N2_3  and  C2_4 
REMARK    1  A    between atoms: C2_4  and  O2_6 
REMARK    2  A    between atoms: O2_6  and  C3_7 
REMARK    3  A    between atoms: C3_7  and  C4_9 
REMARK    4  A    between atoms: C5_10  and  O4_11 
REMARK    5  A    between atoms: N4_17  and  N5_18 
ROOT
HETATM    1  N1  UNL     1       2.452 -75.396-149.444  1.00  0.00    -0.156 NA
HETATM    2  C1  UNL     1       2.740 -76.073-148.569  1.00  0.00     0.273 C 
HETATM    3  N2  UNL     1       3.023 -76.869-147.531  1.00  0.00    -0.265 NA
HETATM    4  C2  UNL     1       3.308 -77.674-146.482  1.00  0.00     0.458 C 
HETATM    5  O1  UNL     1       4.246 -78.323-146.075  1.00  0.00    -0.220 OA
ENDROOT
BRANCH   4   6
HETATM    6  O2  UNL     1       2.158 -77.821-145.539  1.00  0.00    -0.210 OA
BRANCH   6   7
HETATM    7  C3  UNL     1       1.525 -79.031-145.463  1.00  0.00     0.312 C 
HETATM    8  O3  UNL     1       0.937 -79.467-146.466  1.00  0.00    -0.258 OA
BRANCH   7   9
HETATM    9  C4  UNL     1       1.509 -79.845-144.239  1.00  0.00     0.160 A 
HETATM   10  C5  UNL     1       2.562 -80.690-143.993  1.00  0.00     0.164 A 
HETATM   11  N3  UNL     1       2.621 -81.432-142.890  1.00  0.00    -0.311 N 
HETATM   12  C6  UNL     1       1.599 -81.325-141.991  1.00  0.00     0.202 A 
ATOM     13  H3  UNL     1       3.406 -82.060-142.721  1.00  0.00     0.170 HD
HETATM   14  S1  UNL     1       1.739 -82.273-140.660  1.00  0.00    -0.038 SA
HETATM   15  N4  UNL     1       0.567 -80.522-142.195  1.00  0.00    -0.199 N 
HETATM   16  C7  UNL     1       0.504 -79.770-143.319  1.00  0.00     0.289 A 
HETATM   17  O5  UNL     1      -0.455 -78.981-143.569  1.00  0.00    -0.265 OA
BRANCH  10  18
HETATM   18  O4  UNL     1       3.583 -80.747-144.962  1.00  0.00    -0.345 OA
ATOM     19  H4  UNL     1       3.426 -80.304-145.788  1.00  0.00     0.219 HD
ENDBRANCH  10  18
BRANCH  15  20
HETATM   20  N5  UNL     1      -0.451 -80.445-141.265  1.00  0.00    -0.333 N 
ATOM     21  H52 UNL     1      -0.266 -80.693-140.293  1.00  0.00     0.177 HD
ATOM     22  H51 UNL     1      -1.384 -80.143-141.546  1.00  0.00     0.177 HD
ENDBRANCH  15  20
ENDBRANCH   7   9
ENDBRANCH   6   7
ENDBRANCH   4   6
TORSDOF 5
ENDMDL
MODEL 3
REMARK VINA RESULT: -7.431695110      0.888      1.148
REMARK  5 active torsions:
REMARK  status: ('A' for Active; 'I' for Inactive)
REMARK       I    between atoms: N2_3  and  C2_4 
REMARK    1  A    between atoms: C2_4  and  O2_6 
REMARK    2  A    between atoms: O2_6  and  C3_7 
REMARK    3  A    between atoms: C3_7  and  C4_9 
REMARK    4  A    between atoms: C5_10  and  O4_11 
REMARK    5  A    between atoms: N4_17  and  N5_18 
ROOT
HETATM    1  N1  UNL     1       3.050 -75.406-149.065  1.00  0.00    -0.156 NA
HETATM    2  C1  UNL     1       3.043 -76.493-148.712  1.00  0.00     0.273 C 
HETATM    3  N2  UNL     1       2.986 -77.756-148.272  1.00  0.00    -0.265 NA
HETATM    4  C2  UNL     1       2.927 -79.032-147.828  1.00  0.00     0.458 C 
HETATM    5  O1  UNL     1       3.476 -80.089-148.050  1.00  0.00    -0.220 OA
ENDROOT
BRANCH   4   6
HETATM    6  O2  UNL     1       1.905 -79.222-146.754  1.00  0.00    -0.210 OA
BRANCH   6   7
HETATM    7  C3  UNL     1       2.167 -78.725-145.506  1.00  0.00     0.312 C 
HETATM    8  O3  UNL     1       2.684 -77.601-145.402  1.00  0.00    -0.258 OA
BRANCH   7   9
HETATM    9  C4  UNL     1       1.862 -79.468-144.274  1.00  0.00     0.160 A 
HETATM   10  C5  UNL     1       0.789 -79.074-143.515  1.00  0.00     0.164 A 
HETATM   11  N3  UNL     1       0.443 -79.721-142.404  1.00  0.00    -0.311 N 
HETATM   12  C6  UNL     1       1.186 -80.807-142.038  1.00  0.00     0.202 A 
ATOM     13  H3  UNL     1      -0.353 -79.416-141.845  1.00  0.00     0.170 HD
HETATM   14  S1  UNL     1       0.703 -81.549-140.657  1.00  0.00    -0.038 SA
HETATM   15  N4  UNL     1       2.228 -81.214-142.745  1.00  0.00    -0.199 N 
HETATM   16  C7  UNL     1       2.583 -80.553-143.872  1.00  0.00     0.289 A 
HETATM   17  O5  UNL     1       3.567 -80.896-144.593  1.00  0.00    -0.265 OA
BRANCH  10  18
HETATM   18  O4  UNL     1       0.065 -77.948-143.954  1.00  0.00    -0.345 OA
ATOM     19  H4  UNL     1      -0.178 -77.303-143.299  1.00  0.00     0.219 HD
ENDBRANCH  10  18
BRANCH  15  20
HETATM   20  N5  UNL     1       2.959 -82.313-142.340  1.00  0.00    -0.333 N 
ATOM     21  H52 UNL     1       3.176 -82.438-141.351  1.00  0.00     0.177 HD
ATOM     22  H51 UNL     1       3.282 -82.998-143.023  1.00  0.00     0.177 HD
ENDBRANCH  15  20
ENDBRANCH   7   9
ENDBRANCH   6   7
ENDBRANCH   4   6
TORSDOF 5
ENDMDL
MODEL 4
REMARK VINA RESULT: -7.245542025      2.203      2.891
REMARK  5 active torsions:
REMARK  status: ('A' for Active; 'I' for Inactive)
REMARK       I    between atoms: N2_3  and  C2_4 
REMARK    1  A    between atoms: C2_4  and  O2_6 
REMARK    2  A    between atoms: O2_6  and  C3_7 
REMARK    3  A    between atoms: C3_7  and  C4_9 
REMARK    4  A    between atoms: C5_10  and  O4_11 
REMARK    5  A    between atoms: N4_17  and  N5_18 
ROOT
HETATM    1  N1  UNL     1      -2.824 -78.511-146.822  1.00  0.00    -0.156 NA
HETATM    2  C1  UNL     1      -1.842 -79.097-146.838  1.00  0.00     0.273 C 
HETATM    3  N2  UNL     1      -0.666 -79.735-146.843  1.00  0.00    -0.265 NA
HETATM    4  C2  UNL     1       0.523 -80.380-146.846  1.00  0.00     0.458 C 
HETATM    5  O1  UNL     1       0.928 -81.521-146.887  1.00  0.00    -0.220 OA
ENDROOT
BRANCH   4   6
HETATM    6  O2  UNL     1       1.686 -79.444-146.787  1.00  0.00    -0.210 OA
BRANCH   6   7
HETATM    7  C3  UNL     1       2.019 -78.890-145.581  1.00  0.00     0.312 C 
HETATM    8  O3  UNL     1       2.569 -77.778-145.561  1.00  0.00    -0.258 OA
BRANCH   7   9
HETATM    9  C4  UNL     1       1.753 -79.559-144.298  1.00  0.00     0.160 A 
HETATM   10  C5  UNL     1       0.681 -79.145-143.548  1.00  0.00     0.164 A 
HETATM   11  N3  UNL     1       0.370 -79.727-142.393  1.00  0.00    -0.311 N 
HETATM   12  C6  UNL     1       1.148 -80.766-141.968  1.00  0.00     0.202 A 
ATOM     13  H3  UNL     1      -0.426 -79.407-141.841  1.00  0.00     0.170 HD
HETATM   14  S1  UNL     1       0.706 -81.428-140.535  1.00  0.00    -0.038 SA
HETATM   15  N4  UNL     1       2.190 -81.191-142.665  1.00  0.00    -0.199 N 
HETATM   16  C7  UNL     1       2.510 -80.596-143.839  1.00  0.00     0.289 A 
HETATM   17  O5  UNL     1       3.492 -80.959-144.552  1.00  0.00    -0.265 OA
BRANCH  10  18
HETATM   18  O4  UNL     1      -0.081 -78.070-144.048  1.00  0.00    -0.345 OA
ATOM     19  H4  UNL     1       0.369 -77.431-144.589  1.00  0.00     0.219 HD
ENDBRANCH  10  18
BRANCH  15  20
HETATM   20  N5  UNL     1       2.957 -82.241-142.201  1.00  0.00    -0.333 N 
ATOM     21  H52 UNL     1       2.561 -82.896-141.527  1.00  0.00     0.177 HD
ATOM     22  H51 UNL     1       3.916 -82.363-142.528  1.00  0.00     0.177 HD
ENDBRANCH  15  20
ENDBRANCH   7   9
ENDBRANCH   6   7
ENDBRANCH   4   6
TORSDOF 5
ENDMDL
MODEL 5
REMARK VINA RESULT: -7.221336395      2.972      5.786
REMARK  5 active torsions:
REMARK  status: ('A' for Active; 'I' for Inactive)
REMARK       I    between atoms: N2_3  and  C2_4 
REMARK    1  A    between atoms: C2_4  and  O2_6 
REMARK    2  A    between atoms: O2_6  and  C3_7 
REMARK    3  A    between atoms: C3_7  and  C4_9 
REMARK    4  A    between atoms: C5_10  and  O4_11 
REMARK    5  A    between atoms: N4_17  and  N5_18 
ROOT
HETATM    1  N1  UNL     1      -0.143 -79.143-141.936  1.00  0.00    -0.156 NA
HETATM    2  C1  UNL     1       0.680 -79.882-142.226  1.00  0.00     0.273 C 
HETATM    3  N2  UNL     1       1.661 -80.710-142.602  1.00  0.00    -0.265 NA
HETATM    4  C2  UNL     1       2.654 -81.546-142.983  1.00  0.00     0.458 C 
HETATM    5  O1  UNL     1       3.173 -82.566-142.586  1.00  0.00    -0.220 OA
ENDROOT
BRANCH   4   6
HETATM    6  O2  UNL     1       3.315 -81.116-144.252  1.00  0.00    -0.210 OA
BRANCH   6   7
HETATM    7  C3  UNL     1       2.527 -80.759-145.312  1.00  0.00     0.312 C 
HETATM    8  O3  UNL     1       1.544 -81.462-145.594  1.00  0.00    -0.258 OA
BRANCH   7   9
HETATM    9  C4  UNL     1       2.796 -79.573-146.138  1.00  0.00     0.160 A 
HETATM   10  C5  UNL     1       2.488 -78.334-145.633  1.00  0.00     0.164 A 
HETATM   11  N3  UNL     1       2.732 -77.219-146.319  1.00  0.00    -0.311 N 
HETATM   12  C6  UNL     1       3.311 -77.338-147.550  1.00  0.00     0.202 A 
ATOM     13  H3  UNL     1       2.493 -76.305-145.936  1.00  0.00     0.170 HD
HETATM   14  S1  UNL     1       3.575 -75.923-148.335  1.00  0.00    -0.038 SA
HETATM   15  N4  UNL     1       3.619 -78.516-148.069  1.00  0.00    -0.199 N 
HETATM   16  C7  UNL     1       3.368 -79.650-147.373  1.00  0.00     0.289 A 
HETATM   17  O5  UNL     1       3.644 -80.806-147.814  1.00  0.00    -0.265 OA
BRANCH  10  18
HETATM   18  O4  UNL     1       1.896 -78.286-144.356  1.00  0.00    -0.345 OA
ATOM     19  H4  UNL     1       1.589 -79.106-143.986  1.00  0.00     0.219 HD
ENDBRANCH  10  18
BRANCH  15  20
HETATM   20  N5  UNL     1       4.199 -78.596-149.319  1.00  0.00    -0.333 N 
ATOM     21  H52 UNL     1       5.214 -78.654-149.402  1.00  0.00     0.177 HD
ATOM     22  H51 UNL     1       3.618 -78.599-150.157  1.00  0.00     0.177 HD
ENDBRANCH  15  20
ENDBRANCH   7   9
ENDBRANCH   6   7
ENDBRANCH   4   6
TORSDOF 5
ENDMDL
