MODEL 1
REMARK VINA RESULT: -6.752790226      0.000      0.000
REMARK  4 active torsions:
REMARK  status: ('A' for Active; 'I' for Inactive)
REMARK    1  A    between atoms: N1_2  and  C3_4 
REMARK    2  A    between atoms: C4_7  and  O1_8 
REMARK    3  A    between atoms: O1_8  and  C5_9 
REMARK       I    between atoms: C5_9  and  N3_11 
REMARK    4  A    between atoms: N3_11  and  N4_13 
ROOT
HETATM    1  C3  UNL     1       1.082 -79.530-144.204  1.00  0.00     0.137 A 
HETATM    2  N2  UNL     1       1.805 -79.240-145.303  1.00  0.00    -0.306 N 
ATOM      3  H2  UNL     1       1.427 -78.553-145.956  1.00  0.00     0.171 HD
HETATM    4  C4  UNL     1       2.979 -79.790-145.590  1.00  0.00     0.235 A 
HETATM    5  N5  UNL     1       3.470 -80.689-144.729  1.00  0.00    -0.305 N 
ATOM      6  H5  UNL     1       4.371 -81.121-144.934  1.00  0.00     0.171 HD
HETATM    7  C6  UNL     1       2.829 -81.045-143.612  1.00  0.00     0.155 A 
HETATM    8  N6  UNL     1       3.098 -81.908-142.619  1.00  0.00    -0.174 N 
ATOM      9  H6  UNL     1       3.932 -82.491-142.545  1.00  0.00     0.186 HD
HETATM   10  C7  UNL     1       2.092 -81.874-141.747  1.00  0.00     0.680 A 
HETATM   11  N7  UNL     1       1.992 -82.560-140.669  1.00  0.00    -0.234 N 
ATOM     12  H71 UNL     1       1.221 -82.535-140.001  1.00  0.00     0.174 HD
ATOM     13  H72 UNL     1       2.700 -83.226-140.360  1.00  0.00     0.174 HD
HETATM   14  N8  UNL     1       1.143 -80.982-142.161  1.00  0.00    -0.180 N 
HETATM   15  C8  UNL     1      -0.095 -80.689-141.483  1.00  0.00     0.176 C 
HETATM   16  C9  UNL     1       1.582 -80.454-143.318  1.00  0.00     0.139 A 
ENDROOT
BRANCH   4  17
HETATM   17  O1  UNL     1       3.684 -79.439-146.760  1.00  0.00    -0.227 OA
BRANCH  17  18
HETATM   18  C5  UNL     1       3.298 -78.270-147.403  1.00  0.00     0.386 C 
HETATM   19  O2  UNL     1       2.958 -78.340-148.623  1.00  0.00    -0.236 OA
HETATM   20  N3  UNL     1       3.267 -77.014-146.756  1.00  0.00    -0.252 N 
ATOM     21  H3  UNL     1       3.536 -76.937-145.775  1.00  0.00     0.191 HD
BRANCH  20  22
HETATM   22  N4  UNL     1       2.869 -75.885-147.461  1.00  0.00    -0.341 N 
ATOM     23  H42 UNL     1       1.891 -75.789-147.736  1.00  0.00     0.177 HD
ATOM     24  H41 UNL     1       3.554 -75.168-147.696  1.00  0.00     0.177 HD
ENDBRANCH  20  22
ENDBRANCH  17  18
ENDBRANCH   4  17
BRANCH   1  25
HETATM   25  N1  UNL     1      -0.139 -78.854-143.977  1.00  0.00    -0.374 N 
HETATM   26  C1  UNL     1      -1.416 -79.261-144.506  1.00  0.00     0.150 C 
HETATM   27  C2  UNL     1      -0.107 -77.676-143.123  1.00  0.00     0.150 C 
ENDBRANCH   1  25
TORSDOF 4
ENDMDL
MODEL 2
REMARK VINA RESULT: -6.626186902      1.413      1.721
REMARK  4 active torsions:
REMARK  status: ('A' for Active; 'I' for Inactive)
REMARK    1  A    between atoms: N1_2  and  C3_4 
REMARK    2  A    between atoms: C4_7  and  O1_8 
REMARK    3  A    between atoms: O1_8  and  C5_9 
REMARK       I    between atoms: C5_9  and  N3_11 
REMARK    4  A    between atoms: N3_11  and  N4_13 
ROOT
HETATM    1  C3  UNL     1       0.599 -78.845-145.139  1.00  0.00     0.137 A 
HETATM    2  N2  UNL     1       1.593 -78.436-145.953  1.00  0.00    -0.306 N 
ATOM      3  H2  UNL     1       1.337 -77.985-146.831  1.00  0.00     0.171 HD
HETATM    4  C4  UNL     1       2.885 -78.581-145.682  1.00  0.00     0.235 A 
HETATM    5  N5  UNL     1       3.215 -79.172-144.527  1.00  0.00    -0.305 N 
ATOM      6  H5  UNL     1       4.203 -79.291-144.304  1.00  0.00     0.171 HD
HETATM    7  C6  UNL     1       2.304 -79.613-143.655  1.00  0.00     0.155 A 
HETATM    8  N6  UNL     1       2.377 -80.231-142.466  1.00  0.00    -0.174 N 
ATOM      9  H6  UNL     1       3.236 -80.487-141.978  1.00  0.00     0.186 HD
HETATM   10  C7  UNL     1       1.138 -80.455-142.030  1.00  0.00     0.680 A 
HETATM   11  N7  UNL     1       0.806 -81.026-140.931  1.00  0.00    -0.234 N 
ATOM     12  H71 UNL     1      -0.143 -81.197-140.598  1.00  0.00     0.174 HD
ATOM     13  H72 UNL     1       1.483 -81.378-140.255  1.00  0.00     0.174 HD
HETATM   14  N8  UNL     1       0.230 -79.982-142.937  1.00  0.00    -0.180 N 
HETATM   15  C8  UNL     1      -1.204 -80.061-142.817  1.00  0.00     0.176 C 
HETATM   16  C9  UNL     1       0.934 -79.453-143.954  1.00  0.00     0.139 A 
ENDROOT
BRANCH   4  17
HETATM   17  O1  UNL     1       3.874 -78.128-146.579  1.00  0.00    -0.227 OA
BRANCH  17  18
HETATM   18  C5  UNL     1       3.437 -77.521-147.748  1.00  0.00     0.386 C 
HETATM   19  O2  UNL     1       3.151 -78.259-148.739  1.00  0.00    -0.236 OA
HETATM   20  N3  UNL     1       3.296 -76.120-147.877  1.00  0.00    -0.252 N 
ATOM     21  H3  UNL     1       3.521 -75.509-147.092  1.00  0.00     0.191 HD
BRANCH  20  22
HETATM   22  N4  UNL     1       2.851 -75.580-149.078  1.00  0.00    -0.341 N 
ATOM     23  H42 UNL     1       2.372 -76.182-149.747  1.00  0.00     0.177 HD
ATOM     24  H41 UNL     1       3.008 -74.592-149.277  1.00  0.00     0.177 HD
ENDBRANCH  20  22
ENDBRANCH  17  18
ENDBRANCH   4  17
BRANCH   1  25
HETATM   25  N1  UNL     1      -0.744 -78.603-145.509  1.00  0.00    -0.374 N 
HETATM   26  C1  UNL     1      -1.454 -77.372-145.272  1.00  0.00     0.150 C 
HETATM   27  C2  UNL     1      -1.452 -79.668-146.204  1.00  0.00     0.150 C 
ENDBRANCH   1  25
TORSDOF 4
ENDMDL
MODEL 3
REMARK VINA RESULT: -6.585807048      1.724      2.216
REMARK  4 active torsions:
REMARK  status: ('A' for Active; 'I' for Inactive)
REMARK    1  A    between atoms: N1_2  and  C3_4 
REMARK    2  A    between atoms: C4_7  and  O1_8 
REMARK    3  A    between atoms: O1_8  and  C5_9 
REMARK       I    between atoms: C5_9  and  N3_11 
REMARK    4  A    between atoms: N3_11  and  N4_13 
ROOT
HETATM    1  C3  UNL     1       0.256 -78.791-145.120  1.00  0.00     0.137 A 
HETATM    2  N2  UNL     1       1.351 -78.442-145.824  1.00  0.00    -0.306 N 
ATOM      3  H2  UNL     1       1.213 -78.011-146.739  1.00  0.00     0.171 HD
HETATM    4  C4  UNL     1       2.597 -78.624-145.404  1.00  0.00     0.235 A 
HETATM    5  N5  UNL     1       2.771 -79.190-144.203  1.00  0.00    -0.305 N 
ATOM      6  H5  UNL     1       3.722 -79.335-143.865  1.00  0.00     0.171 HD
HETATM    7  C6  UNL     1       1.750 -79.571-143.429  1.00  0.00     0.155 A 
HETATM    8  N6  UNL     1       1.665 -80.155-142.224  1.00  0.00    -0.174 N 
ATOM      9  H6  UNL     1       2.452 -80.424-141.634  1.00  0.00     0.186 HD
HETATM   10  C7  UNL     1       0.377 -80.322-141.927  1.00  0.00     0.680 A 
HETATM   11  N7  UNL     1      -0.099 -80.846-140.858  1.00  0.00    -0.234 N 
ATOM     12  H71 UNL     1      -1.085 -80.974-140.631  1.00  0.00     0.174 HD
ATOM     13  H72 UNL     1       0.483 -81.201-140.100  1.00  0.00     0.174 HD
HETATM   14  N8  UNL     1      -0.404 -79.847-142.944  1.00  0.00    -0.180 N 
HETATM   15  C8  UNL     1      -1.844 -79.872-142.987  1.00  0.00     0.176 C 
HETATM   16  C9  UNL     1       0.431 -79.373-143.888  1.00  0.00     0.139 A 
ENDROOT
BRANCH   4  17
HETATM   17  O1  UNL     1       3.698 -78.233-146.194  1.00  0.00    -0.227 OA
BRANCH  17  18
HETATM   18  C5  UNL     1       3.748 -78.720-147.493  1.00  0.00     0.386 C 
HETATM   19  O2  UNL     1       3.291 -79.881-147.718  1.00  0.00    -0.236 OA
HETATM   20  N3  UNL     1       4.283 -77.975-148.569  1.00  0.00    -0.252 N 
ATOM     21  H3  UNL     1       4.654 -77.039-148.409  1.00  0.00     0.191 HD
BRANCH  20  22
HETATM   22  N4  UNL     1       4.299 -78.525-149.846  1.00  0.00    -0.341 N 
ATOM     23  H42 UNL     1       4.812 -79.392-150.008  1.00  0.00     0.177 HD
ATOM     24  H41 UNL     1       3.801 -78.058-150.603  1.00  0.00     0.177 HD
ENDBRANCH  20  22
ENDBRANCH  17  18
ENDBRANCH   4  17
BRANCH   1  25
HETATM   25  N1  UNL     1      -1.026 -78.515-145.647  1.00  0.00    -0.374 N 
HETATM   26  C1  UNL     1      -1.700 -77.245-145.552  1.00  0.00     0.150 C 
HETATM   27  C2  UNL     1      -1.705 -79.586-146.362  1.00  0.00     0.150 C 
ENDBRANCH   1  25
TORSDOF 4
ENDMDL
MODEL 4
REMARK VINA RESULT: -6.574297572      2.583      4.146
REMARK  4 active torsions:
REMARK  status: ('A' for Active; 'I' for Inactive)
REMARK    1  A    between atoms: N1_2  and  C3_4 
REMARK    2  A    between atoms: C4_7  and  O1_8 
REMARK    3  A    between atoms: O1_8  and  C5_9 
REMARK       I    between atoms: C5_9  and  N3_11 
REMARK    4  A    between atoms: N3_11  and  N4_13 
ROOT
HETATM    1  C3  UNL     1       1.441 -79.427-144.898  1.00  0.00     0.137 A 
HETATM    2  N2  UNL     1       0.572 -78.487-145.320  1.00  0.00    -0.306 N 
ATOM      3  H2  UNL     1       0.712 -78.089-146.249  1.00  0.00     0.171 HD
HETATM    4  C4  UNL     1      -0.455 -78.046-144.604  1.00  0.00     0.235 A 
HETATM    5  N5  UNL     1      -0.634 -78.572-143.386  1.00  0.00    -0.305 N 
ATOM      6  H5  UNL     1      -1.419 -78.245-142.823  1.00  0.00     0.171 HD
HETATM    7  C6  UNL     1       0.173 -79.509-142.877  1.00  0.00     0.155 A 
HETATM    8  N6  UNL     1       0.211 -80.170-141.710  1.00  0.00    -0.174 N 
ATOM      9  H6  UNL     1      -0.447 -80.057-140.939  1.00  0.00     0.186 HD
HETATM   10  C7  UNL     1       1.255 -80.998-141.728  1.00  0.00     0.680 A 
HETATM   11  N7  UNL     1       1.615 -81.793-140.790  1.00  0.00    -0.234 N 
ATOM     12  H71 UNL     1       2.414 -82.427-140.804  1.00  0.00     0.174 HD
ATOM     13  H72 UNL     1       1.119 -81.875-139.902  1.00  0.00     0.174 HD
HETATM   14  N8  UNL     1       1.919 -80.888-142.918  1.00  0.00    -0.180 N 
HETATM   15  C8  UNL     1       3.106 -81.614-143.294  1.00  0.00     0.176 C 
HETATM   16  C9  UNL     1       1.261 -79.968-143.649  1.00  0.00     0.139 A 
ENDROOT
BRANCH   4  17
HETATM   17  O1  UNL     1      -1.328 -77.060-145.108  1.00  0.00    -0.227 OA
BRANCH  17  18
HETATM   18  C5  UNL     1      -1.979 -77.343-146.301  1.00  0.00     0.386 C 
HETATM   19  O2  UNL     1      -2.079 -76.420-147.165  1.00  0.00    -0.236 OA
HETATM   20  N3  UNL     1      -2.532 -78.612-146.589  1.00  0.00    -0.252 N 
ATOM     21  H3  UNL     1      -2.462 -79.367-145.908  1.00  0.00     0.191 HD
BRANCH  20  22
HETATM   22  N4  UNL     1      -3.170 -78.825-147.805  1.00  0.00    -0.341 N 
ATOM     23  H42 UNL     1      -3.278 -79.779-148.149  1.00  0.00     0.177 HD
ATOM     24  H41 UNL     1      -3.522 -78.029-148.337  1.00  0.00     0.177 HD
ENDBRANCH  20  22
ENDBRANCH  17  18
ENDBRANCH   4  17
BRANCH   1  25
HETATM   25  N1  UNL     1       2.478 -79.851-145.760  1.00  0.00    -0.374 N 
HETATM   26  C1  UNL     1       3.834 -79.364-145.719  1.00  0.00     0.150 C 
HETATM   27  C2  UNL     1       2.159 -80.876-146.743  1.00  0.00     0.150 C 
ENDBRANCH   1  25
TORSDOF 4
ENDMDL
MODEL 5
REMARK VINA RESULT: -6.571133634      2.808      3.993
REMARK  4 active torsions:
REMARK  status: ('A' for Active; 'I' for Inactive)
REMARK    1  A    between atoms: N1_2  and  C3_4 
REMARK    2  A    between atoms: C4_7  and  O1_8 
REMARK    3  A    between atoms: O1_8  and  C5_9 
REMARK       I    between atoms: C5_9  and  N3_11 
REMARK    4  A    between atoms: N3_11  and  N4_13 
ROOT
HETATM    1  C3  UNL     1       1.105 -79.076-145.181  1.00  0.00     0.137 A 
HETATM    2  N2  UNL     1       0.115 -78.194-145.423  1.00  0.00    -0.306 N 
ATOM      3  H2  UNL     1       0.111 -77.715-146.324  1.00  0.00     0.171 HD
HETATM    4  C4  UNL     1      -0.856 -77.909-144.563  1.00  0.00     0.235 A 
HETATM    5  N5  UNL     1      -0.845 -78.541-143.383  1.00  0.00    -0.305 N 
ATOM      6  H5  UNL     1      -1.584 -78.334-142.711  1.00  0.00     0.171 HD
HETATM    7  C6  UNL     1       0.094 -79.432-143.048  1.00  0.00     0.155 A 
HETATM    8  N6  UNL     1       0.325 -80.173-141.953  1.00  0.00    -0.174 N 
ATOM      9  H6  UNL     1      -0.246 -80.182-141.108  1.00  0.00     0.186 HD
HETATM   10  C7  UNL     1       1.427 -80.893-142.157  1.00  0.00     0.680 A 
HETATM   11  N7  UNL     1       1.961 -81.720-141.336  1.00  0.00    -0.234 N 
ATOM     12  H71 UNL     1       2.805 -82.272-141.492  1.00  0.00     0.174 HD
ATOM     13  H72 UNL     1       1.582 -81.916-140.410  1.00  0.00     0.174 HD
HETATM   14  N8  UNL     1       1.935 -80.630-143.399  1.00  0.00    -0.180 N 
HETATM   15  C8  UNL     1       3.128 -81.209-143.963  1.00  0.00     0.176 C 
HETATM   16  C9  UNL     1       1.120 -79.726-143.971  1.00  0.00     0.139 A 
ENDROOT
BRANCH   4  17
HETATM   17  O1  UNL     1      -1.863 -76.975-144.882  1.00  0.00    -0.227 OA
BRANCH  17  18
HETATM   18  C5  UNL     1      -2.012 -76.639-146.221  1.00  0.00     0.386 C 
HETATM   19  O2  UNL     1      -2.285 -77.562-147.045  1.00  0.00    -0.236 OA
HETATM   20  N3  UNL     1      -1.873 -75.315-146.697  1.00  0.00    -0.252 N 
ATOM     21  H3  UNL     1      -1.653 -74.558-146.050  1.00  0.00     0.191 HD
BRANCH  20  22
HETATM   22  N4  UNL     1      -2.036 -75.050-148.052  1.00  0.00    -0.341 N 
ATOM     23  H42 UNL     1      -2.509 -75.737-148.640  1.00  0.00     0.177 HD
ATOM     24  H41 UNL     1      -1.684 -74.177-148.442  1.00  0.00     0.177 HD
ENDBRANCH  20  22
ENDBRANCH  17  18
ENDBRANCH   4  17
BRANCH   1  25
HETATM   25  N1  UNL     1       2.067 -79.333-146.185  1.00  0.00    -0.374 N 
HETATM   26  C1  UNL     1       1.979 -80.392-147.158  1.00  0.00     0.150 C 
HETATM   27  C2  UNL     1       3.217 -78.443-146.258  1.00  0.00     0.150 C 
ENDBRANCH   1  25
TORSDOF 4
ENDMDL
