MODEL 1
REMARK VINA RESULT: -8.359251899      0.000      0.000
REMARK  5 active torsions:
REMARK  status: ('A' for Active; 'I' for Inactive)
REMARK    1  A    between atoms: O1_2  and  C2_3 
REMARK    2  A    between atoms: C2_3  and  C3_5 
REMARK    3  A    between atoms: C6_9  and  N2_10 
REMARK    4  A    between atoms: N4_15  and  C7_16 
REMARK    5  A    between atoms: C11_24  and  O3_25 
ROOT
HETATM    1  C3  UNL     1       0.813 -79.777-145.260  1.00  0.00     0.174 A 
HETATM    2  C4  UNL     1       0.765 -80.394-144.032  1.00  0.00     0.124 A 
HETATM    3  C5  UNL     1      -0.267 -80.331-143.037  1.00  0.00     0.106 C 
HETATM    4  N1  UNL     1      -1.102 -80.267-142.240  1.00  0.00    -0.191 NA
HETATM    5  C6  UNL     1       1.927 -81.118-143.913  1.00  0.00     0.138 A 
HETATM    6  N3  UNL     1       2.642 -80.947-145.013  1.00  0.00    -0.263 N 
ATOM      7  H3  UNL     1       3.553 -81.365-145.203  1.00  0.00     0.190 HD
HETATM    8  N4  UNL     1       1.978 -80.145-145.821  1.00  0.00    -0.076 N 
ENDROOT
BRANCH   1   9
HETATM    9  C2  UNL     1      -0.209 -78.898-145.828  1.00  0.00     0.314 C 
HETATM   10  O2  UNL     1      -0.560 -77.830-145.276  1.00  0.00    -0.257 OA
BRANCH   9  11
HETATM   11  O1  UNL     1      -0.813 -79.245-147.007  1.00  0.00    -0.321 OA
HETATM   12  C1  UNL     1      -2.178 -79.583-147.140  1.00  0.00     0.213 C 
ENDBRANCH   9  11
ENDBRANCH   1   9
BRANCH   5  13
HETATM   13  N2  UNL     1       2.307 -81.859-142.911  1.00  0.00    -0.383 N 
ATOM     14  H22 UNL     1       1.765 -81.976-142.055  1.00  0.00     0.157 HD
ATOM     15  H21 UNL     1       3.161 -82.410-142.830  1.00  0.00     0.157 HD
ENDBRANCH   5  13
BRANCH   8  16
HETATM   16  C7  UNL     1       2.417 -79.717-147.110  1.00  0.00     0.715 C 
HETATM   17  N5  UNL     1       3.274 -80.362-147.825  1.00  0.00    -0.135 N 
HETATM   18  N6  UNL     1       3.690 -79.930-149.080  1.00  0.00    -0.320 N 
ATOM     19  H5  UNL     1       3.665 -81.227-147.453  1.00  0.00     0.205 HD
HETATM   20  C8  UNL     1       2.940 -78.895-149.742  1.00  0.00     0.174 C 
ATOM     21  H6  UNL     1       4.513 -80.340-149.523  1.00  0.00     0.180 HD
HETATM   22  C9  UNL     1       2.545 -77.865-148.734  1.00  0.00     0.093 A 
HETATM   23  C10 UNL     1       3.505 -76.760-148.494  1.00  0.00     0.070 A 
HETATM   24  C11 UNL     1       2.169 -76.485-149.109  1.00  0.00     0.151 A 
HETATM   25  N7  UNL     1       1.876 -78.513-147.633  1.00  0.00    -0.209 N 
ATOM     26  H7  UNL     1       1.027 -78.112-147.235  1.00  0.00     0.178 HD
BRANCH  24  27
HETATM   27  O3  UNL     1       2.053 -76.218-150.452  1.00  0.00    -0.393 OA
ATOM     28  H3  UNL     1       1.989 -75.304-150.703  1.00  0.00     0.210 HD
ENDBRANCH  24  27
ENDBRANCH   8  16
TORSDOF 5
ENDMDL
MODEL 2
REMARK VINA RESULT: -8.215725102      2.265      2.922
REMARK  5 active torsions:
REMARK  status: ('A' for Active; 'I' for Inactive)
REMARK    1  A    between atoms: O1_2  and  C2_3 
REMARK    2  A    between atoms: C2_3  and  C3_5 
REMARK    3  A    between atoms: C6_9  and  N2_10 
REMARK    4  A    between atoms: N4_15  and  C7_16 
REMARK    5  A    between atoms: C11_24  and  O3_25 
ROOT
HETATM    1  C3  UNL     1       0.279 -80.606-143.264  1.00  0.00     0.174 A 
HETATM    2  C4  UNL     1      -0.013 -81.447-142.215  1.00  0.00     0.124 A 
HETATM    3  C5  UNL     1      -1.203 -81.505-141.417  1.00  0.00     0.106 C 
HETATM    4  N1  UNL     1      -2.164 -81.538-140.776  1.00  0.00    -0.191 NA
HETATM    5  C6  UNL     1       1.081 -82.263-142.054  1.00  0.00     0.138 A 
HETATM    6  N3  UNL     1       1.988 -81.933-142.959  1.00  0.00    -0.263 N 
ATOM      7  H3  UNL     1       2.902 -82.371-143.076  1.00  0.00     0.190 HD
HETATM    8  N4  UNL     1       1.511 -80.940-143.685  1.00  0.00    -0.076 N 
ENDROOT
BRANCH   1   9
HETATM    9  C2  UNL     1      -0.591 -79.560-143.801  1.00  0.00     0.314 C 
HETATM   10  O2  UNL     1      -0.768 -78.466-143.217  1.00  0.00    -0.257 OA
BRANCH   9  11
HETATM   11  O1  UNL     1      -1.241 -79.772-144.987  1.00  0.00    -0.321 OA
HETATM   12  C1  UNL     1      -1.076 -78.980-146.146  1.00  0.00     0.213 C 
ENDBRANCH   9  11
ENDBRANCH   1   9
BRANCH   5  13
HETATM   13  N2  UNL     1       1.247 -83.213-141.178  1.00  0.00    -0.383 N 
ATOM     14  H22 UNL     1       1.801 -83.109-140.328  1.00  0.00     0.157 HD
ATOM     15  H21 UNL     1       0.869 -84.160-141.204  1.00  0.00     0.157 HD
ENDBRANCH   5  13
BRANCH   8  16
HETATM   16  C7  UNL     1       2.190 -80.301-144.765  1.00  0.00     0.715 C 
HETATM   17  N5  UNL     1       2.588 -79.075-144.735  1.00  0.00    -0.135 N 
HETATM   18  N6  UNL     1       3.249 -78.468-145.797  1.00  0.00    -0.320 N 
ATOM     19  H5  UNL     1       2.411 -78.527-143.894  1.00  0.00     0.205 HD
HETATM   20  C8  UNL     1       3.771 -79.295-146.854  1.00  0.00     0.174 C 
ATOM     21  H6  UNL     1       3.362 -77.455-145.827  1.00  0.00     0.180 HD
HETATM   22  C9  UNL     1       2.780 -80.372-147.159  1.00  0.00     0.093 A 
HETATM   23  C10 UNL     1       1.739 -80.057-148.168  1.00  0.00     0.070 A 
HETATM   24  C11 UNL     1       2.770 -81.107-148.441  1.00  0.00     0.151 A 
HETATM   25  N7  UNL     1       2.439 -81.060-145.938  1.00  0.00    -0.209 N 
ATOM     26  H7  UNL     1       2.378 -82.078-145.918  1.00  0.00     0.178 HD
BRANCH  24  27
HETATM   27  O3  UNL     1       3.812 -80.863-149.303  1.00  0.00    -0.393 OA
ATOM     28  H3  UNL     1       4.567 -80.412-148.945  1.00  0.00     0.210 HD
ENDBRANCH  24  27
ENDBRANCH   8  16
TORSDOF 5
ENDMDL
MODEL 3
REMARK VINA RESULT: -8.102920306      3.425      4.969
REMARK  5 active torsions:
REMARK  status: ('A' for Active; 'I' for Inactive)
REMARK    1  A    between atoms: O1_2  and  C2_3 
REMARK    2  A    between atoms: C2_3  and  C3_5 
REMARK    3  A    between atoms: C6_9  and  N2_10 
REMARK    4  A    between atoms: N4_15  and  C7_16 
REMARK    5  A    between atoms: C11_24  and  O3_25 
ROOT
HETATM    1  C3  UNL     1      -0.614 -79.227-145.945  1.00  0.00     0.174 A 
HETATM    2  C4  UNL     1      -0.215 -79.681-144.710  1.00  0.00     0.124 A 
HETATM    3  C5  UNL     1       1.015 -80.323-144.345  1.00  0.00     0.106 C 
HETATM    4  N1  UNL     1       2.007 -80.846-144.065  1.00  0.00    -0.191 NA
HETATM    5  C6  UNL     1      -1.242 -79.400-143.841  1.00  0.00     0.138 A 
HETATM    6  N3  UNL     1      -2.212 -78.807-144.516  1.00  0.00    -0.263 N 
ATOM      7  H3  UNL     1      -3.099 -78.485-144.128  1.00  0.00     0.190 HD
HETATM    8  N4  UNL     1      -1.839 -78.702-145.776  1.00  0.00    -0.076 N 
ENDROOT
BRANCH   1   9
HETATM    9  C2  UNL     1       0.156 -79.308-147.186  1.00  0.00     0.314 C 
HETATM   10  O2  UNL     1      -0.059 -80.184-148.055  1.00  0.00    -0.257 OA
BRANCH   9  11
HETATM   11  O1  UNL     1       1.151 -78.397-147.420  1.00  0.00    -0.321 OA
HETATM   12  C1  UNL     1       2.532 -78.685-147.362  1.00  0.00     0.213 C 
ENDBRANCH   9  11
ENDBRANCH   1   9
BRANCH   5  13
HETATM   13  N2  UNL     1      -1.300 -79.653-142.564  1.00  0.00    -0.383 N 
ATOM     14  H22 UNL     1      -0.755 -79.152-141.862  1.00  0.00     0.157 HD
ATOM     15  H21 UNL     1      -1.868 -80.355-142.091  1.00  0.00     0.157 HD
ENDBRANCH   5  13
BRANCH   8  16
HETATM   16  C7  UNL     1      -2.613 -78.119-146.824  1.00  0.00     0.715 C 
HETATM   17  N5  UNL     1      -3.074 -78.782-147.828  1.00  0.00    -0.135 N 
HETATM   18  N6  UNL     1      -3.826 -78.197-148.841  1.00  0.00    -0.320 N 
ATOM     19  H5  UNL     1      -2.878 -79.782-147.882  1.00  0.00     0.205 HD
HETATM   20  C8  UNL     1      -4.363 -76.877-148.634  1.00  0.00     0.174 C 
ATOM     21  H6  UNL     1      -3.995 -78.694-149.716  1.00  0.00     0.180 HD
HETATM   22  C9  UNL     1      -3.335 -76.041-147.942  1.00  0.00     0.093 A 
HETATM   23  C10 UNL     1      -2.372 -75.314-148.805  1.00  0.00     0.070 A 
HETATM   24  C11 UNL     1      -3.359 -74.564-147.968  1.00  0.00     0.151 A 
HETATM   25  N7  UNL     1      -2.888 -76.728-146.755  1.00  0.00    -0.209 N 
ATOM     26  H7  UNL     1      -2.772 -76.221-145.877  1.00  0.00     0.178 HD
BRANCH  24  27
HETATM   27  O3  UNL     1      -4.461 -73.972-148.538  1.00  0.00    -0.393 OA
ATOM     28  H3  UNL     1      -4.305 -73.200-149.070  1.00  0.00     0.210 HD
ENDBRANCH  24  27
ENDBRANCH   8  16
TORSDOF 5
ENDMDL
MODEL 4
REMARK VINA RESULT: -8.067986237      7.538     11.153
REMARK  5 active torsions:
REMARK  status: ('A' for Active; 'I' for Inactive)
REMARK    1  A    between atoms: O1_2  and  C2_3 
REMARK    2  A    between atoms: C2_3  and  C3_5 
REMARK    3  A    between atoms: C6_9  and  N2_10 
REMARK    4  A    between atoms: N4_15  and  C7_16 
REMARK    5  A    between atoms: C11_24  and  O3_25 
ROOT
HETATM    1  C3  UNL     1      -2.772 -84.124-140.879  1.00  0.00     0.174 A 
HETATM    2  C4  UNL     1      -1.716 -83.333-141.266  1.00  0.00     0.124 A 
HETATM    3  C5  UNL     1      -1.714 -81.934-141.584  1.00  0.00     0.106 C 
HETATM    4  N1  UNL     1      -1.727 -80.808-141.845  1.00  0.00    -0.191 NA
HETATM    5  C6  UNL     1      -0.609 -84.146-141.298  1.00  0.00     0.138 A 
HETATM    6  N3  UNL     1      -0.976 -85.368-140.947  1.00  0.00    -0.263 N 
ATOM      7  H3  UNL     1      -0.363 -86.180-140.883  1.00  0.00     0.190 HD
HETATM    8  N4  UNL     1      -2.271 -85.358-140.696  1.00  0.00    -0.076 N 
ENDROOT
BRANCH   1   9
HETATM    9  C2  UNL     1      -4.158 -83.693-140.704  1.00  0.00     0.314 C 
HETATM   10  O2  UNL     1      -4.620 -83.344-139.594  1.00  0.00    -0.257 OA
BRANCH   9  11
HETATM   11  O1  UNL     1      -4.994 -83.666-141.788  1.00  0.00    -0.321 OA
HETATM   12  C1  UNL     1      -5.591 -84.806-142.371  1.00  0.00     0.213 C 
ENDBRANCH   9  11
ENDBRANCH   1   9
BRANCH   5  13
HETATM   13  N2  UNL     1       0.613 -83.821-141.612  1.00  0.00    -0.383 N 
ATOM     14  H22 UNL     1       1.143 -83.090-141.139  1.00  0.00     0.157 HD
ATOM     15  H21 UNL     1       1.199 -84.225-142.342  1.00  0.00     0.157 HD
ENDBRANCH   5  13
BRANCH   8  16
HETATM   16  C7  UNL     1      -3.045 -86.485-140.287  1.00  0.00     0.715 C 
HETATM   17  N5  UNL     1      -2.974 -87.643-140.848  1.00  0.00    -0.135 N 
HETATM   18  N6  UNL     1      -3.737 -88.731-140.436  1.00  0.00    -0.320 N 
ATOM     19  H5  UNL     1      -2.329 -87.767-141.628  1.00  0.00     0.205 HD
HETATM   20  C8  UNL     1      -4.415 -88.664-139.168  1.00  0.00     0.174 C 
ATOM     21  H6  UNL     1      -3.814 -89.563-141.023  1.00  0.00     0.180 HD
HETATM   22  C9  UNL     1      -4.987 -87.294-138.998  1.00  0.00     0.093 A 
HETATM   23  C10 UNL     1      -6.352 -87.068-139.532  1.00  0.00     0.070 A 
HETATM   24  C11 UNL     1      -6.091 -87.001-138.060  1.00  0.00     0.151 A 
HETATM   25  N7  UNL     1      -3.944 -86.318-139.202  1.00  0.00    -0.209 N 
ATOM     26  H7  UNL     1      -3.855 -85.519-138.574  1.00  0.00     0.178 HD
BRANCH  24  27
HETATM   27  O3  UNL     1      -6.484 -88.022-137.228  1.00  0.00    -0.393 OA
ATOM     28  H3  UNL     1      -5.997 -88.126-136.419  1.00  0.00     0.210 HD
ENDBRANCH  24  27
ENDBRANCH   8  16
TORSDOF 5
ENDMDL
MODEL 5
REMARK VINA RESULT: -7.976053798      7.717     11.353
REMARK  5 active torsions:
REMARK  status: ('A' for Active; 'I' for Inactive)
REMARK    1  A    between atoms: O1_2  and  C2_3 
REMARK    2  A    between atoms: C2_3  and  C3_5 
REMARK    3  A    between atoms: C6_9  and  N2_10 
REMARK    4  A    between atoms: N4_15  and  C7_16 
REMARK    5  A    between atoms: C11_24  and  O3_25 
ROOT
HETATM    1  C3  UNL     1      -2.919 -84.169-140.549  1.00  0.00     0.174 A 
HETATM    2  C4  UNL     1      -1.856 -83.522-141.133  1.00  0.00     0.124 A 
HETATM    3  C5  UNL     1      -1.766 -82.159-141.570  1.00  0.00     0.106 C 
HETATM    4  N1  UNL     1      -1.707 -81.060-141.923  1.00  0.00    -0.191 NA
HETATM    5  C6  UNL     1      -0.844 -84.447-141.233  1.00  0.00     0.138 A 
HETATM    6  N3  UNL     1      -1.273 -85.594-140.734  1.00  0.00    -0.263 N 
ATOM      7  H3  UNL     1      -0.735 -86.459-140.677  1.00  0.00     0.190 HD
HETATM    8  N4  UNL     1      -2.516 -85.431-140.324  1.00  0.00    -0.076 N 
ENDROOT
BRANCH   1   9
HETATM    9  C2  UNL     1      -4.224 -83.584-140.240  1.00  0.00     0.314 C 
HETATM   10  O2  UNL     1      -4.361 -82.627-139.445  1.00  0.00    -0.257 OA
BRANCH   9  11
HETATM   11  O1  UNL     1      -5.346 -84.094-140.836  1.00  0.00    -0.321 OA
HETATM   12  C1  UNL     1      -5.462 -84.383-142.214  1.00  0.00     0.213 C 
ENDBRANCH   9  11
ENDBRANCH   1   9
BRANCH   5  13
HETATM   13  N2  UNL     1       0.350 -84.274-141.725  1.00  0.00    -0.383 N 
ATOM     14  H22 UNL     1       0.539 -83.756-142.583  1.00  0.00     0.157 HD
ATOM     15  H21 UNL     1       1.236 -84.613-141.351  1.00  0.00     0.157 HD
ENDBRANCH   5  13
BRANCH   8  16
HETATM   16  C7  UNL     1      -3.331 -86.438-139.725  1.00  0.00     0.715 C 
HETATM   17  N5  UNL     1      -3.297 -86.735-138.472  1.00  0.00    -0.135 N 
HETATM   18  N6  UNL     1      -4.099 -87.720-137.905  1.00  0.00    -0.320 N 
ATOM     19  H5  UNL     1      -2.652 -86.224-137.868  1.00  0.00     0.205 HD
HETATM   20  C8  UNL     1      -5.211 -88.232-138.663  1.00  0.00     0.174 C 
ATOM     21  H6  UNL     1      -3.903 -88.074-136.968  1.00  0.00     0.180 HD
HETATM   22  C9  UNL     1      -4.789 -88.395-140.088  1.00  0.00     0.093 A 
HETATM   23  C10 UNL     1      -4.175 -89.693-140.460  1.00  0.00     0.070 A 
HETATM   24  C11 UNL     1      -5.496 -89.285-141.032  1.00  0.00     0.151 A 
HETATM   25  N7  UNL     1      -4.230 -87.152-140.560  1.00  0.00    -0.209 N 
ATOM     26  H7  UNL     1      -4.477 -86.792-141.482  1.00  0.00     0.178 HD
BRANCH  24  27
HETATM   27  O3  UNL     1      -6.663 -89.858-140.587  1.00  0.00    -0.393 OA
ATOM     28  H3  UNL     1      -7.121 -90.426-141.196  1.00  0.00     0.210 HD
ENDBRANCH  24  27
ENDBRANCH   8  16
TORSDOF 5
ENDMDL
