MODEL 1
REMARK VINA RESULT: -8.067092771      0.000      0.000
REMARK  6 active torsions:
REMARK  status: ('A' for Active; 'I' for Inactive)
REMARK    1  A    between atoms: O1_2  and  C2_3 
REMARK    2  A    between atoms: C2_3  and  C3_4 
REMARK    3  A    between atoms: C4_6  and  C5_7 
REMARK    4  A    between atoms: C7_16  and  C8_17 
REMARK    5  A    between atoms: C9_20  and  O6_21 
REMARK    6  A    between atoms: C10_23  and  O7_24 
ROOT
HETATM    1  C5  UNL     1       1.701 -79.119-147.103  1.00  0.00     0.125 C 
HETATM    2  O3  UNL     1       1.931 -80.170-147.971  1.00  0.00    -0.278 OA
HETATM    3  C6  UNL     1       3.241 -80.543-148.202  1.00  0.00     0.234 C 
HETATM    4  N1  UNL     1       3.500 -81.512-148.999  1.00  0.00    -0.364 N 
ATOM      5  H11 UNL     1       4.468 -81.788-149.169  1.00  0.00     0.159 HD
ATOM      6  H12 UNL     1       2.758 -82.024-149.476  1.00  0.00     0.159 HD
HETATM    7  N2  UNL     1       4.273 -79.832-147.537  1.00  0.00    -0.268 N 
ATOM      8  H2  UNL     1       5.247 -80.048-147.752  1.00  0.00     0.186 HD
HETATM    9  N3  UNL     1       3.984 -78.840-146.594  1.00  0.00    -0.115 NA
HETATM   10  C7  UNL     1       2.817 -78.117-147.061  1.00  0.00     0.260 C 
ENDROOT
BRANCH   1  11
HETATM   11  C4  UNL     1       0.621 -78.964-146.361  1.00  0.00     0.144 A 
HETATM   12  O2  UNL     1      -0.556 -78.580-146.813  1.00  0.00    -0.300 OA
HETATM   13  C3  UNL     1      -1.447 -78.510-145.866  1.00  0.00     0.134 A 
HETATM   14  C10 UNL     1      -0.820 -78.870-144.705  1.00  0.00     0.138 A 
HETATM   15  C9  UNL     1       0.515 -79.165-145.016  1.00  0.00     0.138 A 
BRANCH  13  16
HETATM   16  C2  UNL     1      -2.722 -78.164-145.945  1.00  0.00     0.174 C 
BRANCH  16  17
HETATM   17  O1  UNL     1      -3.107 -76.850-145.980  1.00  0.00    -0.365 OA
HETATM   18  C1  UNL     1      -2.795 -75.979-147.051  1.00  0.00     0.209 C 
ENDBRANCH  16  17
ENDBRANCH  13  16
BRANCH  14  19
HETATM   19  O7  UNL     1      -1.331 -78.957-143.416  1.00  0.00    -0.356 OA
ATOM     20  H7  UNL     1      -1.617 -79.721-142.930  1.00  0.00     0.218 HD
ENDBRANCH  14  19
BRANCH  15  21
HETATM   21  O6  UNL     1       1.475 -79.572-144.096  1.00  0.00    -0.356 OA
ATOM     22  H6  UNL     1       1.920 -80.406-144.007  1.00  0.00     0.218 HD
ENDBRANCH  15  21
ENDBRANCH   1  11
BRANCH  10  23
HETATM   23  C8  UNL     1       3.023 -77.451-148.347  1.00  0.00     0.201 C 
HETATM   24  O4  UNL     1       2.049 -76.960-148.975  1.00  0.00    -0.646 OA
HETATM   25  O5  UNL     1       4.282 -77.358-148.880  1.00  0.00    -0.646 OA
ENDBRANCH  10  23
TORSDOF 6
ENDMDL
MODEL 2
REMARK VINA RESULT: -8.005533852      1.374      2.733
REMARK  6 active torsions:
REMARK  status: ('A' for Active; 'I' for Inactive)
REMARK    1  A    between atoms: O1_2  and  C2_3 
REMARK    2  A    between atoms: C2_3  and  C3_4 
REMARK    3  A    between atoms: C4_6  and  C5_7 
REMARK    4  A    between atoms: C7_16  and  C8_17 
REMARK    5  A    between atoms: C9_20  and  O6_21 
REMARK    6  A    between atoms: C10_23  and  O7_24 
ROOT
HETATM    1  C5  UNL     1       1.755 -79.403-146.696  1.00  0.00     0.125 C 
HETATM    2  O3  UNL     1       1.936 -80.365-147.672  1.00  0.00    -0.278 OA
HETATM    3  C6  UNL     1       3.225 -80.614-148.103  1.00  0.00     0.234 C 
HETATM    4  N1  UNL     1       3.439 -81.498-149.007  1.00  0.00    -0.364 N 
ATOM      5  H11 UNL     1       4.391 -81.682-149.324  1.00  0.00     0.159 HD
ATOM      6  H12 UNL     1       2.675 -82.030-149.424  1.00  0.00     0.159 HD
HETATM    7  N2  UNL     1       4.287 -79.874-147.522  1.00  0.00    -0.268 N 
ATOM      8  H2  UNL     1       5.234 -79.995-147.880  1.00  0.00     0.186 HD
HETATM    9  N3  UNL     1       4.062 -78.982-146.468  1.00  0.00    -0.115 NA
HETATM   10  C7  UNL     1       2.795 -78.321-146.716  1.00  0.00     0.260 C 
ENDROOT
BRANCH   1  11
HETATM   11  C4  UNL     1       0.780 -79.391-145.808  1.00  0.00     0.144 A 
HETATM   12  O2  UNL     1       0.842 -79.940-144.611  1.00  0.00    -0.300 OA
HETATM   13  C3  UNL     1      -0.261 -79.780-143.938  1.00  0.00     0.134 A 
HETATM   14  C10 UNL     1      -1.116 -79.078-144.742  1.00  0.00     0.138 A 
HETATM   15  C9  UNL     1      -0.452 -78.822-145.951  1.00  0.00     0.138 A 
BRANCH  13  16
HETATM   16  C2  UNL     1      -0.561 -80.192-142.718  1.00  0.00     0.174 C 
BRANCH  16  17
HETATM   17  O1  UNL     1      -1.832 -80.573-142.381  1.00  0.00    -0.365 OA
HETATM   18  C1  UNL     1      -2.120 -81.734-141.625  1.00  0.00     0.209 C 
ENDBRANCH  16  17
ENDBRANCH  13  16
BRANCH  14  19
HETATM   19  O7  UNL     1      -2.415 -78.653-144.492  1.00  0.00    -0.356 OA
ATOM     20  H7  UNL     1      -3.239 -79.090-144.674  1.00  0.00     0.218 HD
ENDBRANCH  14  19
BRANCH  15  21
HETATM   21  O6  UNL     1      -0.995 -78.128-147.026  1.00  0.00    -0.356 OA
ATOM     22  H6  UNL     1      -0.624 -77.937-147.879  1.00  0.00     0.218 HD
ENDBRANCH  15  21
ENDBRANCH   1  11
BRANCH  10  23
HETATM   23  C8  UNL     1       2.775 -77.548-147.957  1.00  0.00     0.201 C 
HETATM   24  O4  UNL     1       1.684 -77.257-148.512  1.00  0.00    -0.646 OA
HETATM   25  O5  UNL     1       3.951 -77.133-148.528  1.00  0.00    -0.646 OA
ENDBRANCH  10  23
TORSDOF 6
ENDMDL
MODEL 3
REMARK VINA RESULT: -7.835429462      2.954      5.471
REMARK  6 active torsions:
REMARK  status: ('A' for Active; 'I' for Inactive)
REMARK    1  A    between atoms: O1_2  and  C2_3 
REMARK    2  A    between atoms: C2_3  and  C3_4 
REMARK    3  A    between atoms: C4_6  and  C5_7 
REMARK    4  A    between atoms: C7_16  and  C8_17 
REMARK    5  A    between atoms: C9_20  and  O6_21 
REMARK    6  A    between atoms: C10_23  and  O7_24 
ROOT
HETATM    1  C5  UNL     1      -0.383 -79.037-146.111  1.00  0.00     0.125 C 
HETATM    2  O3  UNL     1      -0.653 -79.177-144.762  1.00  0.00    -0.278 OA
HETATM    3  C6  UNL     1      -1.840 -79.784-144.400  1.00  0.00     0.234 C 
HETATM    4  N1  UNL     1      -2.131 -79.934-143.161  1.00  0.00    -0.364 N 
ATOM      5  H11 UNL     1      -3.008 -80.383-142.894  1.00  0.00     0.159 HD
ATOM      6  H12 UNL     1      -1.504 -79.615-142.423  1.00  0.00     0.159 HD
HETATM    7  N2  UNL     1      -2.712 -80.230-145.427  1.00  0.00    -0.268 N 
ATOM      8  H2  UNL     1      -3.623 -80.614-145.177  1.00  0.00     0.186 HD
HETATM    9  N3  UNL     1      -2.349 -80.153-146.776  1.00  0.00    -0.115 NA
HETATM   10  C7  UNL     1      -1.613 -78.917-146.962  1.00  0.00     0.260 C 
ENDROOT
BRANCH   1  11
HETATM   11  C4  UNL     1       0.821 -79.006-146.649  1.00  0.00     0.144 A 
HETATM   12  O2  UNL     1       1.067 -78.926-147.942  1.00  0.00    -0.300 OA
HETATM   13  C3  UNL     1       2.343 -78.912-148.199  1.00  0.00     0.134 A 
HETATM   14  C10 UNL     1       2.990 -78.989-146.997  1.00  0.00     0.138 A 
HETATM   15  C9  UNL     1       2.014 -79.049-145.991  1.00  0.00     0.138 A 
BRANCH  13  16
HETATM   16  C2  UNL     1       2.957 -78.841-149.369  1.00  0.00     0.174 C 
BRANCH  16  17
HETATM   17  O1  UNL     1       2.727 -77.810-150.239  1.00  0.00    -0.365 OA
HETATM   18  C1  UNL     1       2.653 -76.456-149.835  1.00  0.00     0.209 C 
ENDBRANCH  16  17
ENDBRANCH  13  16
BRANCH  14  19
HETATM   19  O7  UNL     1       4.353 -79.009-146.727  1.00  0.00    -0.356 OA
ATOM     20  H7  UNL     1       5.007 -78.334-146.867  1.00  0.00     0.218 HD
ENDBRANCH  14  19
BRANCH  15  21
HETATM   21  O6  UNL     1       2.280 -79.135-144.629  1.00  0.00    -0.356 OA
ATOM     22  H6  UNL     1       2.909 -78.660-144.099  1.00  0.00     0.218 HD
ENDBRANCH  15  21
ENDBRANCH   1  11
BRANCH  10  23
HETATM   23  C8  UNL     1      -2.396 -77.722-146.651  1.00  0.00     0.201 C 
HETATM   24  O4  UNL     1      -1.839 -76.698-146.178  1.00  0.00    -0.646 OA
HETATM   25  O5  UNL     1      -3.749 -77.709-146.872  1.00  0.00    -0.646 OA
ENDBRANCH  10  23
TORSDOF 6
ENDMDL
MODEL 4
REMARK VINA RESULT: -7.789774066      2.904      5.518
REMARK  6 active torsions:
REMARK  status: ('A' for Active; 'I' for Inactive)
REMARK    1  A    between atoms: O1_2  and  C2_3 
REMARK    2  A    between atoms: C2_3  and  C3_4 
REMARK    3  A    between atoms: C4_6  and  C5_7 
REMARK    4  A    between atoms: C7_16  and  C8_17 
REMARK    5  A    between atoms: C9_20  and  O6_21 
REMARK    6  A    between atoms: C10_23  and  O7_24 
ROOT
HETATM    1  C5  UNL     1       0.251 -79.515-146.035  1.00  0.00     0.125 C 
HETATM    2  O3  UNL     1      -0.986 -80.084-146.276  1.00  0.00    -0.278 OA
HETATM    3  C6  UNL     1      -2.095 -79.486-145.710  1.00  0.00     0.234 C 
HETATM    4  N1  UNL     1      -3.261 -79.980-145.908  1.00  0.00    -0.364 N 
ATOM      5  H11 UNL     1      -4.080 -79.537-145.490  1.00  0.00     0.159 HD
ATOM      6  H12 UNL     1      -3.397 -80.814-146.479  1.00  0.00     0.159 HD
HETATM    7  N2  UNL     1      -1.906 -78.325-144.917  1.00  0.00    -0.268 N 
ATOM      8  H2  UNL     1      -2.705 -77.914-144.434  1.00  0.00     0.186 HD
HETATM    9  N3  UNL     1      -0.646 -77.731-144.783  1.00  0.00    -0.115 NA
HETATM   10  C7  UNL     1       0.336 -78.796-144.720  1.00  0.00     0.260 C 
ENDROOT
BRANCH   1  11
HETATM   11  C4  UNL     1       1.288 -79.568-146.848  1.00  0.00     0.144 A 
HETATM   12  O2  UNL     1       1.379 -78.928-147.996  1.00  0.00    -0.300 OA
HETATM   13  C3  UNL     1       2.511 -79.157-148.598  1.00  0.00     0.134 A 
HETATM   14  C10 UNL     1       3.220 -80.008-147.797  1.00  0.00     0.138 A 
HETATM   15  C9  UNL     1       2.438 -80.278-146.664  1.00  0.00     0.138 A 
BRANCH  13  16
HETATM   16  C2  UNL     1       2.949 -78.692-149.757  1.00  0.00     0.174 C 
BRANCH  16  17
HETATM   17  O1  UNL     1       2.575 -77.461-150.223  1.00  0.00    -0.365 OA
HETATM   18  C1  UNL     1       2.846 -76.255-149.533  1.00  0.00     0.209 C 
ENDBRANCH  16  17
ENDBRANCH  13  16
BRANCH  14  19
HETATM   19  O7  UNL     1       4.484 -80.553-147.986  1.00  0.00    -0.356 OA
ATOM     20  H7  UNL     1       5.261 -80.481-147.445  1.00  0.00     0.218 HD
ENDBRANCH  14  19
BRANCH  15  21
HETATM   21  O6  UNL     1       2.817 -81.106-145.613  1.00  0.00    -0.356 OA
ATOM     22  H6  UNL     1       3.622 -81.121-145.108  1.00  0.00     0.218 HD
ENDBRANCH  15  21
ENDBRANCH   1  11
BRANCH  10  23
HETATM   23  C8  UNL     1       0.150 -79.691-143.578  1.00  0.00     0.201 C 
HETATM   24  O4  UNL     1       0.873 -80.712-143.442  1.00  0.00    -0.646 OA
HETATM   25  O5  UNL     1      -0.819 -79.424-142.646  1.00  0.00    -0.646 OA
ENDBRANCH  10  23
TORSDOF 6
ENDMDL
MODEL 5
REMARK VINA RESULT: -7.739199298      2.109      3.410
REMARK  6 active torsions:
REMARK  status: ('A' for Active; 'I' for Inactive)
REMARK    1  A    between atoms: O1_2  and  C2_3 
REMARK    2  A    between atoms: C2_3  and  C3_4 
REMARK    3  A    between atoms: C4_6  and  C5_7 
REMARK    4  A    between atoms: C7_16  and  C8_17 
REMARK    5  A    between atoms: C9_20  and  O6_21 
REMARK    6  A    between atoms: C10_23  and  O7_24 
ROOT
HETATM    1  C5  UNL     1       2.251 -78.440-148.064  1.00  0.00     0.125 C 
HETATM    2  O3  UNL     1       2.314 -79.068-149.294  1.00  0.00    -0.278 OA
HETATM    3  C6  UNL     1       3.403 -78.803-150.101  1.00  0.00     0.234 C 
HETATM    4  N1  UNL     1       3.502 -79.364-151.250  1.00  0.00    -0.364 N 
ATOM      5  H11 UNL     1       4.307 -79.168-151.845  1.00  0.00     0.159 HD
ATOM      6  H12 UNL     1       2.790 -80.009-151.591  1.00  0.00     0.159 HD
HETATM    7  N2  UNL     1       4.394 -77.906-149.626  1.00  0.00    -0.268 N 
ATOM      8  H2  UNL     1       5.166 -77.644-150.238  1.00  0.00     0.186 HD
HETATM    9  N3  UNL     1       4.334 -77.371-148.334  1.00  0.00    -0.115 NA
HETATM   10  C7  UNL     1       2.940 -77.107-148.034  1.00  0.00     0.260 C 
ENDROOT
BRANCH   1  11
HETATM   11  C4  UNL     1       1.657 -78.922-146.990  1.00  0.00     0.144 A 
HETATM   12  O2  UNL     1       2.249 -79.642-146.059  1.00  0.00    -0.300 OA
HETATM   13  C3  UNL     1       1.430 -79.988-145.108  1.00  0.00     0.134 A 
HETATM   14  C10 UNL     1       0.209 -79.463-145.429  1.00  0.00     0.138 A 
HETATM   15  C9  UNL     1       0.346 -78.772-146.642  1.00  0.00     0.138 A 
BRANCH  13  16
HETATM   16  C2  UNL     1       1.667 -80.705-144.022  1.00  0.00     0.174 C 
BRANCH  16  17
HETATM   17  O1  UNL     1       0.904 -80.571-142.893  1.00  0.00    -0.365 OA
HETATM   18  C1  UNL     1       0.769 -81.591-141.922  1.00  0.00     0.209 C 
ENDBRANCH  16  17
ENDBRANCH  13  16
BRANCH  14  19
HETATM   19  O7  UNL     1      -0.996 -79.546-144.742  1.00  0.00    -0.356 OA
ATOM     20  H7  UNL     1      -1.186 -79.362-143.829  1.00  0.00     0.218 HD
ENDBRANCH  14  19
BRANCH  15  21
HETATM   21  O6  UNL     1      -0.680 -78.100-147.296  1.00  0.00    -0.356 OA
ATOM     22  H6  UNL     1      -0.747 -77.187-147.551  1.00  0.00     0.218 HD
ENDBRANCH  15  21
ENDBRANCH   1  11
BRANCH  10  23
HETATM   23  C8  UNL     1       2.325 -76.136-148.938  1.00  0.00     0.201 C 
HETATM   24  O4  UNL     1       1.073 -76.019-148.995  1.00  0.00    -0.646 OA
HETATM   25  O5  UNL     1       3.110 -75.344-149.735  1.00  0.00    -0.646 OA
ENDBRANCH  10  23
TORSDOF 6
ENDMDL
