MODEL 1
REMARK VINA RESULT: -8.916733366      0.000      0.000
REMARK  5 active torsions:
REMARK  status: ('A' for Active; 'I' for Inactive)
REMARK    1  A    between atoms: O1_1  and  N1_3 
REMARK    2  A    between atoms: C1_7  and  O3_8 
REMARK    3  A    between atoms: C2_10  and  C3_11 
REMARK    4  A    between atoms: N5_17  and  N6_19 
REMARK    5  A    between atoms: N6_19  and  C5_21 
ROOT
HETATM    1  C3  UNL     1       2.584 -79.307-146.558  1.00  0.00     0.080 A 
HETATM    2  N3  UNL     1       1.759 -78.545-145.956  1.00  0.00    -0.286 N 
ATOM      3  H3  UNL     1       1.511 -77.676-146.430  1.00  0.00     0.187 HD
HETATM    4  N4  UNL     1       1.159 -78.773-144.720  1.00  0.00    -0.131 N 
ATOM      5  H4  UNL     1       0.505 -78.109-144.308  1.00  0.00     0.205 HD
HETATM    6  C4  UNL     1       1.512 -79.991-144.061  1.00  0.00     0.707 A 
HETATM    7  N5  UNL     1       0.988 -80.273-142.894  1.00  0.00    -0.128 N 
ATOM      8  H5  UNL     1       0.330 -79.632-142.451  1.00  0.00     0.205 HD
HETATM    9  N9  UNL     1       2.425 -80.861-144.694  1.00  0.00    -0.218 N 
ATOM     10  H9  UNL     1       2.680 -81.726-144.218  1.00  0.00     0.178 HD
HETATM   11  C8  UNL     1       3.008 -80.586-145.972  1.00  0.00     0.199 A 
ENDROOT
BRANCH   7  12
HETATM   12  N6  UNL     1       1.346 -81.470-142.267  1.00  0.00    -0.257 N 
ATOM     13  H6  UNL     1       2.336 -81.672-142.126  1.00  0.00     0.190 HD
BRANCH  12  14
HETATM   14  C5  UNL     1       0.379 -82.421-141.816  1.00  0.00     0.190 C 
HETATM   15  N7  UNL     1      -0.877 -82.152-141.666  1.00  0.00    -0.360 N 
HETATM   16  C6  UNL     1      -1.603 -83.314-141.197  1.00  0.00     0.142 C 
ATOM     17  H7  UNL     1      -1.300 -81.242-141.851  1.00  0.00     0.162 HD
HETATM   18  C7  UNL     1      -0.652 -84.441-141.545  1.00  0.00     0.142 C 
HETATM   19  N8  UNL     1       0.630 -83.778-141.469  1.00  0.00    -0.360 N 
ATOM     20  H8  UNL     1       1.527 -84.194-141.219  1.00  0.00     0.162 HD
ENDBRANCH  12  14
ENDBRANCH   7  12
BRANCH   1  21
HETATM   21  C2  UNL     1       3.139 -78.924-147.879  1.00  0.00     0.168 A 
HETATM   22  N1  UNL     1       3.491 -77.690-148.218  1.00  0.00    -0.096 N 
HETATM   23  O2  UNL     1       3.940 -77.710-149.459  1.00  0.00    -0.126 OA
HETATM   24  N2  UNL     1       3.884 -78.930-149.925  1.00  0.00    -0.215 N 
HETATM   25  C1  UNL     1       3.378 -79.741-148.953  1.00  0.00     0.196 A 
ATOM     26  H2  UNL     1       4.170 -79.225-150.859  1.00  0.00     0.199 HD
BRANCH  22  27
HETATM   27  O1  UNL     1       3.445 -76.527-147.501  1.00  0.00    -0.261 OA
ATOM     28  H1  UNL     1       3.291 -76.533-146.564  1.00  0.00     0.247 HD
ENDBRANCH  22  27
BRANCH  25  29
HETATM   29  O3  UNL     1       3.141 -81.091-148.990  1.00  0.00    -0.343 OA
ATOM     30  H3  UNL     1       3.602 -81.793-148.545  1.00  0.00     0.219 HD
ENDBRANCH  25  29
ENDBRANCH   1  21
TORSDOF 5
ENDMDL
MODEL 2
REMARK VINA RESULT: -8.723593232      5.053      8.661
REMARK  5 active torsions:
REMARK  status: ('A' for Active; 'I' for Inactive)
REMARK    1  A    between atoms: O1_1  and  N1_3 
REMARK    2  A    between atoms: C1_7  and  O3_8 
REMARK    3  A    between atoms: C2_10  and  C3_11 
REMARK    4  A    between atoms: N5_17  and  N6_19 
REMARK    5  A    between atoms: N6_19  and  C5_21 
ROOT
HETATM    1  C3  UNL     1      -2.765 -82.024-141.629  1.00  0.00     0.080 A 
HETATM    2  N3  UNL     1      -3.572 -81.528-142.482  1.00  0.00    -0.286 N 
ATOM      3  H3  UNL     1      -4.507 -81.935-142.517  1.00  0.00     0.187 HD
HETATM    4  N4  UNL     1      -3.311 -80.489-143.371  1.00  0.00    -0.131 N 
ATOM      5  H4  UNL     1      -4.017 -80.148-144.023  1.00  0.00     0.205 HD
HETATM    6  C4  UNL     1      -1.999 -79.925-143.319  1.00  0.00     0.707 A 
HETATM    7  N5  UNL     1      -1.681 -78.943-144.126  1.00  0.00    -0.128 N 
ATOM      8  H5  UNL     1      -2.361 -78.578-144.792  1.00  0.00     0.205 HD
HETATM    9  N9  UNL     1      -1.076 -80.448-142.389  1.00  0.00    -0.218 N 
ATOM     10  H9  UNL     1      -0.138 -80.049-142.358  1.00  0.00     0.178 HD
HETATM   11  C8  UNL     1      -1.395 -81.513-141.486  1.00  0.00     0.199 A 
ENDROOT
BRANCH   7  12
HETATM   12  N6  UNL     1      -0.392 -78.406-144.057  1.00  0.00    -0.257 N 
ATOM     13  H6  UNL     1      -0.179 -77.738-143.317  1.00  0.00     0.190 HD
BRANCH  12  14
HETATM   14  C5  UNL     1       0.637 -78.758-144.985  1.00  0.00     0.190 C 
HETATM   15  N7  UNL     1       1.819 -79.148-144.632  1.00  0.00    -0.360 N 
HETATM   16  C6  UNL     1       2.638 -79.431-145.792  1.00  0.00     0.142 C 
ATOM     17  H7  UNL     1       2.133 -79.242-143.666  1.00  0.00     0.162 HD
HETATM   18  C7  UNL     1       1.597 -79.596-146.880  1.00  0.00     0.142 C 
HETATM   19  N8  UNL     1       0.535 -78.738-146.403  1.00  0.00    -0.360 N 
ATOM     20  H8  UNL     1      -0.144 -78.225-146.966  1.00  0.00     0.162 HD
ENDBRANCH  12  14
ENDBRANCH   7  12
BRANCH   1  21
HETATM   21  C2  UNL     1      -3.193 -83.136-140.745  1.00  0.00     0.168 A 
HETATM   22  N1  UNL     1      -4.125 -83.035-139.805  1.00  0.00    -0.096 N 
HETATM   23  O2  UNL     1      -4.250 -84.209-139.214  1.00  0.00    -0.126 OA
HETATM   24  N2  UNL     1      -3.418 -85.061-139.752  1.00  0.00    -0.215 N 
HETATM   25  C1  UNL     1      -2.721 -84.423-140.734  1.00  0.00     0.196 A 
ATOM     26  H2  UNL     1      -3.309 -86.039-139.482  1.00  0.00     0.199 HD
BRANCH  22  27
HETATM   27  O1  UNL     1      -4.887 -81.967-139.425  1.00  0.00    -0.261 OA
ATOM     28  H1  UNL     1      -4.568 -81.337-138.789  1.00  0.00     0.247 HD
ENDBRANCH  22  27
BRANCH  25  29
HETATM   29  O3  UNL     1      -1.746 -84.917-141.563  1.00  0.00    -0.343 OA
ATOM     30  H3  UNL     1      -1.248 -84.468-142.237  1.00  0.00     0.219 HD
ENDBRANCH  25  29
ENDBRANCH   1  21
TORSDOF 5
ENDMDL
MODEL 3
REMARK VINA RESULT: -8.606811058      0.613      1.722
REMARK  5 active torsions:
REMARK  status: ('A' for Active; 'I' for Inactive)
REMARK    1  A    between atoms: O1_1  and  N1_3 
REMARK    2  A    between atoms: C1_7  and  O3_8 
REMARK    3  A    between atoms: C2_10  and  C3_11 
REMARK    4  A    between atoms: N5_17  and  N6_19 
REMARK    5  A    between atoms: N6_19  and  C5_21 
ROOT
HETATM    1  C3  UNL     1       2.527 -79.315-146.553  1.00  0.00     0.080 A 
HETATM    2  N3  UNL     1       1.706 -78.558-145.939  1.00  0.00    -0.286 N 
ATOM      3  H3  UNL     1       1.449 -77.689-146.407  1.00  0.00     0.187 HD
HETATM    4  N4  UNL     1       1.124 -78.792-144.696  1.00  0.00    -0.131 N 
ATOM      5  H4  UNL     1       0.472 -78.131-144.274  1.00  0.00     0.205 HD
HETATM    6  C4  UNL     1       1.490 -80.010-144.045  1.00  0.00     0.707 A 
HETATM    7  N5  UNL     1       0.982 -80.298-142.872  1.00  0.00    -0.128 N 
ATOM      8  H5  UNL     1       0.327 -79.660-142.419  1.00  0.00     0.205 HD
HETATM    9  N9  UNL     1       2.398 -80.874-144.691  1.00  0.00    -0.218 N 
ATOM     10  H9  UNL     1       2.664 -81.740-144.221  1.00  0.00     0.178 HD
HETATM   11  C8  UNL     1       2.964 -80.594-145.976  1.00  0.00     0.199 A 
ENDROOT
BRANCH   7  12
HETATM   12  N6  UNL     1       1.353 -81.495-142.253  1.00  0.00    -0.257 N 
ATOM     13  H6  UNL     1       2.345 -81.688-142.116  1.00  0.00     0.190 HD
BRANCH  12  14
HETATM   14  C5  UNL     1       0.396 -82.457-141.804  1.00  0.00     0.190 C 
HETATM   15  N7  UNL     1      -0.864 -82.204-141.661  1.00  0.00    -0.360 N 
HETATM   16  C6  UNL     1      -1.576 -83.374-141.193  1.00  0.00     0.142 C 
ATOM     17  H7  UNL     1      -1.298 -81.300-141.852  1.00  0.00     0.162 HD
HETATM   18  C7  UNL     1      -0.609 -84.489-141.532  1.00  0.00     0.142 C 
HETATM   19  N8  UNL     1       0.664 -83.809-141.452  1.00  0.00    -0.360 N 
ATOM     20  H8  UNL     1       1.565 -84.213-141.195  1.00  0.00     0.162 HD
ENDBRANCH  12  14
ENDBRANCH   7  12
BRANCH   1  21
HETATM   21  C2  UNL     1       3.064 -78.926-147.880  1.00  0.00     0.168 A 
HETATM   22  N1  UNL     1       3.268 -79.768-148.886  1.00  0.00    -0.096 N 
HETATM   23  O2  UNL     1       3.751 -79.087-149.908  1.00  0.00    -0.126 OA
HETATM   24  N2  UNL     1       3.863 -77.826-149.582  1.00  0.00    -0.215 N 
HETATM   25  C1  UNL     1       3.437 -77.674-148.296  1.00  0.00     0.196 A 
ATOM     26  H2  UNL     1       4.210 -77.082-150.187  1.00  0.00     0.199 HD
BRANCH  22  27
HETATM   27  O1  UNL     1       3.056 -81.115-148.970  1.00  0.00    -0.261 OA
ATOM     28  H1  UNL     1       2.422 -81.476-149.579  1.00  0.00     0.247 HD
ENDBRANCH  22  27
BRANCH  25  29
HETATM   29  O3  UNL     1       3.373 -76.535-147.535  1.00  0.00    -0.343 OA
ATOM     30  H3  UNL     1       3.620 -76.406-146.626  1.00  0.00     0.219 HD
ENDBRANCH  25  29
ENDBRANCH   1  21
TORSDOF 5
ENDMDL
MODEL 4
REMARK VINA RESULT: -8.415540443      1.752      2.194
REMARK  5 active torsions:
REMARK  status: ('A' for Active; 'I' for Inactive)
REMARK    1  A    between atoms: O1_1  and  N1_3 
REMARK    2  A    between atoms: C1_7  and  O3_8 
REMARK    3  A    between atoms: C2_10  and  C3_11 
REMARK    4  A    between atoms: N5_17  and  N6_19 
REMARK    5  A    between atoms: N6_19  and  C5_21 
ROOT
HETATM    1  C3  UNL     1       1.390 -79.080-146.616  1.00  0.00     0.080 A 
HETATM    2  N3  UNL     1       0.289 -78.455-146.753  1.00  0.00    -0.286 N 
ATOM      3  H3  UNL     1       0.167 -77.928-147.618  1.00  0.00     0.187 HD
HETATM    4  N4  UNL     1      -0.767 -78.415-145.847  1.00  0.00    -0.131 N 
ATOM      5  H4  UNL     1      -1.620 -77.889-146.036  1.00  0.00     0.205 HD
HETATM    6  C4  UNL     1      -0.590 -79.153-144.636  1.00  0.00     0.707 A 
HETATM    7  N5  UNL     1      -1.541 -79.162-143.735  1.00  0.00    -0.128 N 
ATOM      8  H5  UNL     1      -2.408 -78.646-143.890  1.00  0.00     0.205 HD
HETATM    9  N9  UNL     1       0.617 -79.857-144.445  1.00  0.00    -0.218 N 
ATOM     10  H9  UNL     1       0.744 -80.377-143.577  1.00  0.00     0.178 HD
HETATM   11  C8  UNL     1       1.672 -79.876-145.413  1.00  0.00     0.199 A 
ENDROOT
BRANCH   7  12
HETATM   12  N6  UNL     1      -1.348 -79.891-142.558  1.00  0.00    -0.257 N 
ATOM     13  H6  UNL     1      -0.595 -79.613-141.928  1.00  0.00     0.190 HD
BRANCH  12  14
HETATM   14  C5  UNL     1      -2.163 -81.010-142.204  1.00  0.00     0.190 C 
HETATM   15  N7  UNL     1      -1.783 -81.951-141.403  1.00  0.00    -0.360 N 
HETATM   16  C6  UNL     1      -2.824 -82.944-141.240  1.00  0.00     0.142 C 
ATOM     17  H7  UNL     1      -0.871 -81.990-140.948  1.00  0.00     0.162 HD
HETATM   18  C7  UNL     1      -4.053 -82.191-141.706  1.00  0.00     0.142 C 
HETATM   19  N8  UNL     1      -3.486 -81.265-142.661  1.00  0.00    -0.360 N 
ATOM     20  H8  UNL     1      -3.940 -80.876-143.488  1.00  0.00     0.162 HD
ENDBRANCH  12  14
ENDBRANCH   7  12
BRANCH   1  21
HETATM   21  C2  UNL     1       2.425 -79.026-147.678  1.00  0.00     0.168 A 
HETATM   22  N1  UNL     1       3.143 -77.950-147.976  1.00  0.00    -0.096 N 
HETATM   23  O2  UNL     1       3.961 -78.255-148.965  1.00  0.00    -0.126 OA
HETATM   24  N2  UNL     1       3.785 -79.504-149.310  1.00  0.00    -0.215 N 
HETATM   25  C1  UNL     1       2.814 -80.038-148.518  1.00  0.00     0.196 A 
ATOM     26  H2  UNL     1       4.289 -79.995-150.049  1.00  0.00     0.199 HD
BRANCH  22  27
HETATM   27  O1  UNL     1       3.129 -76.697-147.430  1.00  0.00    -0.261 OA
ATOM     28  H1  UNL     1       2.372 -76.377-146.953  1.00  0.00     0.247 HD
ENDBRANCH  22  27
BRANCH  25  29
HETATM   29  O3  UNL     1       2.300 -81.309-148.517  1.00  0.00    -0.343 OA
ATOM     30  H3  UNL     1       1.700 -81.714-147.901  1.00  0.00     0.219 HD
ENDBRANCH  25  29
ENDBRANCH   1  21
TORSDOF 5
ENDMDL
MODEL 5
REMARK VINA RESULT: -8.351246639      1.859      2.803
REMARK  5 active torsions:
REMARK  status: ('A' for Active; 'I' for Inactive)
REMARK    1  A    between atoms: O1_1  and  N1_3 
REMARK    2  A    between atoms: C1_7  and  O3_8 
REMARK    3  A    between atoms: C2_10  and  C3_11 
REMARK    4  A    between atoms: N5_17  and  N6_19 
REMARK    5  A    between atoms: N6_19  and  C5_21 
ROOT
HETATM    1  C3  UNL     1       1.354 -79.175-146.516  1.00  0.00     0.080 A 
HETATM    2  N3  UNL     1       0.297 -78.469-146.604  1.00  0.00    -0.286 N 
ATOM      3  H3  UNL     1       0.199 -77.895-147.441  1.00  0.00     0.187 HD
HETATM    4  N4  UNL     1      -0.739 -78.398-145.676  1.00  0.00    -0.131 N 
ATOM      5  H4  UNL     1      -1.556 -77.806-145.825  1.00  0.00     0.205 HD
HETATM    6  C4  UNL     1      -0.595 -79.202-144.503  1.00  0.00     0.707 A 
HETATM    7  N5  UNL     1      -1.530 -79.187-143.586  1.00  0.00    -0.128 N 
ATOM      8  H5  UNL     1      -2.360 -78.606-143.701  1.00  0.00     0.205 HD
HETATM    9  N9  UNL     1       0.563 -79.996-144.368  1.00  0.00    -0.218 N 
ATOM     10  H9  UNL     1       0.667 -80.564-143.527  1.00  0.00     0.178 HD
HETATM   11  C8  UNL     1       1.598 -80.043-145.356  1.00  0.00     0.199 A 
ENDROOT
BRANCH   7  12
HETATM   12  N6  UNL     1      -1.369 -79.981-142.447  1.00  0.00    -0.257 N 
ATOM     13  H6  UNL     1      -0.606 -79.768-141.805  1.00  0.00     0.190 HD
BRANCH  12  14
HETATM   14  C5  UNL     1      -2.232 -81.081-142.149  1.00  0.00     0.190 C 
HETATM   15  N7  UNL     1      -1.900 -82.067-141.381  1.00  0.00    -0.360 N 
HETATM   16  C6  UNL     1      -2.981 -83.023-141.271  1.00  0.00     0.142 C 
ATOM     17  H7  UNL     1      -0.997 -82.160-140.916  1.00  0.00     0.162 HD
HETATM   18  C7  UNL     1      -4.174 -82.205-141.722  1.00  0.00     0.142 C 
HETATM   19  N8  UNL     1      -3.558 -81.265-142.632  1.00  0.00    -0.360 N 
ATOM     20  H8  UNL     1      -3.984 -80.827-143.448  1.00  0.00     0.162 HD
ENDBRANCH  12  14
ENDBRANCH   7  12
BRANCH   1  21
HETATM   21  C2  UNL     1       2.373 -79.143-147.594  1.00  0.00     0.168 A 
HETATM   22  N1  UNL     1       2.664 -80.168-148.385  1.00  0.00    -0.096 N 
HETATM   23  O2  UNL     1       3.612 -79.793-149.223  1.00  0.00    -0.126 OA
HETATM   24  N2  UNL     1       3.937 -78.549-148.988  1.00  0.00    -0.215 N 
HETATM   25  C1  UNL     1       3.174 -78.091-147.956  1.00  0.00     0.196 A 
ATOM     26  H2  UNL     1       4.643 -78.012-149.492  1.00  0.00     0.199 HD
BRANCH  22  27
HETATM   27  O1  UNL     1       2.147 -81.433-148.422  1.00  0.00    -0.261 OA
ATOM     28  H1  UNL     1       1.939 -81.855-149.248  1.00  0.00     0.247 HD
ENDBRANCH  22  27
BRANCH  25  29
HETATM   29  O3  UNL     1       3.167 -76.851-147.368  1.00  0.00    -0.343 OA
ATOM     30  H3  UNL     1       2.432 -76.278-147.186  1.00  0.00     0.219 HD
ENDBRANCH  25  29
ENDBRANCH   1  21
TORSDOF 5
ENDMDL
