MODEL 1
REMARK VINA RESULT: -8.300112341      0.000      0.000
REMARK  4 active torsions:
REMARK  status: ('A' for Active; 'I' for Inactive)
REMARK       I    between atoms: N3_4  and  C2_6 
REMARK    1  A    between atoms: C2_6  and  C3_8 
REMARK    2  A    between atoms: C4_9  and  O2_10 
REMARK    3  A    between atoms: C5_12  and  N4_13 
REMARK    4  A    between atoms: N5_18  and  N6_19 
ROOT
HETATM    1  C3  UNL     1       1.046 -79.171-146.312  1.00  0.00     0.111 A 
HETATM    2  C4  UNL     1      -0.314 -78.897-146.264  1.00  0.00     0.123 A 
HETATM    3  C5  UNL     1      -1.039 -79.201-145.140  1.00  0.00     0.206 A 
HETATM    4  C6  UNL     1      -0.358 -79.776-144.091  1.00  0.00     0.303 A 
HETATM    5  O5  UNL     1      -1.054 -80.052-143.052  1.00  0.00    -0.263 OA
HETATM    6  N5  UNL     1       0.958 -80.034-144.153  1.00  0.00    -0.210 N 
HETATM    7  C7  UNL     1       1.709 -79.754-145.232  1.00  0.00     0.159 A 
HETATM    8  N7  UNL     1       3.109 -80.032-145.287  1.00  0.00    -0.079 NA
ENDROOT
BRANCH   1   9
HETATM    9  C2  UNL     1       1.815 -78.847-147.498  1.00  0.00     0.264 C 
HETATM   10  N3  UNL     1       2.695 -77.767-147.545  1.00  0.00    -0.299 N 
HETATM   11  C1  UNL     1       2.981 -77.124-148.619  1.00  0.00     0.203 C 
ATOM     12  H3  UNL     1       3.138 -77.471-146.676  1.00  0.00     0.171 HD
HETATM   13  N1  UNL     1       3.890 -76.033-148.584  1.00  0.00    -0.066 NA
HETATM   14  N2  UNL     1       2.390 -77.502-149.847  1.00  0.00    -0.066 NA
HETATM   15  O1  UNL     1       1.662 -79.593-148.517  1.00  0.00    -0.267 OA
ENDBRANCH   1   9
BRANCH   2  16
HETATM   16  O2  UNL     1      -0.957 -78.315-147.353  1.00  0.00    -0.357 OA
ATOM     17  H2  UNL     1      -1.630 -77.658-147.221  1.00  0.00     0.217 HD
ENDBRANCH   2  16
BRANCH   3  18
HETATM   18  N4  UNL     1      -2.445 -78.953-145.010  1.00  0.00    -0.107 N 
HETATM   19  O3  UNL     1      -2.939 -77.804-145.145  1.00  0.00    -0.531 OA
HETATM   20  O4  UNL     1      -3.297 -79.980-144.731  1.00  0.00    -0.531 OA
ENDBRANCH   3  18
BRANCH   6  21
HETATM   21  N6  UNL     1       1.602 -80.625-143.037  1.00  0.00    -0.334 N 
ATOM     22  H62 UNL     1       2.558 -80.334-142.831  1.00  0.00     0.177 HD
ATOM     23  H61 UNL     1       1.097 -81.311-142.476  1.00  0.00     0.177 HD
ENDBRANCH   6  21
TORSDOF 4
ENDMDL
MODEL 2
REMARK VINA RESULT: -8.265902342      2.143      3.534
REMARK  4 active torsions:
REMARK  status: ('A' for Active; 'I' for Inactive)
REMARK       I    between atoms: N3_4  and  C2_6 
REMARK    1  A    between atoms: C2_6  and  C3_8 
REMARK    2  A    between atoms: C4_9  and  O2_10 
REMARK    3  A    between atoms: C5_12  and  N4_13 
REMARK    4  A    between atoms: N5_18  and  N6_19 
ROOT
HETATM    1  C3  UNL     1       1.182 -79.858-144.893  1.00  0.00     0.111 A 
HETATM    2  C4  UNL     1       1.478 -80.695-143.827  1.00  0.00     0.123 A 
HETATM    3  C5  UNL     1       0.545 -80.916-142.846  1.00  0.00     0.206 A 
HETATM    4  C6  UNL     1      -0.667 -80.278-142.978  1.00  0.00     0.303 A 
HETATM    5  O5  UNL     1      -1.524 -80.498-142.051  1.00  0.00    -0.263 OA
HETATM    6  N5  UNL     1      -0.938 -79.472-144.017  1.00  0.00    -0.210 N 
HETATM    7  C7  UNL     1      -0.057 -79.226-145.000  1.00  0.00     0.159 A 
HETATM    8  N7  UNL     1      -0.354 -78.366-146.102  1.00  0.00    -0.079 NA
ENDROOT
BRANCH   1   9
HETATM    9  C2  UNL     1       2.166 -79.627-145.933  1.00  0.00     0.264 C 
HETATM   10  N3  UNL     1       2.536 -78.346-146.339  1.00  0.00    -0.299 N 
HETATM   11  C1  UNL     1       2.950 -78.061-147.521  1.00  0.00     0.203 C 
ATOM     12  H3  UNL     1       2.476 -77.590-145.657  1.00  0.00     0.171 HD
HETATM   13  N1  UNL     1       3.310 -76.729-147.857  1.00  0.00    -0.066 NA
HETATM   14  N2  UNL     1       3.052 -79.080-148.497  1.00  0.00    -0.066 NA
HETATM   15  O1  UNL     1       2.695 -80.649-146.476  1.00  0.00    -0.267 OA
ENDBRANCH   1   9
BRANCH   2  16
HETATM   16  O2  UNL     1       2.720 -81.316-143.738  1.00  0.00    -0.357 OA
ATOM     17  H2  UNL     1       2.872 -82.002-143.098  1.00  0.00     0.217 HD
ENDBRANCH   2  16
BRANCH   3  18
HETATM   18  N4  UNL     1       0.770 -81.764-141.711  1.00  0.00    -0.107 N 
HETATM   19  O3  UNL     1       1.216 -81.322-140.622  1.00  0.00    -0.531 OA
HETATM   20  O4  UNL     1       0.501 -83.098-141.791  1.00  0.00    -0.531 OA
ENDBRANCH   3  18
BRANCH   6  21
HETATM   21  N6  UNL     1      -2.208 -78.847-144.097  1.00  0.00    -0.334 N 
ATOM     22  H62 UNL     1      -2.264 -77.945-144.571  1.00  0.00     0.177 HD
ATOM     23  H61 UNL     1      -3.018 -79.311-143.687  1.00  0.00     0.177 HD
ENDBRANCH   6  21
TORSDOF 4
ENDMDL
MODEL 3
REMARK VINA RESULT: -7.666973676      1.494      1.794
REMARK  4 active torsions:
REMARK  status: ('A' for Active; 'I' for Inactive)
REMARK       I    between atoms: N3_4  and  C2_6 
REMARK    1  A    between atoms: C2_6  and  C3_8 
REMARK    2  A    between atoms: C4_9  and  O2_10 
REMARK    3  A    between atoms: C5_12  and  N4_13 
REMARK    4  A    between atoms: N5_18  and  N6_19 
ROOT
HETATM    1  C3  UNL     1       1.416 -79.592-145.729  1.00  0.00     0.111 A 
HETATM    2  C4  UNL     1       0.334 -79.241-144.934  1.00  0.00     0.123 A 
HETATM    3  C5  UNL     1       0.123 -79.878-143.738  1.00  0.00     0.206 A 
HETATM    4  C6  UNL     1       1.021 -80.858-143.382  1.00  0.00     0.303 A 
HETATM    5  O5  UNL     1       0.805 -81.440-142.261  1.00  0.00    -0.263 OA
HETATM    6  N5  UNL     1       2.063 -81.185-144.163  1.00  0.00    -0.210 N 
HETATM    7  C7  UNL     1       2.310 -80.590-145.341  1.00  0.00     0.159 A 
HETATM    8  N7  UNL     1       3.422 -80.945-146.164  1.00  0.00    -0.079 NA
ENDROOT
BRANCH   1   9
HETATM    9  C2  UNL     1       1.643 -78.916-146.992  1.00  0.00     0.264 C 
HETATM   10  N3  UNL     1       2.734 -78.076-147.203  1.00  0.00    -0.299 N 
HETATM   11  C1  UNL     1       2.728 -77.088-148.024  1.00  0.00     0.203 C 
ATOM     12  H3  UNL     1       3.588 -78.256-146.676  1.00  0.00     0.171 HD
HETATM   13  N1  UNL     1       3.883 -76.277-148.183  1.00  0.00    -0.066 NA
HETATM   14  N2  UNL     1       1.565 -76.804-148.778  1.00  0.00    -0.066 NA
HETATM   15  O1  UNL     1       0.800 -79.119-147.924  1.00  0.00    -0.267 OA
ENDBRANCH   1   9
BRANCH   2  16
HETATM   16  O2  UNL     1      -0.548 -78.243-145.339  1.00  0.00    -0.357 OA
ATOM     17  H2  UNL     1      -1.460 -78.445-145.510  1.00  0.00     0.217 HD
ENDBRANCH   2  16
BRANCH   3  18
HETATM   18  N4  UNL     1      -0.969 -79.577-142.859  1.00  0.00    -0.107 N 
HETATM   19  O3  UNL     1      -1.174 -78.418-142.416  1.00  0.00    -0.531 OA
HETATM   20  O4  UNL     1      -1.829 -80.563-142.474  1.00  0.00    -0.531 OA
ENDBRANCH   3  18
BRANCH   6  21
HETATM   21  N6  UNL     1       2.955 -82.202-143.737  1.00  0.00    -0.334 N 
ATOM     22  H62 UNL     1       2.673 -83.172-143.880  1.00  0.00     0.177 HD
ATOM     23  H61 UNL     1       3.843 -81.939-143.310  1.00  0.00     0.177 HD
ENDBRANCH   6  21
TORSDOF 4
ENDMDL
MODEL 4
REMARK VINA RESULT: -7.189342498      2.674      4.596
REMARK  4 active torsions:
REMARK  status: ('A' for Active; 'I' for Inactive)
REMARK       I    between atoms: N3_4  and  C2_6 
REMARK    1  A    between atoms: C2_6  and  C3_8 
REMARK    2  A    between atoms: C4_9  and  O2_10 
REMARK    3  A    between atoms: C5_12  and  N4_13 
REMARK    4  A    between atoms: N5_18  and  N6_19 
ROOT
HETATM    1  C3  UNL     1      -1.104 -78.992-146.385  1.00  0.00     0.111 A 
HETATM    2  C4  UNL     1       0.220 -79.357-146.582  1.00  0.00     0.123 A 
HETATM    3  C5  UNL     1       1.015 -79.671-145.509  1.00  0.00     0.206 A 
HETATM    4  C6  UNL     1       0.438 -79.605-144.261  1.00  0.00     0.303 A 
HETATM    5  O5  UNL     1       1.198 -79.901-143.273  1.00  0.00    -0.263 OA
HETATM    6  N5  UNL     1      -0.845 -79.250-144.088  1.00  0.00    -0.210 N 
HETATM    7  C7  UNL     1      -1.661 -78.935-145.107  1.00  0.00     0.159 A 
HETATM    8  N7  UNL     1      -3.025 -78.559-144.913  1.00  0.00    -0.079 NA
ENDROOT
BRANCH   1   9
HETATM    9  C2  UNL     1      -1.947 -78.665-147.519  1.00  0.00     0.264 C 
HETATM   10  N3  UNL     1      -2.476 -77.390-147.713  1.00  0.00    -0.299 N 
HETATM   11  C1  UNL     1      -3.580 -77.159-148.327  1.00  0.00     0.203 C 
ATOM     12  H3  UNL     1      -1.956 -76.593-147.345  1.00  0.00     0.171 HD
HETATM   13  N1  UNL     1      -4.052 -75.829-148.483  1.00  0.00    -0.066 NA
HETATM   14  N2  UNL     1      -4.331 -78.235-148.855  1.00  0.00    -0.066 NA
HETATM   15  O1  UNL     1      -2.193 -79.594-148.353  1.00  0.00    -0.267 OA
ENDBRANCH   1   9
BRANCH   2  16
HETATM   16  O2  UNL     1       0.757 -79.408-147.865  1.00  0.00    -0.357 OA
ATOM     17  H2  UNL     1       1.661 -79.668-148.000  1.00  0.00     0.217 HD
ENDBRANCH   2  16
BRANCH   3  18
HETATM   18  N4  UNL     1       2.391 -80.056-145.625  1.00  0.00    -0.107 N 
HETATM   19  O3  UNL     1       3.287 -79.246-145.974  1.00  0.00    -0.531 OA
HETATM   20  O4  UNL     1       2.767 -81.339-145.353  1.00  0.00    -0.531 OA
ENDBRANCH   3  18
BRANCH   6  21
HETATM   21  N6  UNL     1      -1.381 -79.205-142.776  1.00  0.00    -0.334 N 
ATOM     22  H62 UNL     1      -2.184 -78.597-142.612  1.00  0.00     0.177 HD
ATOM     23  H61 UNL     1      -0.957 -79.775-142.045  1.00  0.00     0.177 HD
ENDBRANCH   6  21
TORSDOF 4
ENDMDL
MODEL 5
REMARK VINA RESULT: -7.125140209      2.276      4.705
REMARK  4 active torsions:
REMARK  status: ('A' for Active; 'I' for Inactive)
REMARK       I    between atoms: N3_4  and  C2_6 
REMARK    1  A    between atoms: C2_6  and  C3_8 
REMARK    2  A    between atoms: C4_9  and  O2_10 
REMARK    3  A    between atoms: C5_12  and  N4_13 
REMARK    4  A    between atoms: N5_18  and  N6_19 
ROOT
HETATM    1  C3  UNL     1      -0.226 -79.077-145.637  1.00  0.00     0.111 A 
HETATM    2  C4  UNL     1       0.944 -79.126-146.382  1.00  0.00     0.123 A 
HETATM    3  C5  UNL     1       2.057 -79.747-145.877  1.00  0.00     0.206 A 
HETATM    4  C6  UNL     1       1.950 -80.304-144.623  1.00  0.00     0.303 A 
HETATM    5  O5  UNL     1       3.001 -80.879-144.169  1.00  0.00    -0.263 OA
HETATM    6  N5  UNL     1       0.810 -80.249-143.915  1.00  0.00    -0.210 N 
HETATM    7  C7  UNL     1      -0.305 -79.652-144.369  1.00  0.00     0.159 A 
HETATM    8  N7  UNL     1      -1.513 -79.599-143.608  1.00  0.00    -0.079 NA
ENDROOT
BRANCH   1   9
HETATM    9  C2  UNL     1      -1.405 -78.425-146.172  1.00  0.00     0.264 C 
HETATM   10  N3  UNL     1      -2.173 -78.988-147.190  1.00  0.00    -0.299 N 
HETATM   11  C1  UNL     1      -2.853 -78.302-148.036  1.00  0.00     0.203 C 
ATOM     12  H3  UNL     1      -2.197 -80.004-147.267  1.00  0.00     0.171 HD
HETATM   13  N1  UNL     1      -3.612 -78.951-149.046  1.00  0.00    -0.066 NA
HETATM   14  N2  UNL     1      -2.850 -76.889-147.964  1.00  0.00    -0.066 NA
HETATM   15  O1  UNL     1      -1.728 -77.299-145.674  1.00  0.00    -0.267 OA
ENDBRANCH   1   9
BRANCH   2  16
HETATM   16  O2  UNL     1       1.003 -78.546-147.646  1.00  0.00    -0.357 OA
ATOM     17  H2  UNL     1       0.428 -78.844-148.341  1.00  0.00     0.217 HD
ENDBRANCH   2  16
BRANCH   3  18
HETATM   18  N4  UNL     1       3.304 -79.841-146.580  1.00  0.00    -0.107 N 
HETATM   19  O3  UNL     1       3.546 -80.765-147.397  1.00  0.00    -0.531 OA
HETATM   20  O4  UNL     1       4.277 -78.908-146.372  1.00  0.00    -0.531 OA
ENDBRANCH   3  18
BRANCH   6  21
HETATM   21  N6  UNL     1       0.762 -80.846-142.630  1.00  0.00    -0.334 N 
ATOM     22  H62 UNL     1       1.362 -81.653-142.459  1.00  0.00     0.177 HD
ATOM     23  H61 UNL     1       0.141 -80.455-141.922  1.00  0.00     0.177 HD
ENDBRANCH   6  21
TORSDOF 4
ENDMDL
