MODEL 1
REMARK VINA RESULT: -9.494467763      0.000      0.000
REMARK  9 active torsions:
REMARK  status: ('A' for Active; 'I' for Inactive)
REMARK       I    between atoms: C2_4  and  N2_5 
REMARK       I    between atoms: C2_4  and  N12_41 
REMARK       I    between atoms: C3_7  and  N4_9 
REMARK    1  A    between atoms: N4_9  and  C4_11 
REMARK    2  A    between atoms: C4_11  and  C5_12 
REMARK    3  A    between atoms: C5_12  and  N5_13 
REMARK       I    between atoms: N5_13  and  C6_15 
REMARK    4  A    between atoms: C6_15  and  C7_17 
REMARK    5  A    between atoms: C7_17  and  S1_18 
REMARK    6  A    between atoms: S1_18  and  C8_19 
REMARK    7  A    between atoms: C9_22  and  C10_23 
REMARK    8  A    between atoms: N7_28  and  C14_29 
REMARK    9  A    between atoms: C15_35  and  N10_36 
ROOT
HETATM    1  C1  UNL     1      43.976  23.893  11.775  1.00  0.00     0.165 C 
HETATM    2  N1  UNL     1      44.300  25.167  12.345  1.00  0.00    -0.230 N 
ATOM      3  H1  UNL     1      45.086  25.228  12.992  1.00  0.00     0.177 HD
HETATM    4  C2  UNL     1      43.646  26.227  12.077  1.00  0.00     0.689 C 
HETATM    5  N2  UNL     1      42.548  26.187  11.189  1.00  0.00    -0.163 N 
ATOM      6  H2  UNL     1      42.757  26.034  10.202  1.00  0.00     0.187 HD
HETATM    7  C3  UNL     1      41.333  26.321  11.501  1.00  0.00     0.202 C 
HETATM    8  N3  UNL     1      40.295  26.275  10.545  1.00  0.00    -0.063 NA
HETATM    9  N4  UNL     1      40.947  26.496  12.902  1.00  0.00    -0.362 N 
ATOM     10  H4  UNL     1      40.975  27.400  13.376  1.00  0.00     0.162 HD
HETATM   11  N12 UNL     1      44.000  27.477  12.652  1.00  0.00    -0.126 N 
ATOM     12  H12 UNL     1      44.193  28.284  12.057  1.00  0.00     0.197 HD
HETATM   13  C16 UNL     1      44.081  27.585  14.027  1.00  0.00     0.196 C 
HETATM   14  N13 UNL     1      44.142  27.670  15.169  1.00  0.00    -0.171 NA
ENDROOT
BRANCH   9  15
HETATM   15  C4  UNL     1      40.536  25.319  13.538  1.00  0.00     0.142 C 
BRANCH  15  16
HETATM   16  C5  UNL     1      39.121  25.003  13.710  1.00  0.00     0.142 C 
BRANCH  16  17
HETATM   17  N5  UNL     1      38.600  23.839  13.108  1.00  0.00    -0.359 N 
HETATM   18  C6  UNL     1      37.276  23.423  13.003  1.00  0.00     0.227 C 
HETATM   19  O1  UNL     1      36.272  23.987  13.453  1.00  0.00    -0.273 OA
ATOM     20  H5  UNL     1      39.289  23.215  12.691  1.00  0.00     0.162 HD
BRANCH  18  21
HETATM   21  C7  UNL     1      36.995  22.134  12.262  1.00  0.00     0.185 C 
BRANCH  21  22
HETATM   22  S1  UNL     1      37.156  20.722  13.369  1.00  0.00    -0.083 SA
BRANCH  22  23
HETATM   23  C8  UNL     1      36.516  19.285  12.470  1.00  0.00     0.161 A 
HETATM   24  N6  UNL     1      35.699  18.319  12.907  1.00  0.00    -0.319 N 
HETATM   25  C9  UNL     1      35.418  17.449  11.886  1.00  0.00     0.148 A 
ATOM     26  H6  UNL     1      35.338  18.242  13.858  1.00  0.00     0.169 HD
HETATM   27  N7  UNL     1      36.071  17.892  10.813  1.00  0.00    -0.215 N 
HETATM   28  N11 UNL     1      36.737  19.007  11.182  1.00  0.00    -0.270 N 
ATOM     29  H11 UNL     1      37.328  19.562  10.562  1.00  0.00     0.190 HD
BRANCH  25  30
HETATM   30  C10 UNL     1      34.562  16.281  12.092  1.00  0.00     0.051 A 
HETATM   31  C11 UNL     1      33.900  15.841  13.196  1.00  0.00     0.023 A 
HETATM   32  C12 UNL     1      33.174  14.718  13.091  1.00  0.00     0.009 A 
HETATM   33  C13 UNL     1      33.148  14.089  11.880  1.00  0.00     0.050 A 
HETATM   34  S2  UNL     1      34.141  15.087  10.918  1.00  0.00    -0.098 SA
ENDBRANCH  25  30
BRANCH  27  35
HETATM   35  C14 UNL     1      36.088  17.373   9.489  1.00  0.00     0.196 A 
HETATM   36  N8  UNL     1      35.504  17.860   8.371  1.00  0.00    -0.220 N 
HETATM   37  O2  UNL     1      35.804  17.072   7.384  1.00  0.00    -0.153 OA
ATOM     38  H8  UNL     1      34.928  18.699   8.313  1.00  0.00     0.198 HD
HETATM   39  N9  UNL     1      36.551  16.082   7.754  1.00  0.00    -0.222 N 
HETATM   40  C15 UNL     1      36.756  16.233   9.078  1.00  0.00     0.169 A 
ATOM     41  H9  UNL     1      36.913  15.334   7.161  1.00  0.00     0.198 HD
BRANCH  40  42
HETATM   42  N10 UNL     1      37.473  15.408   9.778  1.00  0.00    -0.381 N 
ATOM     43 2H10 UNL     1      38.365  15.036   9.451  1.00  0.00     0.157 HD
ATOM     44 1H10 UNL     1      37.288  15.020  10.703  1.00  0.00     0.157 HD
ENDBRANCH  40  42
ENDBRANCH  27  35
ENDBRANCH  22  23
ENDBRANCH  21  22
ENDBRANCH  18  21
ENDBRANCH  16  17
ENDBRANCH  15  16
ENDBRANCH   9  15
TORSDOF 9
ENDMDL
MODEL 2
REMARK VINA RESULT: -9.234786958      1.414      1.844
REMARK  9 active torsions:
REMARK  status: ('A' for Active; 'I' for Inactive)
REMARK       I    between atoms: C2_4  and  N2_5 
REMARK       I    between atoms: C2_4  and  N12_41 
REMARK       I    between atoms: C3_7  and  N4_9 
REMARK    1  A    between atoms: N4_9  and  C4_11 
REMARK    2  A    between atoms: C4_11  and  C5_12 
REMARK    3  A    between atoms: C5_12  and  N5_13 
REMARK       I    between atoms: N5_13  and  C6_15 
REMARK    4  A    between atoms: C6_15  and  C7_17 
REMARK    5  A    between atoms: C7_17  and  S1_18 
REMARK    6  A    between atoms: S1_18  and  C8_19 
REMARK    7  A    between atoms: C9_22  and  C10_23 
REMARK    8  A    between atoms: N7_28  and  C14_29 
REMARK    9  A    between atoms: C15_35  and  N10_36 
ROOT
HETATM    1  C1  UNL     1      43.594  26.218  14.878  1.00  0.00     0.165 C 
HETATM    2  N1  UNL     1      43.320  27.038  13.734  1.00  0.00    -0.230 N 
ATOM      3  H1  UNL     1      43.416  28.050  13.824  1.00  0.00     0.177 HD
HETATM    4  C2  UNL     1      42.961  26.556  12.611  1.00  0.00     0.689 C 
HETATM    5  N2  UNL     1      42.812  25.161  12.445  1.00  0.00    -0.163 N 
ATOM      6  H2  UNL     1      43.665  24.602  12.443  1.00  0.00     0.187 HD
HETATM    7  C3  UNL     1      41.722  24.541  12.300  1.00  0.00     0.202 C 
HETATM    8  N3  UNL     1      41.663  23.141  12.132  1.00  0.00    -0.063 NA
HETATM    9  N4  UNL     1      40.451  25.266  12.340  1.00  0.00    -0.362 N 
ATOM     10  H4  UNL     1      40.066  25.753  11.531  1.00  0.00     0.162 HD
HETATM   11  N12 UNL     1      42.708  27.397  11.494  1.00  0.00    -0.126 N 
ATOM     12  H12 UNL     1      43.196  27.246  10.611  1.00  0.00     0.197 HD
HETATM   13  C16 UNL     1      41.790  28.422  11.621  1.00  0.00     0.196 C 
HETATM   14  N13 UNL     1      41.023  29.269  11.730  1.00  0.00    -0.171 NA
ENDROOT
BRANCH   9  15
HETATM   15  C4  UNL     1      39.809  25.233  13.583  1.00  0.00     0.142 C 
BRANCH  15  16
HETATM   16  C5  UNL     1      38.577  24.475  13.782  1.00  0.00     0.142 C 
BRANCH  16  17
HETATM   17  N5  UNL     1      38.499  23.154  13.294  1.00  0.00    -0.359 N 
HETATM   18  C6  UNL     1      37.400  22.472  12.782  1.00  0.00     0.227 C 
HETATM   19  O1  UNL     1      36.239  22.884  12.679  1.00  0.00    -0.273 OA
ATOM     20  H5  UNL     1      39.370  22.625  13.319  1.00  0.00     0.162 HD
BRANCH  18  21
HETATM   21  C7  UNL     1      37.611  21.057  12.288  1.00  0.00     0.185 C 
BRANCH  21  22
HETATM   22  S1  UNL     1      37.205  19.869  13.581  1.00  0.00    -0.083 SA
BRANCH  22  23
HETATM   23  C8  UNL     1      36.329  18.505  12.774  1.00  0.00     0.161 A 
HETATM   24  N6  UNL     1      35.541  17.573  13.323  1.00  0.00    -0.319 N 
HETATM   25  C9  UNL     1      35.032  16.758  12.346  1.00  0.00     0.148 A 
ATOM     26  H6  UNL     1      35.348  17.483  14.321  1.00  0.00     0.169 HD
HETATM   27  N7  UNL     1      35.515  17.201  11.186  1.00  0.00    -0.215 N 
HETATM   28  N11 UNL     1      36.303  18.262  11.460  1.00  0.00    -0.270 N 
ATOM     29  H11 UNL     1      36.811  18.803  10.760  1.00  0.00     0.190 HD
BRANCH  25  30
HETATM   30  C10 UNL     1      34.153  15.634  12.669  1.00  0.00     0.051 A 
HETATM   31  C11 UNL     1      33.447  15.348  13.797  1.00  0.00     0.023 A 
HETATM   32  C12 UNL     1      32.709  14.228  13.812  1.00  0.00     0.009 A 
HETATM   33  C13 UNL     1      32.717  13.446  12.692  1.00  0.00     0.050 A 
HETATM   34  S2  UNL     1      33.756  14.303  11.646  1.00  0.00    -0.098 SA
ENDBRANCH  25  30
BRANCH  27  35
HETATM   35  C14 UNL     1      35.267  16.729   9.867  1.00  0.00     0.196 A 
HETATM   36  N8  UNL     1      34.089  16.535   9.234  1.00  0.00    -0.220 N 
HETATM   37  O2  UNL     1      34.341  16.116   8.032  1.00  0.00    -0.153 OA
ATOM     38  H8  UNL     1      33.163  16.690   9.632  1.00  0.00     0.198 HD
HETATM   39  N9  UNL     1      35.611  16.010   7.803  1.00  0.00    -0.222 N 
HETATM   40  C15 UNL     1      36.234  16.389   8.937  1.00  0.00     0.169 A 
ATOM     41  H9  UNL     1      36.053  15.701   6.937  1.00  0.00     0.198 HD
BRANCH  40  42
HETATM   42  N10 UNL     1      37.527  16.407   9.058  1.00  0.00    -0.381 N 
ATOM     43 2H10 UNL     1      38.155  16.480   8.258  1.00  0.00     0.157 HD
ATOM     44 1H10 UNL     1      38.095  16.358   9.904  1.00  0.00     0.157 HD
ENDBRANCH  40  42
ENDBRANCH  27  35
ENDBRANCH  22  23
ENDBRANCH  21  22
ENDBRANCH  18  21
ENDBRANCH  16  17
ENDBRANCH  15  16
ENDBRANCH   9  15
TORSDOF 9
ENDMDL
MODEL 3
REMARK VINA RESULT: -9.085398061      1.321      1.467
REMARK  9 active torsions:
REMARK  status: ('A' for Active; 'I' for Inactive)
REMARK       I    between atoms: C2_4  and  N2_5 
REMARK       I    between atoms: C2_4  and  N12_41 
REMARK       I    between atoms: C3_7  and  N4_9 
REMARK    1  A    between atoms: N4_9  and  C4_11 
REMARK    2  A    between atoms: C4_11  and  C5_12 
REMARK    3  A    between atoms: C5_12  and  N5_13 
REMARK       I    between atoms: N5_13  and  C6_15 
REMARK    4  A    between atoms: C6_15  and  C7_17 
REMARK    5  A    between atoms: C7_17  and  S1_18 
REMARK    6  A    between atoms: S1_18  and  C8_19 
REMARK    7  A    between atoms: C9_22  and  C10_23 
REMARK    8  A    between atoms: N7_28  and  C14_29 
REMARK    9  A    between atoms: C15_35  and  N10_36 
ROOT
HETATM    1  C1  UNL     1      42.894  23.641  11.507  1.00  0.00     0.165 C 
HETATM    2  N1  UNL     1      43.330  24.789  12.246  1.00  0.00    -0.230 N 
ATOM      3  H1  UNL     1      44.172  24.714  12.816  1.00  0.00     0.177 HD
HETATM    4  C2  UNL     1      42.706  25.901  12.221  1.00  0.00     0.689 C 
HETATM    5  N2  UNL     1      41.533  26.047  11.448  1.00  0.00    -0.163 N 
ATOM      6  H2  UNL     1      41.646  26.057  10.435  1.00  0.00     0.187 HD
HETATM    7  C3  UNL     1      40.359  26.167  11.894  1.00  0.00     0.202 C 
HETATM    8  N3  UNL     1      39.239  26.317  11.048  1.00  0.00    -0.063 NA
HETATM    9  N4  UNL     1      40.109  26.115  13.335  1.00  0.00    -0.362 N 
ATOM     10  H4  UNL     1      40.223  26.924  13.947  1.00  0.00     0.162 HD
HETATM   11  N12 UNL     1      43.172  27.023  12.957  1.00  0.00    -0.126 N 
ATOM     12  H12 UNL     1      43.349  27.912  12.489  1.00  0.00     0.197 HD
HETATM   13  C16 UNL     1      43.380  26.894  14.318  1.00  0.00     0.196 C 
HETATM   14  N13 UNL     1      43.547  26.783  15.447  1.00  0.00    -0.171 NA
ENDROOT
BRANCH   9  15
HETATM   15  C4  UNL     1      39.699  24.861  13.804  1.00  0.00     0.142 C 
BRANCH  15  16
HETATM   16  C5  UNL     1      38.458  24.246  13.343  1.00  0.00     0.142 C 
BRANCH  16  17
HETATM   17  N5  UNL     1      38.437  22.861  13.075  1.00  0.00    -0.359 N 
HETATM   18  C6  UNL     1      37.378  22.066  12.651  1.00  0.00     0.227 C 
HETATM   19  O1  UNL     1      36.209  22.415  12.448  1.00  0.00    -0.273 OA
ATOM     20  H5  UNL     1      39.323  22.375  13.212  1.00  0.00     0.162 HD
BRANCH  18  21
HETATM   21  C7  UNL     1      37.650  20.598  12.401  1.00  0.00     0.185 C 
BRANCH  21  22
HETATM   22  S1  UNL     1      36.881  19.588  13.680  1.00  0.00    -0.083 SA
BRANCH  22  23
HETATM   23  C8  UNL     1      36.057  18.217  12.831  1.00  0.00     0.161 A 
HETATM   24  N6  UNL     1      35.273  17.262  13.346  1.00  0.00    -0.319 N 
HETATM   25  C9  UNL     1      34.809  16.449  12.344  1.00  0.00     0.148 A 
ATOM     26  H6  UNL     1      35.054  17.154  14.336  1.00  0.00     0.169 HD
HETATM   27  N7  UNL     1      35.314  16.918  11.205  1.00  0.00    -0.215 N 
HETATM   28  N11 UNL     1      36.073  17.991  11.514  1.00  0.00    -0.270 N 
ATOM     29  H11 UNL     1      36.588  18.552  10.835  1.00  0.00     0.190 HD
BRANCH  25  30
HETATM   30  C10 UNL     1      33.945  15.304  12.629  1.00  0.00     0.051 A 
HETATM   31  C11 UNL     1      33.579  14.246  11.855  1.00  0.00     0.023 A 
HETATM   32  C12 UNL     1      32.762  13.326  12.388  1.00  0.00     0.009 A 
HETATM   33  C13 UNL     1      32.348  13.514  13.677  1.00  0.00     0.050 A 
HETATM   34  S2  UNL     1      33.117  14.974  14.107  1.00  0.00    -0.098 SA
ENDBRANCH  25  30
BRANCH  27  35
HETATM   35  C14 UNL     1      35.113  16.459   9.873  1.00  0.00     0.196 A 
HETATM   36  N8  UNL     1      33.957  16.207   9.219  1.00  0.00    -0.220 N 
HETATM   37  O2  UNL     1      34.251  15.829   8.013  1.00  0.00    -0.153 OA
ATOM     38  H8  UNL     1      33.018  16.298   9.606  1.00  0.00     0.198 HD
HETATM   39  N9  UNL     1      35.528  15.804   7.801  1.00  0.00    -0.222 N 
HETATM   40  C15 UNL     1      36.111  16.197   8.951  1.00  0.00     0.169 A 
ATOM     41  H9  UNL     1      35.999  15.540   6.935  1.00  0.00     0.198 HD
BRANCH  40  42
HETATM   42  N10 UNL     1      37.399  16.290   9.091  1.00  0.00    -0.381 N 
ATOM     43 2H10 UNL     1      37.940  15.646   9.667  1.00  0.00     0.157 HD
ATOM     44 1H10 UNL     1      38.043  16.967   8.680  1.00  0.00     0.157 HD
ENDBRANCH  40  42
ENDBRANCH  27  35
ENDBRANCH  22  23
ENDBRANCH  21  22
ENDBRANCH  18  21
ENDBRANCH  16  17
ENDBRANCH  15  16
ENDBRANCH   9  15
TORSDOF 9
ENDMDL
MODEL 4
REMARK VINA RESULT: -9.050862056      1.834      3.122
REMARK  9 active torsions:
REMARK  status: ('A' for Active; 'I' for Inactive)
REMARK       I    between atoms: C2_4  and  N2_5 
REMARK       I    between atoms: C2_4  and  N12_41 
REMARK       I    between atoms: C3_7  and  N4_9 
REMARK    1  A    between atoms: N4_9  and  C4_11 
REMARK    2  A    between atoms: C4_11  and  C5_12 
REMARK    3  A    between atoms: C5_12  and  N5_13 
REMARK       I    between atoms: N5_13  and  C6_15 
REMARK    4  A    between atoms: C6_15  and  C7_17 
REMARK    5  A    between atoms: C7_17  and  S1_18 
REMARK    6  A    between atoms: S1_18  and  C8_19 
REMARK    7  A    between atoms: C9_22  and  C10_23 
REMARK    8  A    between atoms: N7_28  and  C14_29 
REMARK    9  A    between atoms: C15_35  and  N10_36 
ROOT
HETATM    1  C1  UNL     1      38.899  29.098  12.683  1.00  0.00     0.165 C 
HETATM    2  N1  UNL     1      39.231  28.460  11.443  1.00  0.00    -0.230 N 
ATOM      3  H1  UNL     1      38.652  28.650  10.625  1.00  0.00     0.177 HD
HETATM    4  C2  UNL     1      40.220  27.666  11.320  1.00  0.00     0.689 C 
HETATM    5  N2  UNL     1      41.046  27.373  12.428  1.00  0.00    -0.163 N 
ATOM      6  H2  UNL     1      41.653  28.121  12.761  1.00  0.00     0.187 HD
HETATM    7  C3  UNL     1      41.102  26.273  13.044  1.00  0.00     0.202 C 
HETATM    8  N3  UNL     1      41.965  26.062  14.141  1.00  0.00    -0.063 NA
HETATM    9  N4  UNL     1      40.226  25.166  12.657  1.00  0.00    -0.362 N 
ATOM     10  H4  UNL     1      40.444  24.531  11.887  1.00  0.00     0.162 HD
HETATM   11  N12 UNL     1      40.527  27.058  10.073  1.00  0.00    -0.126 N 
ATOM     12  H12 UNL     1      41.456  27.159   9.663  1.00  0.00     0.197 HD
HETATM   13  C16 UNL     1      39.550  26.329   9.422  1.00  0.00     0.196 C 
HETATM   14  N13 UNL     1      38.736  25.721   8.889  1.00  0.00    -0.171 NA
ENDROOT
BRANCH   9  15
HETATM   15  C4  UNL     1      39.067  25.050  13.431  1.00  0.00     0.142 C 
BRANCH  15  16
HETATM   16  C5  UNL     1      37.966  24.180  13.026  1.00  0.00     0.142 C 
BRANCH  16  17
HETATM   17  N5  UNL     1      38.167  22.784  13.005  1.00  0.00    -0.359 N 
HETATM   18  C6  UNL     1      37.302  21.780  12.582  1.00  0.00     0.227 C 
HETATM   19  O1  UNL     1      36.148  21.910  12.159  1.00  0.00    -0.273 OA
ATOM     20  H5  UNL     1      39.073  22.467  13.348  1.00  0.00     0.162 HD
BRANCH  18  21
HETATM   21  C7  UNL     1      37.797  20.351  12.634  1.00  0.00     0.185 C 
BRANCH  21  22
HETATM   22  S1  UNL     1      36.887  19.413  13.875  1.00  0.00    -0.083 SA
BRANCH  22  23
HETATM   23  C8  UNL     1      36.026  18.086  12.993  1.00  0.00     0.161 A 
HETATM   24  N6  UNL     1      35.234  17.127  13.487  1.00  0.00    -0.319 N 
HETATM   25  C9  UNL     1      34.740  16.358  12.466  1.00  0.00     0.148 A 
ATOM     26  H6  UNL     1      35.028  16.989  14.477  1.00  0.00     0.169 HD
HETATM   27  N7  UNL     1      35.236  16.857  11.335  1.00  0.00    -0.215 N 
HETATM   28  N11 UNL     1      36.018  17.906  11.669  1.00  0.00    -0.270 N 
ATOM     29  H11 UNL     1      36.532  18.481  11.002  1.00  0.00     0.190 HD
BRANCH  25  30
HETATM   30  C10 UNL     1      33.861  15.218  12.725  1.00  0.00     0.051 A 
HETATM   31  C11 UNL     1      33.161  14.863  13.836  1.00  0.00     0.023 A 
HETATM   32  C12 UNL     1      32.421  13.746  13.787  1.00  0.00     0.009 A 
HETATM   33  C13 UNL     1      32.420  13.035  12.620  1.00  0.00     0.050 A 
HETATM   34  S2  UNL     1      33.455  13.953  11.623  1.00  0.00    -0.098 SA
ENDBRANCH  25  30
BRANCH  27  35
HETATM   35  C14 UNL     1      35.007  16.448   9.992  1.00  0.00     0.196 A 
HETATM   36  N8  UNL     1      33.866  16.487   9.267  1.00  0.00    -0.220 N 
HETATM   37  O2  UNL     1      34.127  16.033   8.080  1.00  0.00    -0.153 OA
ATOM     38  H8  UNL     1      32.959  16.816   9.596  1.00  0.00     0.198 HD
HETATM   39  N9  UNL     1      35.367  15.685   7.947  1.00  0.00    -0.222 N 
HETATM   40  C15 UNL     1      35.961  15.932   9.132  1.00  0.00     0.169 A 
ATOM     41  H9  UNL     1      35.808  15.301   7.111  1.00  0.00     0.198 HD
BRANCH  40  42
HETATM   42  N10 UNL     1      37.219  15.700   9.351  1.00  0.00    -0.381 N 
ATOM     43 2H10 UNL     1      37.645  15.785  10.274  1.00  0.00     0.157 HD
ATOM     44 1H10 UNL     1      37.944  15.412   8.692  1.00  0.00     0.157 HD
ENDBRANCH  40  42
ENDBRANCH  27  35
ENDBRANCH  22  23
ENDBRANCH  21  22
ENDBRANCH  18  21
ENDBRANCH  16  17
ENDBRANCH  15  16
ENDBRANCH   9  15
TORSDOF 9
ENDMDL
MODEL 5
REMARK VINA RESULT: -8.887291977      1.163      1.228
REMARK  9 active torsions:
REMARK  status: ('A' for Active; 'I' for Inactive)
REMARK       I    between atoms: C2_4  and  N2_5 
REMARK       I    between atoms: C2_4  and  N12_41 
REMARK       I    between atoms: C3_7  and  N4_9 
REMARK    1  A    between atoms: N4_9  and  C4_11 
REMARK    2  A    between atoms: C4_11  and  C5_12 
REMARK    3  A    between atoms: C5_12  and  N5_13 
REMARK       I    between atoms: N5_13  and  C6_15 
REMARK    4  A    between atoms: C6_15  and  C7_17 
REMARK    5  A    between atoms: C7_17  and  S1_18 
REMARK    6  A    between atoms: S1_18  and  C8_19 
REMARK    7  A    between atoms: C9_22  and  C10_23 
REMARK    8  A    between atoms: N7_28  and  C14_29 
REMARK    9  A    between atoms: C15_35  and  N10_36 
ROOT
HETATM    1  C1  UNL     1      42.846  26.318  10.063  1.00  0.00     0.165 C 
HETATM    2  N1  UNL     1      43.353  26.758  11.329  1.00  0.00    -0.230 N 
ATOM      3  H1  UNL     1      44.262  26.412  11.639  1.00  0.00     0.177 HD
HETATM    4  C2  UNL     1      42.716  27.562  12.085  1.00  0.00     0.689 C 
HETATM    5  N2  UNL     1      41.453  28.062  11.695  1.00  0.00    -0.163 N 
ATOM      6  H2  UNL     1      41.439  28.730  10.925  1.00  0.00     0.187 HD
HETATM    7  C3  UNL     1      40.342  27.759  12.211  1.00  0.00     0.202 C 
HETATM    8  N3  UNL     1      39.123  28.314  11.765  1.00  0.00    -0.063 NA
HETATM    9  N4  UNL     1      40.275  26.771  13.290  1.00  0.00    -0.362 N 
ATOM     10  H4  UNL     1      40.453  27.005  14.267  1.00  0.00     0.162 HD
HETATM   11  N12 UNL     1      43.253  27.987  13.329  1.00  0.00    -0.126 N 
ATOM     12  H12 UNL     1      43.358  28.981  13.536  1.00  0.00     0.197 HD
HETATM   13  C16 UNL     1      43.632  27.035  14.257  1.00  0.00     0.196 C 
HETATM   14  N13 UNL     1      43.940  26.240  15.025  1.00  0.00    -0.171 NA
ENDROOT
BRANCH   9  15
HETATM   15  C4  UNL     1      39.946  25.478  12.867  1.00  0.00     0.142 C 
BRANCH  15  16
HETATM   16  C5  UNL     1      39.150  24.585  13.703  1.00  0.00     0.142 C 
BRANCH  16  17
HETATM   17  N5  UNL     1      38.559  23.445  13.121  1.00  0.00    -0.359 N 
HETATM   18  C6  UNL     1      37.211  23.137  12.967  1.00  0.00     0.227 C 
HETATM   19  O1  UNL     1      36.239  23.801  13.345  1.00  0.00    -0.273 OA
ATOM     20  H5  UNL     1      39.211  22.748  12.763  1.00  0.00     0.162 HD
BRANCH  18  21
HETATM   21  C7  UNL     1      36.856  21.846  12.262  1.00  0.00     0.185 C 
BRANCH  21  22
HETATM   22  S1  UNL     1      37.243  20.429  13.306  1.00  0.00    -0.083 SA
BRANCH  22  23
HETATM   23  C8  UNL     1      36.430  18.995  12.555  1.00  0.00     0.161 A 
HETATM   24  N6  UNL     1      35.673  18.059  13.140  1.00  0.00    -0.319 N 
HETATM   25  C9  UNL     1      35.208  17.180  12.197  1.00  0.00     0.148 A 
ATOM     26  H6  UNL     1      35.473  18.007  14.139  1.00  0.00     0.169 HD
HETATM   27  N7  UNL     1      35.686  17.587  11.023  1.00  0.00    -0.215 N 
HETATM   28  N11 UNL     1      36.429  18.690  11.254  1.00  0.00    -0.270 N 
ATOM     29  H11 UNL     1      36.923  19.218  10.534  1.00  0.00     0.190 HD
BRANCH  25  30
HETATM   30  C10 UNL     1      34.370  16.038  12.565  1.00  0.00     0.051 A 
HETATM   31  C11 UNL     1      33.838  15.669  13.761  1.00  0.00     0.023 A 
HETATM   32  C12 UNL     1      33.093  14.554  13.804  1.00  0.00     0.009 A 
HETATM   33  C13 UNL     1      32.919  13.861  12.640  1.00  0.00     0.050 A 
HETATM   34  S2  UNL     1      33.802  14.792  11.516  1.00  0.00    -0.098 SA
ENDBRANCH  25  30
BRANCH  27  35
HETATM   35  C14 UNL     1      35.472  17.046   9.725  1.00  0.00     0.196 A 
HETATM   36  N8  UNL     1      34.323  16.937   9.021  1.00  0.00    -0.220 N 
HETATM   37  O2  UNL     1      34.603  16.400   7.873  1.00  0.00    -0.153 OA
ATOM     38  H8  UNL     1      33.398  17.227   9.337  1.00  0.00     0.198 HD
HETATM   39  N9  UNL     1      35.864  16.135   7.748  1.00  0.00    -0.222 N 
HETATM   40  C15 UNL     1      36.451  16.528   8.896  1.00  0.00     0.169 A 
ATOM     41  H9  UNL     1      36.322  15.711   6.940  1.00  0.00     0.198 HD
BRANCH  40  42
HETATM   42  N10 UNL     1      37.726  16.409   9.110  1.00  0.00    -0.381 N 
ATOM     43 2H10 UNL     1      38.206  16.893   9.869  1.00  0.00     0.157 HD
ATOM     44 1H10 UNL     1      38.415  15.854   8.601  1.00  0.00     0.157 HD
ENDBRANCH  40  42
ENDBRANCH  27  35
ENDBRANCH  22  23
ENDBRANCH  21  22
ENDBRANCH  18  21
ENDBRANCH  16  17
ENDBRANCH  15  16
ENDBRANCH   9  15
TORSDOF 9
ENDMDL
