MODEL 1
REMARK VINA RESULT: -5.139413928      0.000      0.000
REMARK  11 active torsions:
REMARK  status: ('A' for Active; 'I' for Inactive)
REMARK    1  A    between atoms: N2_5  and  N3_6 
REMARK    2  A    between atoms: C2_9  and  C3_10 
REMARK    3  A    between atoms: C6_18  and  O3_19 
REMARK    4  A    between atoms: O3_19  and  C7_20 
REMARK    5  A    between atoms: C7_20  and  C8_21 
REMARK       I    between atoms: C8_21  and  N5_23 
REMARK    6  A    between atoms: N5_23  and  C9_25 
REMARK    7  A    between atoms: C9_25  and  C10_26 
REMARK    8  A    between atoms: C10_26  and  O5_27 
REMARK    9  A    between atoms: C14_32  and  O6_33 
REMARK   10  A    between atoms: N6_35  and  C15_36 
REMARK   11  A    between atoms: C15_36  and  C16_37 
ROOT
HETATM    1  C3  UNL     1      36.571  18.362  11.868  1.00  0.00     0.088 A 
HETATM    2  N4  UNL     1      36.577  17.679  12.997  1.00  0.00    -0.277 N 
ATOM      3  H4  UNL     1      36.340  16.690  13.084  1.00  0.00     0.179 HD
HETATM    4  S1  UNL     1      37.032  18.675  14.270  1.00  0.00     0.264 S 
HETATM    5  O1  UNL     1      35.999  18.776  15.359  1.00  0.00    -0.200 OA
HETATM    6  O2  UNL     1      38.385  18.337  14.834  1.00  0.00    -0.200 OA
HETATM    7  C4  UNL     1      37.105  20.163  13.340  1.00  0.00     0.095 A 
HETATM    8  C5  UNL     1      37.337  21.451  13.749  1.00  0.00     0.063 A 
HETATM    9  C6  UNL     1      37.334  22.459  12.847  1.00  0.00     0.070 A 
HETATM   10  C11 UNL     1      37.094  22.132  11.539  1.00  0.00     0.038 A 
HETATM   11  C12 UNL     1      36.858  20.824  11.118  1.00  0.00     0.018 A 
HETATM   12  C13 UNL     1      36.857  19.761  12.040  1.00  0.00     0.017 A 
ENDROOT
BRANCH   1  13
HETATM   13  C2  UNL     1      36.187  17.584  10.661  1.00  0.00     0.153 A 
HETATM   14  N2  UNL     1      36.875  17.066   9.660  1.00  0.00    -0.086 N 
HETATM   15  C1  UNL     1      36.088  16.288   8.838  1.00  0.00     0.702 A 
HETATM   16  N1  UNL     1      36.449  15.640   7.772  1.00  0.00    -0.233 N 
HETATM   17  N6  UNL     1      34.860  16.315   9.342  1.00  0.00    -0.154 N 
ATOM     18  H12 UNL     1      37.392  15.619   7.385  1.00  0.00     0.174 HD
ATOM     19  H11 UNL     1      35.867  15.065   7.164  1.00  0.00     0.174 HD
HETATM   20  C14 UNL     1      34.888  17.084  10.437  1.00  0.00     0.190 A 
BRANCH  14  21
HETATM   21  N3  UNL     1      38.231  17.115   9.378  1.00  0.00    -0.324 N 
ATOM     22  H32 UNL     1      38.840  16.432   8.927  1.00  0.00     0.178 HD
ATOM     23  H31 UNL     1      38.719  17.987   9.583  1.00  0.00     0.178 HD
ENDBRANCH  14  21
BRANCH  17  24
HETATM   24  C15 UNL     1      33.690  15.636   8.808  1.00  0.00     0.196 C 
BRANCH  24  25
HETATM   25  C16 UNL     1      33.405  14.494   9.755  1.00  0.00     0.001 A 
HETATM   26  C17 UNL     1      33.824  14.369  11.049  1.00  0.00     0.017 A 
HETATM   27  C18 UNL     1      33.453  13.262  11.712  1.00  0.00     0.008 A 
HETATM   28  C19 UNL     1      32.685  12.353  11.037  1.00  0.00     0.050 A 
HETATM   29  S2  UNL     1      32.506  13.069   9.500  1.00  0.00    -0.105 SA
ENDBRANCH  24  25
ENDBRANCH  17  24
BRANCH  20  30
HETATM   30  O6  UNL     1      33.790  17.370  11.262  1.00  0.00    -0.344 OA
ATOM     31  H6  UNL     1      33.486  18.251  11.449  1.00  0.00     0.219 HD
ENDBRANCH  20  30
ENDBRANCH   1  13
BRANCH   9  32
HETATM   32  O3  UNL     1      37.570  23.766  13.255  1.00  0.00    -0.342 OA
BRANCH  32  33
HETATM   33  C7  UNL     1      38.839  24.140  13.739  1.00  0.00     0.278 C 
BRANCH  33  34
HETATM   34  C8  UNL     1      39.235  25.464  13.222  1.00  0.00     0.241 C 
HETATM   35  O4  UNL     1      40.024  26.230  13.822  1.00  0.00    -0.271 OA
HETATM   36  N5  UNL     1      38.704  25.926  11.967  1.00  0.00    -0.357 N 
ATOM     37  H5  UNL     1      38.058  25.334  11.446  1.00  0.00     0.162 HD
BRANCH  36  38
HETATM   38  C9  UNL     1      39.073  27.219  11.435  1.00  0.00     0.148 C 
BRANCH  38  39
HETATM   39  C10 UNL     1      40.077  27.028  10.346  1.00  0.00     0.183 C 
BRANCH  39  40
HETATM   40  O5  UNL     1      39.476  26.272   9.339  1.00  0.00    -0.399 OA
ATOM     41  H5  UNL     1      40.065  26.260   8.594  1.00  0.00     0.209 HD
ENDBRANCH  39  40
ENDBRANCH  38  39
ENDBRANCH  36  38
ENDBRANCH  33  34
ENDBRANCH  32  33
ENDBRANCH   9  32
TORSDOF 11
ENDMDL
MODEL 2
REMARK VINA RESULT: -5.122696030      1.021      1.186
REMARK  11 active torsions:
REMARK  status: ('A' for Active; 'I' for Inactive)
REMARK    1  A    between atoms: N2_5  and  N3_6 
REMARK    2  A    between atoms: C2_9  and  C3_10 
REMARK    3  A    between atoms: C6_18  and  O3_19 
REMARK    4  A    between atoms: O3_19  and  C7_20 
REMARK    5  A    between atoms: C7_20  and  C8_21 
REMARK       I    between atoms: C8_21  and  N5_23 
REMARK    6  A    between atoms: N5_23  and  C9_25 
REMARK    7  A    between atoms: C9_25  and  C10_26 
REMARK    8  A    between atoms: C10_26  and  O5_27 
REMARK    9  A    between atoms: C14_32  and  O6_33 
REMARK   10  A    between atoms: N6_35  and  C15_36 
REMARK   11  A    between atoms: C15_36  and  C16_37 
ROOT
HETATM    1  C3  UNL     1      36.300  17.931  12.028  1.00  0.00     0.088 A 
HETATM    2  N4  UNL     1      36.384  17.406  13.236  1.00  0.00    -0.277 N 
ATOM      3  H4  UNL     1      36.129  16.447  13.476  1.00  0.00     0.179 HD
HETATM    4  S1  UNL     1      36.973  18.545  14.320  1.00  0.00     0.264 S 
HETATM    5  O1  UNL     1      36.039  18.830  15.465  1.00  0.00    -0.200 OA
HETATM    6  O2  UNL     1      38.359  18.234  14.814  1.00  0.00    -0.200 OA
HETATM    7  C4  UNL     1      37.006  19.892  13.194  1.00  0.00     0.095 A 
HETATM    8  C5  UNL     1      37.306  21.213  13.403  1.00  0.00     0.063 A 
HETATM    9  C6  UNL     1      37.254  22.090  12.375  1.00  0.00     0.070 A 
HETATM   10  C11 UNL     1      36.895  21.601  11.147  1.00  0.00     0.038 A 
HETATM   11  C12 UNL     1      36.589  20.258  10.929  1.00  0.00     0.018 A 
HETATM   12  C13 UNL     1      36.638  19.329  11.985  1.00  0.00     0.017 A 
ENDROOT
BRANCH   1  13
HETATM   13  C2  UNL     1      35.794  17.014  10.974  1.00  0.00     0.153 A 
HETATM   14  N2  UNL     1      36.313  16.550   9.852  1.00  0.00    -0.086 N 
HETATM   15  C1  UNL     1      35.511  15.592   9.268  1.00  0.00     0.702 A 
HETATM   16  N1  UNL     1      35.727  14.940   8.165  1.00  0.00    -0.233 N 
HETATM   17  N6  UNL     1      34.451  15.446  10.053  1.00  0.00    -0.154 N 
ATOM     18  H12 UNL     1      36.541  15.053   7.562  1.00  0.00     0.174 HD
ATOM     19  H11 UNL     1      35.133  14.232   7.733  1.00  0.00     0.174 HD
HETATM   20  C14 UNL     1      34.593  16.285  11.085  1.00  0.00     0.190 A 
BRANCH  14  21
HETATM   21  N3  UNL     1      37.533  16.809   9.248  1.00  0.00    -0.324 N 
ATOM     22  H32 UNL     1      37.773  17.434   8.478  1.00  0.00     0.178 HD
ATOM     23  H31 UNL     1      38.359  16.370   9.656  1.00  0.00     0.178 HD
ENDBRANCH  14  21
BRANCH  17  24
HETATM   24  C15 UNL     1      33.333  14.541   9.839  1.00  0.00     0.196 C 
BRANCH  24  25
HETATM   25  C16 UNL     1      33.046  13.913  11.182  1.00  0.00     0.001 A 
HETATM   26  C17 UNL     1      32.493  12.686  11.420  1.00  0.00     0.017 A 
HETATM   27  C18 UNL     1      32.324  12.325  12.702  1.00  0.00     0.008 A 
HETATM   28  C19 UNL     1      32.722  13.214  13.663  1.00  0.00     0.050 A 
HETATM   29  S2  UNL     1      33.315  14.526  12.750  1.00  0.00    -0.105 SA
ENDBRANCH  24  25
ENDBRANCH  17  24
BRANCH  20  30
HETATM   30  O6  UNL     1      33.684  16.439  12.144  1.00  0.00    -0.344 OA
ATOM     31  H6  UNL     1      33.295  15.711  12.615  1.00  0.00     0.219 HD
ENDBRANCH  20  30
ENDBRANCH   1  13
BRANCH   9  32
HETATM   32  O3  UNL     1      37.559  23.430  12.581  1.00  0.00    -0.342 OA
BRANCH  32  33
HETATM   33  C7  UNL     1      38.377  23.813  13.662  1.00  0.00     0.278 C 
BRANCH  33  34
HETATM   34  C8  UNL     1      39.029  25.111  13.401  1.00  0.00     0.241 C 
HETATM   35  O4  UNL     1      39.811  25.664  14.209  1.00  0.00    -0.271 OA
HETATM   36  N5  UNL     1      38.771  25.801  12.165  1.00  0.00    -0.357 N 
ATOM     37  H5  UNL     1      38.140  25.386  11.480  1.00  0.00     0.162 HD
BRANCH  36  38
HETATM   38  C9  UNL     1      39.394  27.075  11.881  1.00  0.00     0.148 C 
BRANCH  38  39
HETATM   39  C10 UNL     1      40.052  27.006  10.542  1.00  0.00     0.183 C 
BRANCH  39  40
HETATM   40  O5  UNL     1      39.229  26.260   9.699  1.00  0.00    -0.399 OA
ATOM     41  H5  UNL     1      39.294  26.629   8.827  1.00  0.00     0.209 HD
ENDBRANCH  39  40
ENDBRANCH  38  39
ENDBRANCH  36  38
ENDBRANCH  33  34
ENDBRANCH  32  33
ENDBRANCH   9  32
TORSDOF 11
ENDMDL
MODEL 3
REMARK VINA RESULT: -4.803441510      1.675      1.942
REMARK  11 active torsions:
REMARK  status: ('A' for Active; 'I' for Inactive)
REMARK    1  A    between atoms: N2_5  and  N3_6 
REMARK    2  A    between atoms: C2_9  and  C3_10 
REMARK    3  A    between atoms: C6_18  and  O3_19 
REMARK    4  A    between atoms: O3_19  and  C7_20 
REMARK    5  A    between atoms: C7_20  and  C8_21 
REMARK       I    between atoms: C8_21  and  N5_23 
REMARK    6  A    between atoms: N5_23  and  C9_25 
REMARK    7  A    between atoms: C9_25  and  C10_26 
REMARK    8  A    between atoms: C10_26  and  O5_27 
REMARK    9  A    between atoms: C14_32  and  O6_33 
REMARK   10  A    between atoms: N6_35  and  C15_36 
REMARK   11  A    between atoms: C15_36  and  C16_37 
ROOT
HETATM    1  C3  UNL     1      36.243  17.801  12.026  1.00  0.00     0.088 A 
HETATM    2  N4  UNL     1      36.291  17.313  13.251  1.00  0.00    -0.277 N 
ATOM      3  H4  UNL     1      36.000  16.372  13.517  1.00  0.00     0.179 HD
HETATM    4  S1  UNL     1      36.902  18.466  14.307  1.00  0.00     0.264 S 
HETATM    5  O1  UNL     1      35.963  18.820  15.427  1.00  0.00    -0.200 OA
HETATM    6  O2  UNL     1      38.270  18.124  14.833  1.00  0.00    -0.200 OA
HETATM    7  C4  UNL     1      36.999  19.774  13.139  1.00  0.00     0.095 A 
HETATM    8  C5  UNL     1      37.341  21.090  13.311  1.00  0.00     0.063 A 
HETATM    9  C6  UNL     1      37.335  21.935  12.255  1.00  0.00     0.070 A 
HETATM   10  C11 UNL     1      36.977  21.419  11.038  1.00  0.00     0.038 A 
HETATM   11  C12 UNL     1      36.627  20.080  10.857  1.00  0.00     0.018 A 
HETATM   12  C13 UNL     1      36.629  19.185  11.943  1.00  0.00     0.017 A 
ENDROOT
BRANCH   1  13
HETATM   13  C2  UNL     1      35.721  16.868  10.993  1.00  0.00     0.153 A 
HETATM   14  N2  UNL     1      36.210  16.411   9.855  1.00  0.00    -0.086 N 
HETATM   15  C1  UNL     1      35.411  15.432   9.304  1.00  0.00     0.702 A 
HETATM   16  N1  UNL     1      35.602  14.781   8.197  1.00  0.00    -0.233 N 
HETATM   17  N6  UNL     1      34.383  15.265  10.127  1.00  0.00    -0.154 N 
ATOM     18  H12 UNL     1      36.391  14.909   7.565  1.00  0.00     0.174 HD
ATOM     19  H11 UNL     1      35.010  14.057   7.789  1.00  0.00     0.174 HD
HETATM   20  C14 UNL     1      34.541  16.112  11.151  1.00  0.00     0.190 A 
BRANCH  14  21
HETATM   21  N3  UNL     1      37.402  16.696   9.207  1.00  0.00    -0.324 N 
ATOM     22  H32 UNL     1      37.906  16.178   8.488  1.00  0.00     0.178 HD
ATOM     23  H31 UNL     1      37.842  17.594   9.412  1.00  0.00     0.178 HD
ENDBRANCH  14  21
BRANCH  17  24
HETATM   24  C15 UNL     1      33.279  14.334   9.956  1.00  0.00     0.196 C 
BRANCH  24  25
HETATM   25  C16 UNL     1      32.978  13.792  11.333  1.00  0.00     0.001 A 
HETATM   26  C17 UNL     1      32.374  12.605  11.641  1.00  0.00     0.017 A 
HETATM   27  C18 UNL     1      32.203  12.321  12.942  1.00  0.00     0.008 A 
HETATM   28  C19 UNL     1      32.649  13.241  13.850  1.00  0.00     0.050 A 
HETATM   29  S2  UNL     1      33.291  14.474  12.864  1.00  0.00    -0.105 SA
ENDBRANCH  24  25
ENDBRANCH  17  24
BRANCH  20  30
HETATM   30  O6  UNL     1      33.668  16.250  12.240  1.00  0.00    -0.344 OA
ATOM     31  H6  UNL     1      33.543  15.582  12.904  1.00  0.00     0.219 HD
ENDBRANCH  20  30
ENDBRANCH   1  13
BRANCH   9  32
HETATM   32  O3  UNL     1      37.682  23.269  12.423  1.00  0.00    -0.342 OA
BRANCH  32  33
HETATM   33  C7  UNL     1      37.946  23.777  13.710  1.00  0.00     0.278 C 
BRANCH  33  34
HETATM   34  C8  UNL     1      39.208  24.543  13.730  1.00  0.00     0.241 C 
HETATM   35  O4  UNL     1      39.357  25.606  14.376  1.00  0.00    -0.271 OA
HETATM   36  N5  UNL     1      40.340  24.069  12.981  1.00  0.00    -0.357 N 
ATOM     37  H5  UNL     1      40.261  23.207  12.441  1.00  0.00     0.162 HD
BRANCH  36  38
HETATM   38  C9  UNL     1      41.589  24.797  12.981  1.00  0.00     0.148 C 
BRANCH  38  39
HETATM   39  C10 UNL     1      42.620  23.996  12.256  1.00  0.00     0.183 C 
BRANCH  39  40
HETATM   40  O5  UNL     1      42.050  22.767  11.924  1.00  0.00    -0.399 OA
ATOM     41  H5  UNL     1      42.651  22.315  11.344  1.00  0.00     0.209 HD
ENDBRANCH  39  40
ENDBRANCH  38  39
ENDBRANCH  36  38
ENDBRANCH  33  34
ENDBRANCH  32  33
ENDBRANCH   9  32
TORSDOF 11
ENDMDL
MODEL 4
REMARK VINA RESULT: -4.411378260      2.199      3.103
REMARK  11 active torsions:
REMARK  status: ('A' for Active; 'I' for Inactive)
REMARK    1  A    between atoms: N2_5  and  N3_6 
REMARK    2  A    between atoms: C2_9  and  C3_10 
REMARK    3  A    between atoms: C6_18  and  O3_19 
REMARK    4  A    between atoms: O3_19  and  C7_20 
REMARK    5  A    between atoms: C7_20  and  C8_21 
REMARK       I    between atoms: C8_21  and  N5_23 
REMARK    6  A    between atoms: N5_23  and  C9_25 
REMARK    7  A    between atoms: C9_25  and  C10_26 
REMARK    8  A    between atoms: C10_26  and  O5_27 
REMARK    9  A    between atoms: C14_32  and  O6_33 
REMARK   10  A    between atoms: N6_35  and  C15_36 
REMARK   11  A    between atoms: C15_36  and  C16_37 
ROOT
HETATM    1  C3  UNL     1      35.961  17.163  13.000  1.00  0.00     0.088 A 
HETATM    2  N4  UNL     1      36.309  16.945  14.254  1.00  0.00    -0.277 N 
ATOM      3  H4  UNL     1      36.133  16.081  14.768  1.00  0.00     0.179 HD
HETATM    4  S1  UNL     1      37.086  18.295  14.880  1.00  0.00     0.264 S 
HETATM    5  O1  UNL     1      36.408  18.877  16.090  1.00  0.00    -0.200 OA
HETATM    6  O2  UNL     1      38.552  18.073  15.133  1.00  0.00    -0.200 OA
HETATM    7  C4  UNL     1      36.851  19.327  13.478  1.00  0.00     0.095 A 
HETATM    8  C5  UNL     1      37.157  20.649  13.292  1.00  0.00     0.063 A 
HETATM    9  C6  UNL     1      36.870  21.252  12.116  1.00  0.00     0.070 A 
HETATM   10  C11 UNL     1      36.273  20.490  11.147  1.00  0.00     0.038 A 
HETATM   11  C12 UNL     1      35.958  19.144  11.332  1.00  0.00     0.018 A 
HETATM   12  C13 UNL     1      36.249  18.498  12.548  1.00  0.00     0.017 A 
ENDROOT
BRANCH   1  13
HETATM   13  C2  UNL     1      35.266  16.033  12.331  1.00  0.00     0.153 A 
HETATM   14  N2  UNL     1      34.154  15.371  12.591  1.00  0.00    -0.086 N 
HETATM   15  C1  UNL     1      33.831  14.485  11.585  1.00  0.00     0.702 A 
HETATM   16  N1  UNL     1      32.808  13.686  11.529  1.00  0.00    -0.233 N 
HETATM   17  N6  UNL     1      34.772  14.596  10.657  1.00  0.00    -0.154 N 
ATOM     18  H12 UNL     1      32.085  13.600  12.242  1.00  0.00     0.174 HD
ATOM     19  H11 UNL     1      32.569  13.030  10.785  1.00  0.00     0.174 HD
HETATM   20  C14 UNL     1      35.647  15.518  11.075  1.00  0.00     0.190 A 
BRANCH  14  21
HETATM   21  N3  UNL     1      33.256  15.494  13.640  1.00  0.00    -0.324 N 
ATOM     22  H32 UNL     1      32.296  15.839  13.655  1.00  0.00     0.178 HD
ATOM     23  H31 UNL     1      33.547  15.131  14.548  1.00  0.00     0.178 HD
ENDBRANCH  14  21
BRANCH  17  24
HETATM   24  C15 UNL     1      34.848  13.855   9.408  1.00  0.00     0.196 C 
BRANCH  24  25
HETATM   25  C16 UNL     1      33.820  14.478   8.493  1.00  0.00     0.001 A 
HETATM   26  C17 UNL     1      32.853  13.834   7.775  1.00  0.00     0.017 A 
HETATM   27  C18 UNL     1      32.040  14.589   7.020  1.00  0.00     0.008 A 
HETATM   28  C19 UNL     1      32.247  15.942   7.034  1.00  0.00     0.050 A 
HETATM   29  S2  UNL     1      33.568  16.117   8.097  1.00  0.00    -0.105 SA
ENDBRANCH  24  25
ENDBRANCH  17  24
BRANCH  20  30
HETATM   30  O6  UNL     1      36.794  15.930  10.379  1.00  0.00    -0.344 OA
ATOM     31  H6  UNL     1      37.078  15.549   9.556  1.00  0.00     0.219 HD
ENDBRANCH  20  30
ENDBRANCH   1  13
BRANCH   9  32
HETATM   32  O3  UNL     1      37.180  22.592  11.921  1.00  0.00    -0.342 OA
BRANCH  32  33
HETATM   33  C7  UNL     1      37.217  23.478  13.015  1.00  0.00     0.278 C 
BRANCH  33  34
HETATM   34  C8  UNL     1      38.344  24.423  12.897  1.00  0.00     0.241 C 
HETATM   35  O4  UNL     1      38.256  25.531  12.318  1.00  0.00    -0.271 OA
HETATM   36  N5  UNL     1      39.621  24.083  13.465  1.00  0.00    -0.357 N 
ATOM     37  H5  UNL     1      39.735  23.190  13.945  1.00  0.00     0.162 HD
BRANCH  36  38
HETATM   38  C9  UNL     1      40.744  24.988  13.365  1.00  0.00     0.148 C 
BRANCH  38  39
HETATM   39  C10 UNL     1      41.918  24.247  12.814  1.00  0.00     0.183 C 
BRANCH  39  40
HETATM   40  O5  UNL     1      41.482  22.977  12.435  1.00  0.00    -0.399 OA
ATOM     41  H5  UNL     1      41.885  22.769  11.600  1.00  0.00     0.209 HD
ENDBRANCH  39  40
ENDBRANCH  38  39
ENDBRANCH  36  38
ENDBRANCH  33  34
ENDBRANCH  32  33
ENDBRANCH   9  32
TORSDOF 11
ENDMDL
MODEL 5
REMARK VINA RESULT: -4.046994242      1.959      2.827
REMARK  11 active torsions:
REMARK  status: ('A' for Active; 'I' for Inactive)
REMARK    1  A    between atoms: N2_5  and  N3_6 
REMARK    2  A    between atoms: C2_9  and  C3_10 
REMARK    3  A    between atoms: C6_18  and  O3_19 
REMARK    4  A    between atoms: O3_19  and  C7_20 
REMARK    5  A    between atoms: C7_20  and  C8_21 
REMARK       I    between atoms: C8_21  and  N5_23 
REMARK    6  A    between atoms: N5_23  and  C9_25 
REMARK    7  A    between atoms: C9_25  and  C10_26 
REMARK    8  A    between atoms: C10_26  and  O5_27 
REMARK    9  A    between atoms: C14_32  and  O6_33 
REMARK   10  A    between atoms: N6_35  and  C15_36 
REMARK   11  A    between atoms: C15_36  and  C16_37 
ROOT
HETATM    1  C3  UNL     1      35.943  17.140  13.013  1.00  0.00     0.088 A 
HETATM    2  N4  UNL     1      36.287  16.920  14.268  1.00  0.00    -0.277 N 
ATOM      3  H4  UNL     1      36.104  16.057  14.782  1.00  0.00     0.179 HD
HETATM    4  S1  UNL     1      37.071  18.266  14.895  1.00  0.00     0.264 S 
HETATM    5  O1  UNL     1      36.394  18.852  16.103  1.00  0.00    -0.200 OA
HETATM    6  O2  UNL     1      38.535  18.034  15.151  1.00  0.00    -0.200 OA
HETATM    7  C4  UNL     1      36.845  19.298  13.492  1.00  0.00     0.095 A 
HETATM    8  C5  UNL     1      37.161  20.619  13.306  1.00  0.00     0.063 A 
HETATM    9  C6  UNL     1      36.880  21.223  12.129  1.00  0.00     0.070 A 
HETATM   10  C11 UNL     1      36.280  20.465  11.160  1.00  0.00     0.038 A 
HETATM   11  C12 UNL     1      35.956  19.120  11.344  1.00  0.00     0.018 A 
HETATM   12  C13 UNL     1      36.241  18.473  12.561  1.00  0.00     0.017 A 
ENDROOT
BRANCH   1  13
HETATM   13  C2  UNL     1      35.243  16.014  12.342  1.00  0.00     0.153 A 
HETATM   14  N2  UNL     1      34.125  15.360  12.600  1.00  0.00    -0.086 N 
HETATM   15  C1  UNL     1      33.799  14.476  11.594  1.00  0.00     0.702 A 
HETATM   16  N1  UNL     1      32.771  13.683  11.535  1.00  0.00    -0.233 N 
HETATM   17  N6  UNL     1      34.744  14.579  10.668  1.00  0.00    -0.154 N 
ATOM     18  H12 UNL     1      32.045  13.604  12.246  1.00  0.00     0.174 HD
ATOM     19  H11 UNL     1      32.530  13.028  10.791  1.00  0.00     0.174 HD
HETATM   20  C14 UNL     1      35.624  15.495  11.088  1.00  0.00     0.190 A 
BRANCH  14  21
HETATM   21  N3  UNL     1      33.225  15.491  13.646  1.00  0.00    -0.324 N 
ATOM     22  H32 UNL     1      32.214  15.628  13.638  1.00  0.00     0.178 HD
ATOM     23  H31 UNL     1      33.588  15.372  14.592  1.00  0.00     0.178 HD
ENDBRANCH  14  21
BRANCH  17  24
HETATM   24  C15 UNL     1      34.819  13.836   9.421  1.00  0.00     0.196 C 
BRANCH  24  25
HETATM   25  C16 UNL     1      33.801  14.468   8.500  1.00  0.00     0.001 A 
HETATM   26  C17 UNL     1      32.833  13.832   7.776  1.00  0.00     0.017 A 
HETATM   27  C18 UNL     1      32.031  14.594   7.017  1.00  0.00     0.008 A 
HETATM   28  C19 UNL     1      32.247  15.945   7.034  1.00  0.00     0.050 A 
HETATM   29  S2  UNL     1      33.564  16.109   8.104  1.00  0.00    -0.105 SA
ENDBRANCH  24  25
ENDBRANCH  17  24
BRANCH  20  30
HETATM   30  O6  UNL     1      36.777  15.899  10.396  1.00  0.00    -0.344 OA
ATOM     31  H6  UNL     1      36.808  16.032   9.456  1.00  0.00     0.219 HD
ENDBRANCH  20  30
ENDBRANCH   1  13
BRANCH   9  32
HETATM   32  O3  UNL     1      37.199  22.561  11.934  1.00  0.00    -0.342 OA
BRANCH  32  33
HETATM   33  C7  UNL     1      37.287  23.437  13.035  1.00  0.00     0.278 C 
BRANCH  33  34
HETATM   34  C8  UNL     1      38.508  24.261  12.961  1.00  0.00     0.241 C 
HETATM   35  O4  UNL     1      39.630  23.868  13.358  1.00  0.00    -0.271 OA
HETATM   36  N5  UNL     1      38.438  25.589  12.412  1.00  0.00    -0.357 N 
ATOM     37  H5  UNL     1      37.544  25.948  12.077  1.00  0.00     0.162 HD
BRANCH  36  38
HETATM   38  C9  UNL     1      39.618  26.421  12.327  1.00  0.00     0.148 C 
BRANCH  38  39
HETATM   39  C10 UNL     1      39.570  27.204  11.056  1.00  0.00     0.183 C 
BRANCH  39  40
HETATM   40  O5  UNL     1      39.158  26.344  10.039  1.00  0.00    -0.399 OA
ATOM     41  H5  UNL     1      39.888  26.228   9.442  1.00  0.00     0.209 HD
ENDBRANCH  39  40
ENDBRANCH  38  39
ENDBRANCH  36  38
ENDBRANCH  33  34
ENDBRANCH  32  33
ENDBRANCH   9  32
TORSDOF 11
ENDMDL
