MODEL 1
REMARK VINA RESULT: -5.192577607      0.000      0.000
REMARK  14 active torsions:
REMARK  status: ('A' for Active; 'I' for Inactive)
REMARK    1  A    between atoms: N1_2  and  C3_4 
REMARK    2  A    between atoms: C3_4  and  C4_5 
REMARK    3  A    between atoms: C5_6  and  C6_7 
REMARK    4  A    between atoms: C6_7  and  N2_8 
REMARK    5  A    between atoms: N2_8  and  C7_10 
REMARK    6  A    between atoms: C9_12  and  N3_13 
REMARK    7  A    between atoms: N3_13  and  C10_15 
REMARK    8  A    between atoms: C14_22  and  C15_23 
REMARK    9  A    between atoms: C15_23  and  C16_24 
REMARK   10  A    between atoms: C18_28  and  N7_29 
REMARK   11  A    between atoms: C19_34  and  N9_35 
REMARK   12  A    between atoms: N12_44  and  C22_45 
REMARK   13  A    between atoms: C22_45  and  C23_46 
REMARK   14  A    between atoms: C23_46  and  O1_47 
ROOT
HETATM    1  C7  UNL     1      41.557  23.895  13.009  1.00  0.00     0.106 A 
HETATM    2  C8  UNL     1      41.064  25.187  12.988  1.00  0.00     0.098 A 
HETATM    3  C9  UNL     1      39.703  25.446  12.977  1.00  0.00     0.129 A 
HETATM    4  N4  UNL     1      38.883  24.385  12.988  1.00  0.00    -0.223 N 
HETATM    5  N5  UNL     1      37.567  24.319  12.983  1.00  0.00    -0.301 N 
ATOM      6  H5  UNL     1      36.941  25.124  12.968  1.00  0.00     0.186 HD
HETATM    7  C13 UNL     1      37.163  23.013  13.001  1.00  0.00     0.123 A 
HETATM    8  C14 UNL     1      38.293  22.227  13.017  1.00  0.00     0.028 A 
HETATM    9  C20 UNL     1      39.354  23.106  13.008  1.00  0.00     0.142 A 
HETATM   10  N10 UNL     1      40.678  22.885  13.018  1.00  0.00    -0.327 N 
ATOM     11  H10 UNL     1      41.023  21.925  13.034  1.00  0.00     0.169 HD
ENDROOT
BRANCH   1  12
HETATM   12  N2  UNL     1      42.944  23.594  13.024  1.00  0.00    -0.372 N 
ATOM     13  H2  UNL     1      43.238  22.627  12.889  1.00  0.00     0.161 HD
BRANCH  12  14
HETATM   14  C6  UNL     1      43.950  24.605  13.224  1.00  0.00     0.163 C 
BRANCH  14  15
HETATM   15  C5  UNL     1      44.333  25.290  11.967  1.00  0.00     0.006 A 
HETATM   16  C4  UNL     1      44.305  26.706  11.763  1.00  0.00     0.075 A 
HETATM   17  N12 UNL     1      44.712  26.954  10.532  1.00  0.00    -0.289 N 
HETATM   18  N11 UNL     1      44.989  25.756   9.959  1.00  0.00    -0.309 N 
HETATM   19  C21 UNL     1      44.771  24.758  10.792  1.00  0.00     0.118 A 
ATOM     20  H11 UNL     1      45.323  25.642   9.002  1.00  0.00     0.186 HD
BRANCH  16  21
HETATM   21  C3  UNL     1      43.769  27.538  12.829  1.00  0.00     0.116 C 
BRANCH  21  22
HETATM   22  N1  UNL     1      44.461  28.552  13.466  1.00  0.00    -0.397 N 
HETATM   23  C1  UNL     1      44.742  28.472  14.844  1.00  0.00     0.148 C 
HETATM   24  C2  UNL     1      44.176  29.892  13.014  1.00  0.00     0.148 C 
ENDBRANCH  21  22
ENDBRANCH  16  21
BRANCH  17  25
HETATM   25  C22 UNL     1      44.988  28.138   9.758  1.00  0.00     0.175 C 
BRANCH  25  26
HETATM   26  C23 UNL     1      43.715  28.612   9.107  1.00  0.00     0.185 C 
BRANCH  26  27
HETATM   27  O1  UNL     1      42.810  27.648   8.777  1.00  0.00    -0.399 OA
ATOM     28  H1  UNL     1      42.124  27.480   9.412  1.00  0.00     0.209 HD
ENDBRANCH  26  27
ENDBRANCH  25  26
ENDBRANCH  17  25
ENDBRANCH  14  15
ENDBRANCH  12  14
ENDBRANCH   1  12
BRANCH   3  29
HETATM   29  N3  UNL     1      39.327  26.671  12.957  1.00  0.00    -0.370 N 
ATOM     30  H3  UNL     1      39.227  27.119  13.869  1.00  0.00     0.161 HD
BRANCH  29  31
HETATM   31  C10 UNL     1      39.031  27.487  11.835  1.00  0.00     0.083 A 
HETATM   32  C11 UNL     1      39.109  28.992  12.167  1.00  0.00     0.027 A 
HETATM   33  C12 UNL     1      39.998  28.368  11.154  1.00  0.00     0.027 A 
ENDBRANCH  29  31
ENDBRANCH   3  29
BRANCH   8  34
HETATM   34  C15 UNL     1      38.299  20.907  13.042  1.00  0.00     0.033 C 
BRANCH  34  35
HETATM   35  C16 UNL     1      37.197  20.102  12.563  1.00  0.00     0.025 A 
HETATM   36  C17 UNL     1      36.671  20.245  11.297  1.00  0.00     0.121 A 
HETATM   37  N6  UNL     1      35.636  19.477  10.874  1.00  0.00    -0.201 N 
HETATM   38  C18 UNL     1      35.097  18.555  11.688  1.00  0.00     0.677 A 
ATOM     39  H6  UNL     1      35.264  19.601   9.932  1.00  0.00     0.183 HD
HETATM   40  N8  UNL     1      35.578  18.385  12.930  1.00  0.00    -0.177 N 
HETATM   41  C19 UNL     1      36.622  19.150  13.371  1.00  0.00     0.126 A 
ATOM     42  H8  UNL     1      35.164  17.683  13.545  1.00  0.00     0.186 HD
BRANCH  38  43
HETATM   43  N7  UNL     1      34.116  17.828  11.285  1.00  0.00    -0.234 N 
ATOM     44  H72 UNL     1      34.210  17.294  10.421  1.00  0.00     0.174 HD
ATOM     45  H71 UNL     1      33.252  17.786  11.823  1.00  0.00     0.174 HD
ENDBRANCH  38  43
BRANCH  41  46
HETATM   46  N9  UNL     1      37.053  18.951  14.573  1.00  0.00    -0.384 N 
ATOM     47  H92 UNL     1      37.460  19.742  15.071  1.00  0.00     0.157 HD
ATOM     48  H91 UNL     1      36.988  18.030  15.007  1.00  0.00     0.157 HD
ENDBRANCH  41  46
ENDBRANCH  34  35
ENDBRANCH   8  34
TORSDOF 14
ENDMDL
MODEL 2
REMARK VINA RESULT: -5.160576015      1.199      2.129
REMARK  14 active torsions:
REMARK  status: ('A' for Active; 'I' for Inactive)
REMARK    1  A    between atoms: N1_2  and  C3_4 
REMARK    2  A    between atoms: C3_4  and  C4_5 
REMARK    3  A    between atoms: C5_6  and  C6_7 
REMARK    4  A    between atoms: C6_7  and  N2_8 
REMARK    5  A    between atoms: N2_8  and  C7_10 
REMARK    6  A    between atoms: C9_12  and  N3_13 
REMARK    7  A    between atoms: N3_13  and  C10_15 
REMARK    8  A    between atoms: C14_22  and  C15_23 
REMARK    9  A    between atoms: C15_23  and  C16_24 
REMARK   10  A    between atoms: C18_28  and  N7_29 
REMARK   11  A    between atoms: C19_34  and  N9_35 
REMARK   12  A    between atoms: N12_44  and  C22_45 
REMARK   13  A    between atoms: C22_45  and  C23_46 
REMARK   14  A    between atoms: C23_46  and  O1_47 
ROOT
HETATM    1  C7  UNL     1      41.607  23.825  12.976  1.00  0.00     0.106 A 
HETATM    2  C8  UNL     1      41.115  25.117  13.010  1.00  0.00     0.098 A 
HETATM    3  C9  UNL     1      39.755  25.377  13.040  1.00  0.00     0.129 A 
HETATM    4  N4  UNL     1      38.934  24.316  13.035  1.00  0.00    -0.223 N 
HETATM    5  N5  UNL     1      37.619  24.250  13.059  1.00  0.00    -0.301 N 
ATOM      6  H5  UNL     1      36.993  25.056  13.086  1.00  0.00     0.186 HD
HETATM    7  C13 UNL     1      37.213  22.945  13.042  1.00  0.00     0.123 A 
HETATM    8  C14 UNL     1      38.343  22.158  13.005  1.00  0.00     0.028 A 
HETATM    9  C20 UNL     1      39.404  23.037  13.001  1.00  0.00     0.142 A 
HETATM   10  N10 UNL     1      40.728  22.815  12.972  1.00  0.00    -0.327 N 
ATOM     11  H10 UNL     1      41.072  21.855  12.947  1.00  0.00     0.169 HD
ENDROOT
BRANCH   1  12
HETATM   12  N2  UNL     1      42.994  23.523  12.948  1.00  0.00    -0.372 N 
ATOM     13  H2  UNL     1      43.367  22.864  13.631  1.00  0.00     0.161 HD
BRANCH  12  14
HETATM   14  C6  UNL     1      43.893  24.114  11.990  1.00  0.00     0.163 C 
BRANCH  14  15
HETATM   15  C5  UNL     1      44.316  25.482  12.368  1.00  0.00     0.006 A 
HETATM   16  C4  UNL     1      44.492  26.569  11.455  1.00  0.00     0.075 A 
HETATM   17  N12 UNL     1      44.868  27.630  12.143  1.00  0.00    -0.289 N 
HETATM   18  N11 UNL     1      44.939  27.253  13.444  1.00  0.00    -0.309 N 
HETATM   19  C21 UNL     1      44.615  25.985  13.599  1.00  0.00     0.118 A 
ATOM     20  H11 UNL     1      45.209  27.874  14.207  1.00  0.00     0.186 HD
BRANCH  16  21
HETATM   21  C3  UNL     1      44.343  26.295  10.033  1.00  0.00     0.116 C 
BRANCH  21  22
HETATM   22  N1  UNL     1      43.535  27.011   9.170  1.00  0.00    -0.397 N 
HETATM   23  C1  UNL     1      44.064  28.068   8.403  1.00  0.00     0.148 C 
HETATM   24  C2  UNL     1      42.183  27.248   9.620  1.00  0.00     0.148 C 
ENDBRANCH  21  22
ENDBRANCH  16  21
BRANCH  17  25
HETATM   25  C22 UNL     1      45.116  29.018  11.841  1.00  0.00     0.175 C 
BRANCH  25  26
HETATM   26  C23 UNL     1      43.809  29.765  11.834  1.00  0.00     0.185 C 
BRANCH  26  27
HETATM   27  O1  UNL     1      42.892  29.387  12.768  1.00  0.00    -0.399 OA
ATOM     28  H1  UNL     1      42.940  29.829  13.608  1.00  0.00     0.209 HD
ENDBRANCH  26  27
ENDBRANCH  25  26
ENDBRANCH  17  25
ENDBRANCH  14  15
ENDBRANCH  12  14
ENDBRANCH   1  12
BRANCH   3  29
HETATM   29  N3  UNL     1      39.380  26.602  13.070  1.00  0.00    -0.370 N 
ATOM     30  H3  UNL     1      38.692  26.837  13.786  1.00  0.00     0.161 HD
BRANCH  29  31
HETATM   31  C10 UNL     1      39.797  27.674  12.240  1.00  0.00     0.083 A 
HETATM   32  C11 UNL     1      38.772  27.988  11.129  1.00  0.00     0.027 A 
HETATM   33  C12 UNL     1      39.134  28.990  12.164  1.00  0.00     0.027 A 
ENDBRANCH  29  31
ENDBRANCH   3  29
BRANCH   8  34
HETATM   34  C15 UNL     1      38.348  20.838  12.985  1.00  0.00     0.033 C 
BRANCH  34  35
HETATM   35  C16 UNL     1      37.231  20.050  12.512  1.00  0.00     0.025 A 
HETATM   36  C17 UNL     1      36.771  20.124  11.215  1.00  0.00     0.121 A 
HETATM   37  N6  UNL     1      35.720  19.374  10.797  1.00  0.00    -0.201 N 
HETATM   38  C18 UNL     1      35.102  18.538  11.648  1.00  0.00     0.677 A 
ATOM     39  H6  UNL     1      35.398  19.445   9.832  1.00  0.00     0.183 HD
HETATM   40  N8  UNL     1      35.518  18.437  12.920  1.00  0.00    -0.177 N 
HETATM   41  C19 UNL     1      36.576  19.185  13.356  1.00  0.00     0.126 A 
ATOM     42  H8  UNL     1      35.044  17.801  13.562  1.00  0.00     0.186 HD
BRANCH  38  43
HETATM   43  N7  UNL     1      34.107  17.827  11.249  1.00  0.00    -0.234 N 
ATOM     44  H72 UNL     1      33.233  18.286  10.992  1.00  0.00     0.174 HD
ATOM     45  H71 UNL     1      34.192  16.813  11.192  1.00  0.00     0.174 HD
ENDBRANCH  38  43
BRANCH  41  46
HETATM   46  N9  UNL     1      36.942  19.055  14.588  1.00  0.00    -0.384 N 
ATOM     47  H92 UNL     1      37.716  19.631  14.920  1.00  0.00     0.157 HD
ATOM     48  H91 UNL     1      36.471  18.397  15.208  1.00  0.00     0.157 HD
ENDBRANCH  41  46
ENDBRANCH  34  35
ENDBRANCH   8  34
TORSDOF 14
ENDMDL
MODEL 3
REMARK VINA RESULT: -3.311932801      5.978     10.874
REMARK  14 active torsions:
REMARK  status: ('A' for Active; 'I' for Inactive)
REMARK    1  A    between atoms: N1_2  and  C3_4 
REMARK    2  A    between atoms: C3_4  and  C4_5 
REMARK    3  A    between atoms: C5_6  and  C6_7 
REMARK    4  A    between atoms: C6_7  and  N2_8 
REMARK    5  A    between atoms: N2_8  and  C7_10 
REMARK    6  A    between atoms: C9_12  and  N3_13 
REMARK    7  A    between atoms: N3_13  and  C10_15 
REMARK    8  A    between atoms: C14_22  and  C15_23 
REMARK    9  A    between atoms: C15_23  and  C16_24 
REMARK   10  A    between atoms: C18_28  and  N7_29 
REMARK   11  A    between atoms: C19_34  and  N9_35 
REMARK   12  A    between atoms: N12_44  and  C22_45 
REMARK   13  A    between atoms: C22_45  and  C23_46 
REMARK   14  A    between atoms: C23_46  and  O1_47 
ROOT
HETATM    1  C7  UNL     1      34.130  16.283  12.554  1.00  0.00     0.106 A 
HETATM    2  C8  UNL     1      33.454  15.719  13.619  1.00  0.00     0.098 A 
HETATM    3  C9  UNL     1      32.809  14.497  13.508  1.00  0.00     0.129 A 
HETATM    4  N4  UNL     1      32.871  13.886  12.316  1.00  0.00    -0.223 N 
HETATM    5  N5  UNL     1      32.366  12.737  11.915  1.00  0.00    -0.301 N 
ATOM      6  H5  UNL     1      31.816  12.105  12.498  1.00  0.00     0.186 HD
HETATM    7  C13 UNL     1      32.686  12.514  10.605  1.00  0.00     0.123 A 
HETATM    8  C14 UNL     1      33.432  13.587  10.170  1.00  0.00     0.028 A 
HETATM    9  C20 UNL     1      33.533  14.430  11.256  1.00  0.00     0.142 A 
HETATM   10  N10 UNL     1      34.149  15.615  11.393  1.00  0.00    -0.327 N 
ATOM     11  H10 UNL     1      34.642  16.016  10.595  1.00  0.00     0.169 HD
ENDROOT
BRANCH   1  12
HETATM   12  N2  UNL     1      34.804  17.530  12.634  1.00  0.00    -0.372 N 
ATOM     13  H2  UNL     1      34.523  18.194  13.355  1.00  0.00     0.161 HD
BRANCH  12  14
HETATM   14  C6  UNL     1      35.869  17.890  11.735  1.00  0.00     0.163 C 
BRANCH  14  15
HETATM   15  C5  UNL     1      36.337  19.283  11.928  1.00  0.00     0.006 A 
HETATM   16  C4  UNL     1      36.672  19.869  13.189  1.00  0.00     0.075 A 
HETATM   17  N12 UNL     1      37.050  21.115  12.978  1.00  0.00    -0.289 N 
HETATM   18  N11 UNL     1      36.962  21.334  11.642  1.00  0.00    -0.309 N 
HETATM   19  C21 UNL     1      36.542  20.261  11.002  1.00  0.00     0.118 A 
ATOM     20  H11 UNL     1      37.192  22.220  11.190  1.00  0.00     0.186 HD
BRANCH  16  21
HETATM   21  C3  UNL     1      36.447  19.078  14.390  1.00  0.00     0.116 C 
BRANCH  21  22
HETATM   22  N1  UNL     1      37.360  18.201  14.943  1.00  0.00    -0.397 N 
HETATM   23  C1  UNL     1      38.718  18.250  14.569  1.00  0.00     0.148 C 
HETATM   24  C2  UNL     1      36.881  16.863  15.192  1.00  0.00     0.148 C 
ENDBRANCH  21  22
ENDBRANCH  16  21
BRANCH  17  25
HETATM   25  C22 UNL     1      37.579  22.183  13.790  1.00  0.00     0.175 C 
BRANCH  25  26
HETATM   26  C23 UNL     1      37.225  23.506  13.162  1.00  0.00     0.185 C 
BRANCH  26  27
HETATM   27  O1  UNL     1      35.964  23.965  13.393  1.00  0.00    -0.399 OA
ATOM     28  H1  UNL     1      35.648  24.641  12.805  1.00  0.00     0.209 HD
ENDBRANCH  26  27
ENDBRANCH  25  26
ENDBRANCH  17  25
ENDBRANCH  14  15
ENDBRANCH  12  14
ENDBRANCH   1  12
BRANCH   3  29
HETATM   29  N3  UNL     1      32.205  14.042  14.543  1.00  0.00    -0.370 N 
ATOM     30  H3  UNL     1      31.406  13.437  14.358  1.00  0.00     0.161 HD
BRANCH  29  31
HETATM   31  C10 UNL     1      32.503  14.271  15.911  1.00  0.00     0.083 A 
HETATM   32  C11 UNL     1      32.673  12.956  16.702  1.00  0.00     0.027 A 
HETATM   33  C12 UNL     1      33.782  13.935  16.564  1.00  0.00     0.027 A 
ENDBRANCH  29  31
ENDBRANCH   3  29
BRANCH   8  34
HETATM   34  C15 UNL     1      33.926  13.724   8.954  1.00  0.00     0.033 C 
BRANCH  34  35
HETATM   35  C16 UNL     1      34.426  14.981   8.442  1.00  0.00     0.025 A 
HETATM   36  C17 UNL     1      35.734  15.382   8.613  1.00  0.00     0.121 A 
HETATM   37  N6  UNL     1      36.177  16.567   8.122  1.00  0.00    -0.201 N 
HETATM   38  C18 UNL     1      35.342  17.380   7.455  1.00  0.00     0.677 A 
ATOM     39  H6  UNL     1      37.150  16.841   8.261  1.00  0.00     0.183 HD
HETATM   40  N8  UNL     1      34.061  17.028   7.267  1.00  0.00    -0.177 N 
HETATM   41  C19 UNL     1      33.599  15.837   7.754  1.00  0.00     0.126 A 
ATOM     42  H8  UNL     1      33.430  17.650   6.759  1.00  0.00     0.186 HD
BRANCH  38  43
HETATM   43  N7  UNL     1      35.765  18.501   6.989  1.00  0.00    -0.234 N 
ATOM     44  H72 UNL     1      36.752  18.607   6.753  1.00  0.00     0.174 HD
ATOM     45  H71 UNL     1      35.119  19.279   6.859  1.00  0.00     0.174 HD
ENDBRANCH  38  43
BRANCH  41  46
HETATM   46  N9  UNL     1      32.359  15.539   7.549  1.00  0.00    -0.384 N 
ATOM     47  H92 UNL     1      31.702  15.670   8.318  1.00  0.00     0.157 HD
ATOM     48  H91 UNL     1      32.048  15.182   6.645  1.00  0.00     0.157 HD
ENDBRANCH  41  46
ENDBRANCH  34  35
ENDBRANCH   8  34
TORSDOF 14
ENDMDL
MODEL 4
REMARK VINA RESULT: -2.990699297      5.976     10.815
REMARK  14 active torsions:
REMARK  status: ('A' for Active; 'I' for Inactive)
REMARK    1  A    between atoms: N1_2  and  C3_4 
REMARK    2  A    between atoms: C3_4  and  C4_5 
REMARK    3  A    between atoms: C5_6  and  C6_7 
REMARK    4  A    between atoms: C6_7  and  N2_8 
REMARK    5  A    between atoms: N2_8  and  C7_10 
REMARK    6  A    between atoms: C9_12  and  N3_13 
REMARK    7  A    between atoms: N3_13  and  C10_15 
REMARK    8  A    between atoms: C14_22  and  C15_23 
REMARK    9  A    between atoms: C15_23  and  C16_24 
REMARK   10  A    between atoms: C18_28  and  N7_29 
REMARK   11  A    between atoms: C19_34  and  N9_35 
REMARK   12  A    between atoms: N12_44  and  C22_45 
REMARK   13  A    between atoms: C22_45  and  C23_46 
REMARK   14  A    between atoms: C23_46  and  O1_47 
ROOT
HETATM    1  C7  UNL     1      34.121  16.297  12.643  1.00  0.00     0.106 A 
HETATM    2  C8  UNL     1      33.442  15.748  13.714  1.00  0.00     0.098 A 
HETATM    3  C9  UNL     1      32.786  14.532  13.614  1.00  0.00     0.129 A 
HETATM    4  N4  UNL     1      32.841  13.909  12.428  1.00  0.00    -0.223 N 
HETATM    5  N5  UNL     1      32.325  12.761  12.039  1.00  0.00    -0.301 N 
ATOM      6  H5  UNL     1      31.770  12.140  12.627  1.00  0.00     0.186 HD
HETATM    7  C13 UNL     1      32.641  12.524  10.730  1.00  0.00     0.123 A 
HETATM    8  C14 UNL     1      33.395  13.586  10.284  1.00  0.00     0.028 A 
HETATM    9  C20 UNL     1      33.506  14.438  11.362  1.00  0.00     0.142 A 
HETATM   10  N10 UNL     1      34.133  15.618  11.488  1.00  0.00    -0.327 N 
ATOM     11  H10 UNL     1      34.628  16.007  10.686  1.00  0.00     0.169 HD
ENDROOT
BRANCH   1  12
HETATM   12  N2  UNL     1      34.807  17.539  12.711  1.00  0.00    -0.372 N 
ATOM     13  H2  UNL     1      34.550  18.201  13.443  1.00  0.00     0.161 HD
BRANCH  12  14
HETATM   14  C6  UNL     1      35.850  17.895  11.785  1.00  0.00     0.163 C 
BRANCH  14  15
HETATM   15  C5  UNL     1      36.319  19.290  11.959  1.00  0.00     0.006 A 
HETATM   16  C4  UNL     1      36.677  19.887  13.209  1.00  0.00     0.075 A 
HETATM   17  N12 UNL     1      37.049  21.132  12.981  1.00  0.00    -0.289 N 
HETATM   18  N11 UNL     1      36.935  21.340  11.645  1.00  0.00    -0.309 N 
HETATM   19  C21 UNL     1      36.505  20.262  11.021  1.00  0.00     0.118 A 
ATOM     20  H11 UNL     1      37.154  22.223  11.182  1.00  0.00     0.186 HD
BRANCH  16  21
HETATM   21  C3  UNL     1      36.475  19.105  14.420  1.00  0.00     0.116 C 
BRANCH  21  22
HETATM   22  N1  UNL     1      37.391  18.215  14.948  1.00  0.00    -0.397 N 
HETATM   23  C1  UNL     1      38.741  18.251  14.546  1.00  0.00     0.148 C 
HETATM   24  C2  UNL     1      36.901  16.880  15.199  1.00  0.00     0.148 C 
ENDBRANCH  21  22
ENDBRANCH  16  21
BRANCH  17  25
HETATM   25  C22 UNL     1      37.591  22.207  13.774  1.00  0.00     0.175 C 
BRANCH  25  26
HETATM   26  C23 UNL     1      37.218  23.524  13.146  1.00  0.00     0.185 C 
BRANCH  26  27
HETATM   27  O1  UNL     1      35.958  23.976  13.393  1.00  0.00    -0.399 OA
ATOM     28  H1  UNL     1      35.428  23.448  13.979  1.00  0.00     0.209 HD
ENDBRANCH  26  27
ENDBRANCH  25  26
ENDBRANCH  17  25
ENDBRANCH  14  15
ENDBRANCH  12  14
ENDBRANCH   1  12
BRANCH   3  29
HETATM   29  N3  UNL     1      32.179  14.092  14.654  1.00  0.00    -0.370 N 
ATOM     30  H3  UNL     1      31.333  13.550  14.477  1.00  0.00     0.161 HD
BRANCH  29  31
HETATM   31  C10 UNL     1      32.530  14.259  16.019  1.00  0.00     0.083 A 
HETATM   32  C11 UNL     1      32.660  12.911  16.760  1.00  0.00     0.027 A 
HETATM   33  C12 UNL     1      33.811  13.840  16.618  1.00  0.00     0.027 A 
ENDBRANCH  29  31
ENDBRANCH   3  29
BRANCH   8  34
HETATM   34  C15 UNL     1      33.890  13.708   9.067  1.00  0.00     0.033 C 
BRANCH  34  35
HETATM   35  C16 UNL     1      34.368  14.963   8.530  1.00  0.00     0.025 A 
HETATM   36  C17 UNL     1      33.539  15.856   7.885  1.00  0.00     0.121 A 
HETATM   37  N6  UNL     1      34.014  17.026   7.389  1.00  0.00    -0.201 N 
HETATM   38  C18 UNL     1      35.314  17.340   7.518  1.00  0.00     0.677 A 
ATOM     39  H6  UNL     1      33.381  17.671   6.917  1.00  0.00     0.183 HD
HETATM   40  N8  UNL     1      36.155  16.498   8.138  1.00  0.00    -0.177 N 
HETATM   41  C19 UNL     1      35.692  15.316   8.644  1.00  0.00     0.126 A 
ATOM     42  H8  UNL     1      37.142  16.742   8.233  1.00  0.00     0.186 HD
BRANCH  38  43
HETATM   43  N7  UNL     1      35.761  18.451   7.049  1.00  0.00    -0.234 N 
ATOM     44  H72 UNL     1      35.217  19.304   7.175  1.00  0.00     0.174 HD
ATOM     45  H71 UNL     1      36.652  18.477   6.554  1.00  0.00     0.174 HD
ENDBRANCH  38  43
BRANCH  41  46
HETATM   46  N9  UNL     1      36.537  14.536   9.234  1.00  0.00    -0.384 N 
ATOM     47  H92 UNL     1      36.193  13.938   9.984  1.00  0.00     0.157 HD
ATOM     48  H91 UNL     1      37.519  14.523   8.956  1.00  0.00     0.157 HD
ENDBRANCH  41  46
ENDBRANCH  34  35
ENDBRANCH   8  34
TORSDOF 14
ENDMDL
MODEL 5
REMARK VINA RESULT: -2.345408827      5.970      9.783
REMARK  14 active torsions:
REMARK  status: ('A' for Active; 'I' for Inactive)
REMARK    1  A    between atoms: N1_2  and  C3_4 
REMARK    2  A    between atoms: C3_4  and  C4_5 
REMARK    3  A    between atoms: C5_6  and  C6_7 
REMARK    4  A    between atoms: C6_7  and  N2_8 
REMARK    5  A    between atoms: N2_8  and  C7_10 
REMARK    6  A    between atoms: C9_12  and  N3_13 
REMARK    7  A    between atoms: N3_13  and  C10_15 
REMARK    8  A    between atoms: C14_22  and  C15_23 
REMARK    9  A    between atoms: C15_23  and  C16_24 
REMARK   10  A    between atoms: C18_28  and  N7_29 
REMARK   11  A    between atoms: C19_34  and  N9_35 
REMARK   12  A    between atoms: N12_44  and  C22_45 
REMARK   13  A    between atoms: C22_45  and  C23_46 
REMARK   14  A    between atoms: C23_46  and  O1_47 
ROOT
HETATM    1  C7  UNL     1      36.304  17.274   9.380  1.00  0.00     0.106 A 
HETATM    2  C8  UNL     1      35.792  17.831   8.223  1.00  0.00     0.098 A 
HETATM    3  C9  UNL     1      34.692  17.288   7.580  1.00  0.00     0.129 A 
HETATM    4  N4  UNL     1      34.145  16.194   8.130  1.00  0.00    -0.223 N 
HETATM    5  N5  UNL     1      33.111  15.470   7.753  1.00  0.00    -0.301 N 
ATOM      6  H5  UNL     1      32.540  15.653   6.928  1.00  0.00     0.186 HD
HETATM    7  C13 UNL     1      32.916  14.439   8.628  1.00  0.00     0.123 A 
HETATM    8  C14 UNL     1      33.884  14.530   9.603  1.00  0.00     0.028 A 
HETATM    9  C20 UNL     1      34.640  15.633   9.270  1.00  0.00     0.142 A 
HETATM   10  N10 UNL     1      35.707  16.181   9.873  1.00  0.00    -0.327 N 
ATOM     11  H10 UNL     1      36.071  15.755  10.725  1.00  0.00     0.169 HD
ENDROOT
BRANCH   1  12
HETATM   12  N2  UNL     1      37.427  17.806  10.067  1.00  0.00    -0.372 N 
ATOM     13  H2  UNL     1      38.274  18.013   9.538  1.00  0.00     0.161 HD
BRANCH  12  14
HETATM   14  C6  UNL     1      37.412  18.064  11.484  1.00  0.00     0.163 C 
BRANCH  14  15
HETATM   15  C5  UNL     1      37.305  19.507  11.803  1.00  0.00     0.006 A 
HETATM   16  C4  UNL     1      37.482  20.075  13.104  1.00  0.00     0.075 A 
HETATM   17  N12 UNL     1      37.317  21.382  13.010  1.00  0.00    -0.289 N 
HETATM   18  N11 UNL     1      37.042  21.653  11.710  1.00  0.00    -0.309 N 
HETATM   19  C21 UNL     1      37.031  20.557  10.978  1.00  0.00     0.118 A 
ATOM     20  H11 UNL     1      36.866  22.589  11.344  1.00  0.00     0.186 HD
BRANCH  16  21
HETATM   21  C3  UNL     1      37.684  19.167  14.223  1.00  0.00     0.116 C 
BRANCH  21  22
HETATM   22  N1  UNL     1      36.776  18.214  14.643  1.00  0.00    -0.397 N 
HETATM   23  C1  UNL     1      37.216  16.946  15.074  1.00  0.00     0.148 C 
HETATM   24  C2  UNL     1      35.524  18.175  13.926  1.00  0.00     0.148 C 
ENDBRANCH  21  22
ENDBRANCH  16  21
BRANCH  17  25
HETATM   25  C22 UNL     1      37.444  22.503  13.908  1.00  0.00     0.175 C 
BRANCH  25  26
HETATM   26  C23 UNL     1      36.994  23.755  13.203  1.00  0.00     0.185 C 
BRANCH  26  27
HETATM   27  O1  UNL     1      35.729  24.180  13.475  1.00  0.00    -0.399 OA
ATOM     28  H1  UNL     1      35.602  25.120  13.525  1.00  0.00     0.209 HD
ENDBRANCH  26  27
ENDBRANCH  25  26
ENDBRANCH  17  25
ENDBRANCH  14  15
ENDBRANCH  12  14
ENDBRANCH   1  12
BRANCH   3  29
HETATM   29  N3  UNL     1      34.278  17.865   6.512  1.00  0.00    -0.370 N 
ATOM     30  H3  UNL     1      33.308  17.680   6.257  1.00  0.00     0.161 HD
BRANCH  29  31
HETATM   31  C10 UNL     1      34.992  18.726   5.640  1.00  0.00     0.083 A 
HETATM   32  C11 UNL     1      34.094  19.830   5.041  1.00  0.00     0.027 A 
HETATM   33  C12 UNL     1      35.264  20.152   5.898  1.00  0.00     0.027 A 
ENDBRANCH  29  31
ENDBRANCH   3  29
BRANCH   8  34
HETATM   34  C15 UNL     1      34.011  13.705  10.625  1.00  0.00     0.033 C 
BRANCH  34  35
HETATM   35  C16 UNL     1      33.482  13.989  11.941  1.00  0.00     0.025 A 
HETATM   36  C17 UNL     1      33.761  15.160  12.613  1.00  0.00     0.121 A 
HETATM   37  N6  UNL     1      33.253  15.401  13.848  1.00  0.00    -0.201 N 
HETATM   38  C18 UNL     1      32.461  14.495  14.445  1.00  0.00     0.677 A 
ATOM     39  H6  UNL     1      33.473  16.275  14.325  1.00  0.00     0.183 HD
HETATM   40  N8  UNL     1      32.165  13.342  13.824  1.00  0.00    -0.177 N 
HETATM   41  C19 UNL     1      32.669  13.084  12.580  1.00  0.00     0.126 A 
ATOM     42  H8  UNL     1      31.563  12.657  14.283  1.00  0.00     0.186 HD
BRANCH  38  43
HETATM   43  N7  UNL     1      31.978  14.727  15.614  1.00  0.00    -0.234 N 
ATOM     44  H72 UNL     1      32.591  14.678  16.428  1.00  0.00     0.174 HD
ATOM     45  H71 UNL     1      30.991  14.956  15.726  1.00  0.00     0.174 HD
ENDBRANCH  38  43
BRANCH  41  46
HETATM   46  N9  UNL     1      32.357  11.962  12.021  1.00  0.00    -0.384 N 
ATOM     47  H92 UNL     1      32.989  11.172  12.149  1.00  0.00     0.157 HD
ATOM     48  H91 UNL     1      31.504  11.871  11.469  1.00  0.00     0.157 HD
ENDBRANCH  41  46
ENDBRANCH  34  35
ENDBRANCH   8  34
TORSDOF 14
ENDMDL
