MODEL 1
REMARK VINA RESULT: -3.817501603      0.000      0.000
REMARK  10 active torsions:
REMARK  status: ('A' for Active; 'I' for Inactive)
REMARK    1  A    between atoms: N1_1  and  C1_4 
REMARK    2  A    between atoms: C2_10  and  N4_11 
REMARK    3  A    between atoms: C3_12  and  S1_13 
REMARK    4  A    between atoms: S1_13  and  C4_14 
REMARK    5  A    between atoms: C4_14  and  C5_15 
REMARK    6  A    between atoms: C7_21  and  C8_22 
REMARK       I    between atoms: C8_22  and  N7_24 
REMARK    7  A    between atoms: N7_24  and  C9_26 
REMARK    8  A    between atoms: C9_26  and  C10_27 
REMARK    9  A    between atoms: C10_27  and  N8_28 
REMARK   10  A    between atoms: C20_40  and  N10_41 
ROOT
HETATM    1  N4  UNL     1      39.917  25.237  12.329  1.00  0.00    -0.257 N 
HETATM    2  C3  UNL     1      41.091  24.597  12.434  1.00  0.00     0.154 A 
HETATM    3  N6  UNL     1      41.131  23.262  12.740  1.00  0.00    -0.345 N 
ATOM      4  H6  UNL     1      42.037  22.800  12.815  1.00  0.00     0.167 HD
HETATM    5  C6  UNL     1      40.024  22.552  12.941  1.00  0.00     0.111 A 
HETATM    6  C7  UNL     1      38.802  23.191  12.837  1.00  0.00     0.091 A 
HETATM    7  C20 UNL     1      38.771  24.519  12.534  1.00  0.00     0.126 A 
ENDROOT
BRANCH   6   8
HETATM    8  C8  UNL     1      37.611  22.386  13.054  1.00  0.00     0.256 C 
HETATM    9  O3  UNL     1      36.851  22.695  14.027  1.00  0.00    -0.267 OA
HETATM   10  N7  UNL     1      37.317  21.283  12.195  1.00  0.00    -0.354 N 
ATOM     11  H7  UNL     1      37.926  21.037  11.415  1.00  0.00     0.162 HD
BRANCH  10  12
HETATM   12  C9  UNL     1      36.114  20.532  12.484  1.00  0.00     0.154 C 
BRANCH  12  13
HETATM   13  C10 UNL     1      36.330  19.081  12.086  1.00  0.00     0.050 C 
HETATM   14  C16 UNL     1      35.860  18.159  13.229  1.00  0.00     0.052 C 
HETATM   15  C17 UNL     1      36.401  18.697  14.554  1.00  0.00     0.116 C 
HETATM   16  N9  UNL     1      37.809  18.773  14.530  1.00  0.00    -0.421 N 
HETATM   17  C18 UNL     1      38.448  19.315  13.391  1.00  0.00     0.116 C 
ATOM     18  H9  UNL     1      38.358  18.441  15.323  1.00  0.00     0.153 HD
HETATM   19  C19 UNL     1      37.830  18.881  12.078  1.00  0.00     0.052 C 
BRANCH  13  20
HETATM   20  N8  UNL     1      35.745  18.812  10.866  1.00  0.00    -0.382 N 
HETATM   21  C11 UNL     1      34.429  18.351  10.776  1.00  0.00     0.059 C 
HETATM   22  C12 UNL     1      34.255  16.885  10.418  1.00  0.00     0.044 C 
HETATM   23  C13 UNL     1      35.212  16.551   9.316  1.00  0.00     0.007 C 
HETATM   24  C14 UNL     1      35.773  17.793   8.642  1.00  0.00     0.020 C 
HETATM   25  C15 UNL     1      36.476  18.678   9.684  1.00  0.00     0.123 C 
ENDBRANCH  13  20
ENDBRANCH  12  13
ENDBRANCH  10  12
ENDBRANCH   6   8
BRANCH   7  26
HETATM   26  N10 UNL     1      37.689  25.157  12.426  1.00  0.00    -0.384 N 
ATOM     27 2H10 UNL     1      37.622  26.152  12.641  1.00  0.00     0.157 HD
ATOM     28 1H10 UNL     1      36.880  24.621  12.110  1.00  0.00     0.157 HD
ENDBRANCH   7  26
BRANCH   1  29
HETATM   29  C2  UNL     1      39.838  26.620  12.024  1.00  0.00     0.183 A 
HETATM   30  C1  UNL     1      39.811  27.136  10.754  1.00  0.00     0.168 A 
HETATM   31  N2  UNL     1      39.737  28.474  10.907  1.00  0.00    -0.222 N 
HETATM   32  O1  UNL     1      39.721  28.732  12.181  1.00  0.00    -0.153 OA
ATOM     33  H2  UNL     1      39.700  29.162  10.155  1.00  0.00     0.198 HD
HETATM   34  N3  UNL     1      39.779  27.659  12.897  1.00  0.00    -0.221 N 
ATOM     35  H3  UNL     1      39.780  27.603  13.916  1.00  0.00     0.198 HD
BRANCH  30  36
HETATM   36  N1  UNL     1      39.849  26.496   9.612  1.00  0.00    -0.381 N 
ATOM     37  H12 UNL     1      39.857  26.882   8.668  1.00  0.00     0.157 HD
ATOM     38  H11 UNL     1      39.876  25.483   9.496  1.00  0.00     0.157 HD
ENDBRANCH  30  36
ENDBRANCH   1  29
BRANCH   2  39
HETATM   39  S1  UNL     1      42.634  25.444  12.190  1.00  0.00    -0.084 SA
BRANCH  39  40
HETATM   40  C4  UNL     1      43.903  24.896  13.373  1.00  0.00     0.181 C 
BRANCH  40  41
HETATM   41  C5  UNL     1      43.921  25.782  14.563  1.00  0.00     0.240 C 
HETATM   42  N5  UNL     1      45.115  25.921  15.300  1.00  0.00    -0.061 NA
HETATM   43  O2  UNL     1      42.902  26.406  14.926  1.00  0.00    -0.276 OA
ENDBRANCH  40  41
ENDBRANCH  39  40
ENDBRANCH   2  39
TORSDOF 10
ENDMDL
MODEL 2
REMARK VINA RESULT: -3.614074055      1.381      1.525
REMARK  10 active torsions:
REMARK  status: ('A' for Active; 'I' for Inactive)
REMARK    1  A    between atoms: N1_1  and  C1_4 
REMARK    2  A    between atoms: C2_10  and  N4_11 
REMARK    3  A    between atoms: C3_12  and  S1_13 
REMARK    4  A    between atoms: S1_13  and  C4_14 
REMARK    5  A    between atoms: C4_14  and  C5_15 
REMARK    6  A    between atoms: C7_21  and  C8_22 
REMARK       I    between atoms: C8_22  and  N7_24 
REMARK    7  A    between atoms: N7_24  and  C9_26 
REMARK    8  A    between atoms: C9_26  and  C10_27 
REMARK    9  A    between atoms: C10_27  and  N8_28 
REMARK   10  A    between atoms: C20_40  and  N10_41 
ROOT
HETATM    1  N4  UNL     1      39.863  25.352  12.407  1.00  0.00    -0.257 N 
HETATM    2  C3  UNL     1      40.960  24.672  12.773  1.00  0.00     0.154 A 
HETATM    3  N6  UNL     1      40.877  23.350  13.120  1.00  0.00    -0.345 N 
ATOM      4  H6  UNL     1      41.726  22.856  13.396  1.00  0.00     0.167 HD
HETATM    5  C6  UNL     1      39.722  22.689  13.109  1.00  0.00     0.111 A 
HETATM    6  C7  UNL     1      38.577  23.370  12.734  1.00  0.00     0.091 A 
HETATM    7  C20 UNL     1      38.668  24.685  12.391  1.00  0.00     0.126 A 
ENDROOT
BRANCH   6   8
HETATM    8  C8  UNL     1      37.332  22.619  12.722  1.00  0.00     0.256 C 
HETATM    9  O3  UNL     1      36.290  23.185  13.185  1.00  0.00    -0.267 OA
HETATM   10  N7  UNL     1      37.295  21.288  12.208  1.00  0.00    -0.354 N 
ATOM     11  H7  UNL     1      38.130  20.835  11.837  1.00  0.00     0.162 HD
BRANCH  10  12
HETATM   12  C9  UNL     1      36.015  20.610  12.238  1.00  0.00     0.154 C 
BRANCH  12  13
HETATM   13  C10 UNL     1      36.232  19.133  11.950  1.00  0.00     0.050 C 
HETATM   14  C16 UNL     1      35.756  18.300  13.157  1.00  0.00     0.052 C 
HETATM   15  C17 UNL     1      36.292  18.935  14.440  1.00  0.00     0.116 C 
HETATM   16  N9  UNL     1      37.700  19.008  14.417  1.00  0.00    -0.421 N 
HETATM   17  C18 UNL     1      38.345  19.463  13.243  1.00  0.00     0.116 C 
ATOM     18  H9  UNL     1      38.246  18.736  15.235  1.00  0.00     0.153 HD
HETATM   19  C19 UNL     1      37.732  18.932  11.963  1.00  0.00     0.052 C 
BRANCH  13  20
HETATM   20  N8  UNL     1      35.652  18.774  10.751  1.00  0.00    -0.382 N 
HETATM   21  C11 UNL     1      34.377  18.204  10.702  1.00  0.00     0.059 C 
HETATM   22  C12 UNL     1      34.318  16.717  10.397  1.00  0.00     0.044 C 
HETATM   23  C13 UNL     1      35.283  16.424   9.290  1.00  0.00     0.007 C 
HETATM   24  C14 UNL     1      35.729  17.682   8.563  1.00  0.00     0.020 C 
HETATM   25  C15 UNL     1      36.373  18.659   9.561  1.00  0.00     0.123 C 
ENDBRANCH  13  20
ENDBRANCH  12  13
ENDBRANCH  10  12
ENDBRANCH   6   8
BRANCH   7  26
HETATM   26  N10 UNL     1      37.662  25.359  12.042  1.00  0.00    -0.384 N 
ATOM     27 2H10 UNL     1      37.578  26.355  12.246  1.00  0.00     0.157 HD
ATOM     28 1H10 UNL     1      36.932  24.851  11.541  1.00  0.00     0.157 HD
ENDBRANCH   7  26
BRANCH   1  29
HETATM   29  C2  UNL     1      39.911  26.724  12.051  1.00  0.00     0.183 A 
HETATM   30  C1  UNL     1      40.005  27.191  10.766  1.00  0.00     0.168 A 
HETATM   31  N2  UNL     1      40.025  28.535  10.868  1.00  0.00    -0.222 N 
HETATM   32  O1  UNL     1      39.947  28.843  12.129  1.00  0.00    -0.153 OA
ATOM     33  H2  UNL     1      40.089  29.195  10.093  1.00  0.00     0.198 HD
HETATM   34  N3  UNL     1      39.876  27.797  12.883  1.00  0.00    -0.221 N 
ATOM     35  H3  UNL     1      39.808  27.780  13.901  1.00  0.00     0.198 HD
BRANCH  30  36
HETATM   36  N1  UNL     1      40.066  26.506   9.651  1.00  0.00    -0.381 N 
ATOM     37  H12 UNL     1      40.820  26.477   8.965  1.00  0.00     0.157 HD
ATOM     38  H11 UNL     1      39.344  25.881   9.294  1.00  0.00     0.157 HD
ENDBRANCH  30  36
ENDBRANCH   1  29
BRANCH   2  39
HETATM   39  S1  UNL     1      42.557  25.450  12.830  1.00  0.00    -0.084 SA
BRANCH  39  40
HETATM   40  C4  UNL     1      43.373  25.444  11.204  1.00  0.00     0.181 C 
BRANCH  40  41
HETATM   41  C5  UNL     1      43.352  26.804  10.608  1.00  0.00     0.240 C 
HETATM   42  N5  UNL     1      43.387  27.929  11.456  1.00  0.00    -0.061 NA
HETATM   43  O2  UNL     1      43.301  26.972   9.371  1.00  0.00    -0.276 OA
ENDBRANCH  40  41
ENDBRANCH  39  40
ENDBRANCH   2  39
TORSDOF 10
ENDMDL
MODEL 3
REMARK VINA RESULT: -3.221061242      2.910      9.414
REMARK  10 active torsions:
REMARK  status: ('A' for Active; 'I' for Inactive)
REMARK    1  A    between atoms: N1_1  and  C1_4 
REMARK    2  A    between atoms: C2_10  and  N4_11 
REMARK    3  A    between atoms: C3_12  and  S1_13 
REMARK    4  A    between atoms: S1_13  and  C4_14 
REMARK    5  A    between atoms: C4_14  and  C5_15 
REMARK    6  A    between atoms: C7_21  and  C8_22 
REMARK       I    between atoms: C8_22  and  N7_24 
REMARK    7  A    between atoms: N7_24  and  C9_26 
REMARK    8  A    between atoms: C9_26  and  C10_27 
REMARK    9  A    between atoms: C10_27  and  N8_28 
REMARK   10  A    between atoms: C20_40  and  N10_41 
ROOT
HETATM    1  N4  UNL     1      36.996  19.607  12.813  1.00  0.00    -0.257 N 
HETATM    2  C3  UNL     1      36.896  19.398  11.492  1.00  0.00     0.154 A 
HETATM    3  N6  UNL     1      36.974  20.445  10.613  1.00  0.00    -0.345 N 
ATOM      4  H6  UNL     1      36.893  20.259   9.613  1.00  0.00     0.167 HD
HETATM    5  C6  UNL     1      37.151  21.698  11.024  1.00  0.00     0.111 A 
HETATM    6  C7  UNL     1      37.257  21.939  12.382  1.00  0.00     0.091 A 
HETATM    7  C20 UNL     1      37.178  20.891  13.250  1.00  0.00     0.126 A 
ENDROOT
BRANCH   6   8
HETATM    8  C8  UNL     1      37.459  23.317  12.799  1.00  0.00     0.256 C 
HETATM    9  O3  UNL     1      36.464  23.945  13.283  1.00  0.00    -0.267 OA
HETATM   10  N7  UNL     1      38.739  23.934  12.660  1.00  0.00    -0.354 N 
ATOM     11  H7  UNL     1      39.536  23.430  12.272  1.00  0.00     0.162 HD
BRANCH  10  12
HETATM   12  C9  UNL     1      38.852  25.310  13.096  1.00  0.00     0.154 C 
BRANCH  12  13
HETATM   13  C10 UNL     1      40.149  25.894  12.558  1.00  0.00     0.050 C 
HETATM   14  C16 UNL     1      40.175  27.412  12.818  1.00  0.00     0.052 C 
HETATM   15  C17 UNL     1      38.824  28.007  12.421  1.00  0.00     0.116 C 
HETATM   16  N9  UNL     1      38.536  27.746  11.065  1.00  0.00    -0.421 N 
HETATM   17  C18 UNL     1      38.759  26.446  10.555  1.00  0.00     0.116 C 
ATOM     18  H9  UNL     1      38.173  28.484  10.461  1.00  0.00     0.153 HD
HETATM   19  C19 UNL     1      40.040  25.805  11.050  1.00  0.00     0.052 C 
BRANCH  13  20
HETATM   20  N8  UNL     1      41.240  25.215  13.059  1.00  0.00    -0.382 N 
HETATM   21  C11 UNL     1      42.049  25.771  14.053  1.00  0.00     0.059 C 
HETATM   22  C12 UNL     1      43.415  26.266  13.610  1.00  0.00     0.044 C 
HETATM   23  C13 UNL     1      44.007  25.248  12.684  1.00  0.00     0.007 C 
HETATM   24  C14 UNL     1      43.288  23.911  12.759  1.00  0.00     0.020 C 
HETATM   25  C15 UNL     1      41.799  24.101  12.428  1.00  0.00     0.123 C 
ENDBRANCH  13  20
ENDBRANCH  12  13
ENDBRANCH  10  12
ENDBRANCH   6   8
BRANCH   7  26
HETATM   26  N10 UNL     1      37.266  21.046  14.498  1.00  0.00    -0.384 N 
ATOM     27 2H10 UNL     1      36.605  20.619  15.146  1.00  0.00     0.157 HD
ATOM     28 1H10 UNL     1      38.041  21.623  14.826  1.00  0.00     0.157 HD
ENDBRANCH   7  26
BRANCH   1  29
HETATM   29  C2  UNL     1      36.910  18.548  13.752  1.00  0.00     0.183 A 
HETATM   30  C1  UNL     1      35.877  17.648  13.817  1.00  0.00     0.168 A 
HETATM   31  N2  UNL     1      36.179  16.821  14.837  1.00  0.00    -0.222 N 
HETATM   32  O1  UNL     1      37.314  17.204  15.342  1.00  0.00    -0.153 OA
ATOM     33  H2  UNL     1      35.617  16.032  15.157  1.00  0.00     0.198 HD
HETATM   34  N3  UNL     1      37.798  18.234  14.731  1.00  0.00    -0.221 N 
ATOM     35  H3  UNL     1      38.672  18.715  14.941  1.00  0.00     0.198 HD
BRANCH  30  36
HETATM   36  N1  UNL     1      34.808  17.579  13.065  1.00  0.00    -0.381 N 
ATOM     37  H12 UNL     1      33.975  17.004  13.196  1.00  0.00     0.157 HD
ATOM     38  H11 UNL     1      34.645  18.107  12.207  1.00  0.00     0.157 HD
ENDBRANCH  30  36
ENDBRANCH   1  29
BRANCH   2  39
HETATM   39  S1  UNL     1      36.654  17.767  10.827  1.00  0.00    -0.084 SA
BRANCH  39  40
HETATM   40  C4  UNL     1      35.652  17.795   9.310  1.00  0.00     0.181 C 
BRANCH  40  41
HETATM   41  C5  UNL     1      34.824  16.567   9.213  1.00  0.00     0.240 C 
HETATM   42  N5  UNL     1      34.220  16.049  10.377  1.00  0.00    -0.061 NA
HETATM   43  O2  UNL     1      34.652  15.982   8.123  1.00  0.00    -0.276 OA
ENDBRANCH  40  41
ENDBRANCH  39  40
ENDBRANCH   2  39
TORSDOF 10
ENDMDL
MODEL 4
REMARK VINA RESULT: -2.984899965      1.785      3.295
REMARK  10 active torsions:
REMARK  status: ('A' for Active; 'I' for Inactive)
REMARK    1  A    between atoms: N1_1  and  C1_4 
REMARK    2  A    between atoms: C2_10  and  N4_11 
REMARK    3  A    between atoms: C3_12  and  S1_13 
REMARK    4  A    between atoms: S1_13  and  C4_14 
REMARK    5  A    between atoms: C4_14  and  C5_15 
REMARK    6  A    between atoms: C7_21  and  C8_22 
REMARK       I    between atoms: C8_22  and  N7_24 
REMARK    7  A    between atoms: N7_24  and  C9_26 
REMARK    8  A    between atoms: C9_26  and  C10_27 
REMARK    9  A    between atoms: C10_27  and  N8_28 
REMARK   10  A    between atoms: C20_40  and  N10_41 
ROOT
HETATM    1  N4  UNL     1      40.601  24.791  12.472  1.00  0.00    -0.257 N 
HETATM    2  C3  UNL     1      39.935  25.864  12.020  1.00  0.00     0.154 A 
HETATM    3  N6  UNL     1      38.567  25.900  12.055  1.00  0.00    -0.345 N 
ATOM      4  H6  UNL     1      38.085  26.728  11.703  1.00  0.00     0.167 HD
HETATM    5  C6  UNL     1      37.847  24.889  12.533  1.00  0.00     0.111 A 
HETATM    6  C7  UNL     1      38.512  23.771  13.005  1.00  0.00     0.091 A 
HETATM    7  C20 UNL     1      39.873  23.743  12.967  1.00  0.00     0.126 A 
ENDROOT
BRANCH   6   8
HETATM    8  C8  UNL     1      37.698  22.687  13.531  1.00  0.00     0.256 C 
HETATM    9  O3  UNL     1      37.329  22.754  14.747  1.00  0.00    -0.267 OA
HETATM   10  N7  UNL     1      37.335  21.586  12.698  1.00  0.00    -0.354 N 
ATOM     11  H7  UNL     1      37.631  21.533  11.723  1.00  0.00     0.162 HD
BRANCH  10  12
HETATM   12  C9  UNL     1      36.527  20.547  13.302  1.00  0.00     0.154 C 
BRANCH  12  13
HETATM   13  C10 UNL     1      36.799  19.232  12.589  1.00  0.00     0.050 C 
HETATM   14  C16 UNL     1      36.500  18.059  13.544  1.00  0.00     0.052 C 
HETATM   15  C17 UNL     1      37.127  18.356  14.906  1.00  0.00     0.116 C 
HETATM   16  N9  UNL     1      38.519  18.552  14.789  1.00  0.00    -0.421 N 
HETATM   17  C18 UNL     1      39.011  19.369  13.744  1.00  0.00     0.116 C 
ATOM     18  H9  UNL     1      39.161  18.112  15.448  1.00  0.00     0.153 HD
HETATM   19  C19 UNL     1      38.302  19.164  12.421  1.00  0.00     0.052 C 
BRANCH  13  20
HETATM   20  N8  UNL     1      36.121  19.172  11.389  1.00  0.00    -0.382 N 
HETATM   21  C11 UNL     1      34.731  19.037  11.346  1.00  0.00     0.059 C 
HETATM   22  C12 UNL     1      34.201  17.673  10.936  1.00  0.00     0.044 C 
HETATM   23  C13 UNL     1      35.010  17.183   9.775  1.00  0.00     0.007 C 
HETATM   24  C14 UNL     1      35.822  18.293   9.126  1.00  0.00     0.020 C 
HETATM   25  C15 UNL     1      36.754  18.932  10.168  1.00  0.00     0.123 C 
ENDBRANCH  13  20
ENDBRANCH  12  13
ENDBRANCH  10  12
ENDBRANCH   6   8
BRANCH   7  26
HETATM   26  N10 UNL     1      40.536  22.754  13.381  1.00  0.00    -0.384 N 
ATOM     27 2H10 UNL     1      40.541  21.860  12.890  1.00  0.00     0.157 HD
ATOM     28 1H10 UNL     1      41.070  22.898  14.239  1.00  0.00     0.157 HD
ENDBRANCH   7  26
BRANCH   1  29
HETATM   29  C2  UNL     1      42.017  24.715  12.442  1.00  0.00     0.183 A 
HETATM   30  C1  UNL     1      42.848  25.318  13.351  1.00  0.00     0.168 A 
HETATM   31  N2  UNL     1      44.100  25.003  12.964  1.00  0.00    -0.222 N 
HETATM   32  O1  UNL     1      44.016  24.263  11.898  1.00  0.00    -0.153 OA
ATOM     33  H2  UNL     1      44.961  25.294  13.426  1.00  0.00     0.198 HD
HETATM   34  N3  UNL     1      42.792  24.058  11.541  1.00  0.00    -0.221 N 
ATOM     35  H3  UNL     1      42.472  23.511  10.742  1.00  0.00     0.198 HD
BRANCH  30  36
HETATM   36  N1  UNL     1      42.528  26.053  14.386  1.00  0.00    -0.381 N 
ATOM     37  H12 UNL     1      42.446  25.772  15.363  1.00  0.00     0.157 HD
ATOM     38  H11 UNL     1      42.304  27.049  14.366  1.00  0.00     0.157 HD
ENDBRANCH  30  36
ENDBRANCH   1  29
BRANCH   2  39
HETATM   39  S1  UNL     1      40.790  27.273  11.355  1.00  0.00    -0.084 SA
BRANCH  39  40
HETATM   40  C4  UNL     1      40.986  27.159   9.550  1.00  0.00     0.181 C 
BRANCH  40  41
HETATM   41  C5  UNL     1      42.412  27.324   9.171  1.00  0.00     0.240 C 
HETATM   42  N5  UNL     1      42.744  28.174   8.096  1.00  0.00    -0.061 NA
HETATM   43  O2  UNL     1      43.322  26.726   9.782  1.00  0.00    -0.276 OA
ENDBRANCH  40  41
ENDBRANCH  39  40
ENDBRANCH   2  39
TORSDOF 10
ENDMDL
MODEL 5
REMARK VINA RESULT: -2.794231341      1.468      3.364
REMARK  10 active torsions:
REMARK  status: ('A' for Active; 'I' for Inactive)
REMARK    1  A    between atoms: N1_1  and  C1_4 
REMARK    2  A    between atoms: C2_10  and  N4_11 
REMARK    3  A    between atoms: C3_12  and  S1_13 
REMARK    4  A    between atoms: S1_13  and  C4_14 
REMARK    5  A    between atoms: C4_14  and  C5_15 
REMARK    6  A    between atoms: C7_21  and  C8_22 
REMARK       I    between atoms: C8_22  and  N7_24 
REMARK    7  A    between atoms: N7_24  and  C9_26 
REMARK    8  A    between atoms: C9_26  and  C10_27 
REMARK    9  A    between atoms: C10_27  and  N8_28 
REMARK   10  A    between atoms: C20_40  and  N10_41 
ROOT
HETATM    1  N4  UNL     1      40.714  24.658  12.510  1.00  0.00    -0.257 N 
HETATM    2  C3  UNL     1      40.131  25.782  12.069  1.00  0.00     0.154 A 
HETATM    3  N6  UNL     1      38.767  25.906  12.073  1.00  0.00    -0.345 N 
ATOM      4  H6  UNL     1      38.348  26.771  11.731  1.00  0.00     0.167 HD
HETATM    5  C6  UNL     1      37.971  24.933  12.510  1.00  0.00     0.111 A 
HETATM    6  C7  UNL     1      38.551  23.764  12.969  1.00  0.00     0.091 A 
HETATM    7  C20 UNL     1      39.909  23.648  12.962  1.00  0.00     0.126 A 
ENDROOT
BRANCH   6   8
HETATM    8  C8  UNL     1      37.657  22.722  13.449  1.00  0.00     0.256 C 
HETATM    9  O3  UNL     1      37.174  22.844  14.620  1.00  0.00    -0.267 OA
HETATM   10  N7  UNL     1      37.342  21.602  12.622  1.00  0.00    -0.354 N 
ATOM     11  H7  UNL     1      37.729  21.506  11.683  1.00  0.00     0.162 HD
BRANCH  10  12
HETATM   12  C9  UNL     1      36.447  20.610  13.179  1.00  0.00     0.154 C 
BRANCH  12  13
HETATM   13  C10 UNL     1      36.724  19.268  12.518  1.00  0.00     0.050 C 
HETATM   14  C16 UNL     1      36.411  18.133  13.512  1.00  0.00     0.052 C 
HETATM   15  C17 UNL     1      37.022  18.479  14.870  1.00  0.00     0.116 C 
HETATM   16  N9  UNL     1      38.416  18.668  14.762  1.00  0.00    -0.421 N 
HETATM   17  C18 UNL     1      38.922  19.444  13.694  1.00  0.00     0.116 C 
ATOM     18  H9  UNL     1      39.049  18.251  15.444  1.00  0.00     0.153 HD
HETATM   19  C19 UNL     1      38.229  19.192  12.371  1.00  0.00     0.052 C 
BRANCH  13  20
HETATM   20  N8  UNL     1      36.060  19.165  11.313  1.00  0.00    -0.382 N 
HETATM   21  C11 UNL     1      34.672  19.010  11.259  1.00  0.00     0.059 C 
HETATM   22  C12 UNL     1      34.166  17.629  10.882  1.00  0.00     0.044 C 
HETATM   23  C13 UNL     1      34.994  17.116   9.744  1.00  0.00     0.007 C 
HETATM   24  C14 UNL     1      35.798  18.218   9.073  1.00  0.00     0.020 C 
HETATM   25  C15 UNL     1      36.710  18.900  10.107  1.00  0.00     0.123 C 
ENDBRANCH  13  20
ENDBRANCH  12  13
ENDBRANCH  10  12
ENDBRANCH   6   8
BRANCH   7  26
HETATM   26  N10 UNL     1      40.496  22.608  13.367  1.00  0.00    -0.384 N 
ATOM     27 2H10 UNL     1      40.473  22.318  14.344  1.00  0.00     0.157 HD
ATOM     28 1H10 UNL     1      40.997  22.070  12.659  1.00  0.00     0.157 HD
ENDBRANCH   7  26
BRANCH   1  29
HETATM   29  C2  UNL     1      42.123  24.491  12.511  1.00  0.00     0.183 A 
HETATM   30  C1  UNL     1      42.980  25.116  13.379  1.00  0.00     0.168 A 
HETATM   31  N2  UNL     1      44.214  24.691  13.042  1.00  0.00    -0.222 N 
HETATM   32  O1  UNL     1      44.096  23.869  12.042  1.00  0.00    -0.153 OA
ATOM     33  H2  UNL     1      45.087  24.966  13.493  1.00  0.00     0.198 HD
HETATM   34  N3  UNL     1      42.865  23.711  11.683  1.00  0.00    -0.221 N 
ATOM     35  H3  UNL     1      42.520  23.119  10.927  1.00  0.00     0.198 HD
BRANCH  30  36
HETATM   36  N1  UNL     1      42.695  25.956  14.343  1.00  0.00    -0.381 N 
ATOM     37  H12 UNL     1      43.071  25.986  15.291  1.00  0.00     0.157 HD
ATOM     38  H11 UNL     1      42.032  26.730  14.285  1.00  0.00     0.157 HD
ENDBRANCH  30  36
ENDBRANCH   1  29
BRANCH   2  39
HETATM   39  S1  UNL     1      41.091  27.148  11.459  1.00  0.00    -0.084 SA
BRANCH  39  40
HETATM   40  C4  UNL     1      40.038  28.483  10.815  1.00  0.00     0.181 C 
BRANCH  40  41
HETATM   41  C5  UNL     1      39.532  29.328  11.925  1.00  0.00     0.240 C 
HETATM   42  N5  UNL     1      40.396  30.267  12.525  1.00  0.00    -0.061 NA
HETATM   43  O2  UNL     1      38.359  29.223  12.342  1.00  0.00    -0.276 OA
ENDBRANCH  40  41
ENDBRANCH  39  40
ENDBRANCH   2  39
TORSDOF 10
ENDMDL
