MODEL 1
REMARK VINA RESULT: -6.416467319      0.000      0.000
REMARK  10 active torsions:
REMARK  status: ('A' for Active; 'I' for Inactive)
REMARK    1  A    between atoms: C4_7  and  C5_8 
REMARK    2  A    between atoms: C5_8  and  C6_9 
REMARK    3  A    between atoms: C6_9  and  C7_10 
REMARK    4  A    between atoms: C7_10  and  N2_11 
REMARK    5  A    between atoms: N5_16  and  C9_17 
REMARK    6  A    between atoms: C9_17  and  C10_18 
REMARK    7  A    between atoms: C10_18  and  C11_19 
REMARK    8  A    between atoms: C11_19  and  N6_20 
REMARK    9  A    between atoms: N6_20  and  C12_22 
REMARK   10  A    between atoms: C13_26  and  O2_27 
ROOT
HETATM    1  C1  UNL     1      13.051   0.047  22.274  1.00  0.00     0.036 C 
HETATM    2  C2  UNL     1      14.009  -0.999  22.823  1.00  0.00     0.124 C 
HETATM    3  N1  UNL     1      14.261  -0.709  24.208  1.00  0.00    -0.348 N 
ATOM      4  H1  UNL     1      13.474  -0.542  24.836  1.00  0.00     0.163 HD
HETATM    5  C3  UNL     1      15.590  -0.652  24.719  1.00  0.00     0.259 C 
HETATM    6  O1  UNL     1      15.711  -0.639  25.959  1.00  0.00    -0.267 OA
HETATM    7  C4  UNL     1      16.659  -0.614  23.715  1.00  0.00     0.058 C 
HETATM    8  N5  UNL     1      16.404  -1.528  22.677  1.00  0.00    -0.254 NA
HETATM    9  C13 UNL     1      15.226  -1.010  21.946  1.00  0.00     0.220 C 
ENDROOT
BRANCH   8  10
HETATM   10  C9  UNL     1      16.133  -2.888  22.941  1.00  0.00     0.100 C 
BRANCH  10  11
HETATM   11  C10 UNL     1      17.304  -3.828  22.953  1.00  0.00     0.034 C 
BRANCH  11  12
HETATM   12  C11 UNL     1      17.391  -4.665  21.692  1.00  0.00     0.121 C 
BRANCH  12  13
HETATM   13  N6  UNL     1      16.103  -4.833  21.069  1.00  0.00    -0.386 N 
ATOM     14  H6  UNL     1      15.270  -4.780  21.656  1.00  0.00     0.160 HD
BRANCH  13  15
HETATM   15  C12 UNL     1      15.939  -5.067  19.686  1.00  0.00     0.168 C 
HETATM   16  N7  UNL     1      15.166  -4.325  19.001  1.00  0.00    -0.396 N 
ATOM     17  H72 UNL     1      14.673  -3.563  19.466  1.00  0.00     0.156 HD
ATOM     18  H71 UNL     1      15.048  -4.494  18.002  1.00  0.00     0.156 HD
ENDBRANCH  13  15
ENDBRANCH  12  13
ENDBRANCH  11  12
ENDBRANCH  10  11
ENDBRANCH   8  10
BRANCH   7  19
HETATM   19  C5  UNL     1      18.051  -0.503  24.191  1.00  0.00     0.058 C 
BRANCH  19  20
HETATM   20  C6  UNL     1      18.545   0.932  24.296  1.00  0.00     0.025 C 
BRANCH  20  21
HETATM   21  C7  UNL     1      20.056   0.835  24.318  1.00  0.00     0.122 C 
BRANCH  21  22
HETATM   22  N2  UNL     1      20.685   1.749  23.369  1.00  0.00    -0.367 N 
HETATM   23  C8  UNL     1      21.828   1.457  22.874  1.00  0.00     0.196 C 
HETATM   24  N3  UNL     1      22.476   0.264  23.245  1.00  0.00    -0.067 NA
HETATM   25  N4  UNL     1      22.439   2.338  21.959  1.00  0.00    -0.067 NA
ATOM     26  H2  UNL     1      20.216   2.614  23.103  1.00  0.00     0.161 HD
ENDBRANCH  21  22
ENDBRANCH  20  21
ENDBRANCH  19  20
ENDBRANCH   7  19
BRANCH   9  27
HETATM   27  O2  UNL     1      14.984  -1.872  20.877  1.00  0.00    -0.379 OA
ATOM     28  H2  UNL     1      15.747  -2.428  20.765  1.00  0.00     0.211 HD
ENDBRANCH   9  27
TORSDOF 10
ENDMDL
MODEL 2
REMARK VINA RESULT: -6.369288913      2.091      2.603
REMARK  10 active torsions:
REMARK  status: ('A' for Active; 'I' for Inactive)
REMARK    1  A    between atoms: C4_7  and  C5_8 
REMARK    2  A    between atoms: C5_8  and  C6_9 
REMARK    3  A    between atoms: C6_9  and  C7_10 
REMARK    4  A    between atoms: C7_10  and  N2_11 
REMARK    5  A    between atoms: N5_16  and  C9_17 
REMARK    6  A    between atoms: C9_17  and  C10_18 
REMARK    7  A    between atoms: C10_18  and  C11_19 
REMARK    8  A    between atoms: C11_19  and  N6_20 
REMARK    9  A    between atoms: N6_20  and  C12_22 
REMARK   10  A    between atoms: C13_26  and  O2_27 
ROOT
HETATM    1  C1  UNL     1      13.011   0.102  22.264  1.00  0.00     0.036 C 
HETATM    2  C2  UNL     1      13.975  -0.902  22.879  1.00  0.00     0.124 C 
HETATM    3  N1  UNL     1      14.257  -0.501  24.229  1.00  0.00    -0.348 N 
ATOM      4  H1  UNL     1      13.485  -0.276  24.857  1.00  0.00     0.163 HD
HETATM    5  C3  UNL     1      15.597  -0.413  24.706  1.00  0.00     0.259 C 
HETATM    6  O1  UNL     1      15.744  -0.298  25.939  1.00  0.00    -0.267 OA
HETATM    7  C4  UNL     1      16.645  -0.467  23.681  1.00  0.00     0.058 C 
HETATM    8  N5  UNL     1      16.362  -1.463  22.728  1.00  0.00    -0.254 NA
HETATM    9  C13 UNL     1      15.173  -0.997  21.981  1.00  0.00     0.220 C 
ENDROOT
BRANCH   8  10
HETATM   10  C9  UNL     1      16.087  -2.794  23.110  1.00  0.00     0.100 C 
BRANCH  10  11
HETATM   11  C10 UNL     1      17.241  -3.753  23.118  1.00  0.00     0.034 C 
BRANCH  11  12
HETATM   12  C11 UNL     1      17.407  -4.475  21.794  1.00  0.00     0.121 C 
BRANCH  12  13
HETATM   13  N6  UNL     1      16.137  -4.788  21.191  1.00  0.00    -0.386 N 
ATOM     14  H6  UNL     1      15.308  -4.799  21.785  1.00  0.00     0.160 HD
BRANCH  13  15
HETATM   15  C12 UNL     1      15.985  -5.080  19.818  1.00  0.00     0.168 C 
HETATM   16  N7  UNL     1      15.258  -4.337  19.085  1.00  0.00    -0.396 N 
ATOM     17  H72 UNL     1      14.791  -3.534  19.505  1.00  0.00     0.156 HD
ATOM     18  H71 UNL     1      15.148  -4.548  18.093  1.00  0.00     0.156 HD
ENDBRANCH  13  15
ENDBRANCH  12  13
ENDBRANCH  11  12
ENDBRANCH  10  11
ENDBRANCH   8  10
BRANCH   7  19
HETATM   19  C5  UNL     1      18.047  -0.330  24.118  1.00  0.00     0.058 C 
BRANCH  19  20
HETATM   20  C6  UNL     1      18.622   1.061  23.889  1.00  0.00     0.025 C 
BRANCH  20  21
HETATM   21  C7  UNL     1      18.876   1.622  25.272  1.00  0.00     0.122 C 
BRANCH  21  22
HETATM   22  N2  UNL     1      17.672   2.191  25.870  1.00  0.00    -0.367 N 
HETATM   23  C8  UNL     1      17.626   3.443  26.128  1.00  0.00     0.196 C 
HETATM   24  N3  UNL     1      18.730   4.266  25.841  1.00  0.00    -0.067 NA
HETATM   25  N4  UNL     1      16.465   3.994  26.708  1.00  0.00    -0.067 NA
ATOM     26  H2  UNL     1      16.872   1.593  26.081  1.00  0.00     0.161 HD
ENDBRANCH  21  22
ENDBRANCH  20  21
ENDBRANCH  19  20
ENDBRANCH   7  19
BRANCH   9  27
HETATM   27  O2  UNL     1      14.902  -1.942  20.992  1.00  0.00    -0.379 OA
ATOM     28  H2  UNL     1      15.231  -1.609  20.165  1.00  0.00     0.211 HD
ENDBRANCH   9  27
TORSDOF 10
ENDMDL
MODEL 3
REMARK VINA RESULT: -6.201338025      2.930      4.920
REMARK  10 active torsions:
REMARK  status: ('A' for Active; 'I' for Inactive)
REMARK    1  A    between atoms: C4_7  and  C5_8 
REMARK    2  A    between atoms: C5_8  and  C6_9 
REMARK    3  A    between atoms: C6_9  and  C7_10 
REMARK    4  A    between atoms: C7_10  and  N2_11 
REMARK    5  A    between atoms: N5_16  and  C9_17 
REMARK    6  A    between atoms: C9_17  and  C10_18 
REMARK    7  A    between atoms: C10_18  and  C11_19 
REMARK    8  A    between atoms: C11_19  and  N6_20 
REMARK    9  A    between atoms: N6_20  and  C12_22 
REMARK   10  A    between atoms: C13_26  and  O2_27 
ROOT
HETATM    1  C1  UNL     1      19.474  -7.105  25.637  1.00  0.00     0.036 C 
HETATM    2  C2  UNL     1      18.834  -5.778  25.257  1.00  0.00     0.124 C 
HETATM    3  N1  UNL     1      18.819  -5.668  23.825  1.00  0.00    -0.348 N 
ATOM      4  H1  UNL     1      18.459  -6.441  23.266  1.00  0.00     0.163 HD
HETATM    5  C3  UNL     1      19.300  -4.496  23.171  1.00  0.00     0.259 C 
HETATM    6  O1  UNL     1      19.030  -4.382  21.960  1.00  0.00    -0.267 OA
HETATM    7  C4  UNL     1      20.061  -3.563  24.010  1.00  0.00     0.058 C 
HETATM    8  N5  UNL     1      19.440  -3.397  25.262  1.00  0.00    -0.254 NA
HETATM    9  C13 UNL     1      19.580  -4.689  25.970  1.00  0.00     0.220 C 
ENDROOT
BRANCH   8  10
HETATM   10  C9  UNL     1      18.080  -3.037  25.371  1.00  0.00     0.100 C 
BRANCH  10  11
HETATM   11  C10 UNL     1      17.711  -1.638  24.972  1.00  0.00     0.034 C 
BRANCH  11  12
HETATM   12  C11 UNL     1      16.518  -1.594  24.036  1.00  0.00     0.121 C 
BRANCH  12  13
HETATM   13  N6  UNL     1      16.099  -2.914  23.641  1.00  0.00    -0.386 N 
ATOM     14  H6  UNL     1      16.076  -3.648  24.348  1.00  0.00     0.160 HD
BRANCH  13  15
HETATM   15  C12 UNL     1      15.716  -3.240  22.321  1.00  0.00     0.168 C 
HETATM   16  N7  UNL     1      15.825  -4.435  21.902  1.00  0.00    -0.396 N 
ATOM     17  H72 UNL     1      16.190  -5.148  22.533  1.00  0.00     0.156 HD
ATOM     18  H71 UNL     1      15.548  -4.671  20.948  1.00  0.00     0.156 HD
ENDBRANCH  13  15
ENDBRANCH  12  13
ENDBRANCH  11  12
ENDBRANCH  10  11
ENDBRANCH   8  10
BRANCH   7  19
HETATM   19  C5  UNL     1      20.623  -2.359  23.370  1.00  0.00     0.058 C 
BRANCH  19  20
HETATM   20  C6  UNL     1      21.809  -1.770  24.121  1.00  0.00     0.025 C 
BRANCH  20  21
HETATM   21  C7  UNL     1      21.551  -0.279  24.170  1.00  0.00     0.122 C 
BRANCH  21  22
HETATM   22  N2  UNL     1      22.205   0.434  23.077  1.00  0.00    -0.367 N 
HETATM   23  C8  UNL     1      21.985   1.684  22.918  1.00  0.00     0.196 C 
HETATM   24  N3  UNL     1      21.116   2.366  23.789  1.00  0.00    -0.067 NA
HETATM   25  N4  UNL     1      22.614   2.375  21.862  1.00  0.00    -0.067 NA
ATOM     26  H2  UNL     1      22.833  -0.062  22.445  1.00  0.00     0.161 HD
ENDBRANCH  21  22
ENDBRANCH  20  21
ENDBRANCH  19  20
ENDBRANCH   7  19
BRANCH   9  27
HETATM   27  O2  UNL     1      19.021  -4.535  27.238  1.00  0.00    -0.379 OA
ATOM     28  H2  UNL     1      18.259  -3.972  27.160  1.00  0.00     0.211 HD
ENDBRANCH   9  27
TORSDOF 10
ENDMDL
MODEL 4
REMARK VINA RESULT: -6.173085681      1.301      1.595
REMARK  10 active torsions:
REMARK  status: ('A' for Active; 'I' for Inactive)
REMARK    1  A    between atoms: C4_7  and  C5_8 
REMARK    2  A    between atoms: C5_8  and  C6_9 
REMARK    3  A    between atoms: C6_9  and  C7_10 
REMARK    4  A    between atoms: C7_10  and  N2_11 
REMARK    5  A    between atoms: N5_16  and  C9_17 
REMARK    6  A    between atoms: C9_17  and  C10_18 
REMARK    7  A    between atoms: C10_18  and  C11_19 
REMARK    8  A    between atoms: C11_19  and  N6_20 
REMARK    9  A    between atoms: N6_20  and  C12_22 
REMARK   10  A    between atoms: C13_26  and  O2_27 
ROOT
HETATM    1  C1  UNL     1      13.155   0.066  22.250  1.00  0.00     0.036 C 
HETATM    2  C2  UNL     1      14.075  -1.020  22.785  1.00  0.00     0.124 C 
HETATM    3  N1  UNL     1      14.302  -0.782  24.184  1.00  0.00    -0.348 N 
ATOM      4  H1  UNL     1      13.507  -0.616  24.800  1.00  0.00     0.163 HD
HETATM    5  C3  UNL     1      15.621  -0.775  24.725  1.00  0.00     0.259 C 
HETATM    6  O1  UNL     1      15.714  -0.805  25.968  1.00  0.00    -0.267 OA
HETATM    7  C4  UNL     1      16.713  -0.731  23.746  1.00  0.00     0.058 C 
HETATM    8  N5  UNL     1      16.459  -1.605  22.674  1.00  0.00    -0.254 NA
HETATM    9  C13 UNL     1      15.311  -1.034  21.935  1.00  0.00     0.220 C 
ENDROOT
BRANCH   8  10
HETATM   10  C9  UNL     1      16.148  -2.966  22.887  1.00  0.00     0.100 C 
BRANCH  10  11
HETATM   11  C10 UNL     1      17.295  -3.934  22.893  1.00  0.00     0.034 C 
BRANCH  11  12
HETATM   12  C11 UNL     1      17.366  -4.761  21.623  1.00  0.00     0.121 C 
BRANCH  12  13
HETATM   13  N6  UNL     1      16.080  -4.870  20.982  1.00  0.00    -0.386 N 
ATOM     14  H6  UNL     1      15.243  -4.800  21.560  1.00  0.00     0.160 HD
BRANCH  13  15
HETATM   15  C12 UNL     1      15.924  -5.068  19.593  1.00  0.00     0.168 C 
HETATM   16  N7  UNL     1      15.121  -4.338  18.930  1.00  0.00    -0.396 N 
ATOM     17  H72 UNL     1      14.597  -3.612  19.418  1.00  0.00     0.156 HD
ATOM     18  H71 UNL     1      15.009  -4.481  17.926  1.00  0.00     0.156 HD
ENDBRANCH  13  15
ENDBRANCH  12  13
ENDBRANCH  11  12
ENDBRANCH  10  11
ENDBRANCH   8  10
BRANCH   7  19
HETATM   19  C5  UNL     1      18.096  -0.672  24.256  1.00  0.00     0.058 C 
BRANCH  19  20
HETATM   20  C6  UNL     1      18.427   0.635  24.963  1.00  0.00     0.025 C 
BRANCH  20  21
HETATM   21  C7  UNL     1      18.801   1.603  23.861  1.00  0.00     0.122 C 
BRANCH  21  22
HETATM   22  N2  UNL     1      18.744   2.994  24.302  1.00  0.00    -0.367 N 
HETATM   23  C8  UNL     1      19.814   3.577  24.689  1.00  0.00     0.196 C 
HETATM   24  N3  UNL     1      21.038   2.882  24.694  1.00  0.00    -0.067 NA
HETATM   25  N4  UNL     1      19.762   4.920  25.117  1.00  0.00    -0.067 NA
ATOM     26  H2  UNL     1      17.857   3.496  24.301  1.00  0.00     0.161 HD
ENDBRANCH  21  22
ENDBRANCH  20  21
ENDBRANCH  19  20
ENDBRANCH   7  19
BRANCH   9  27
HETATM   27  O2  UNL     1      15.072  -1.854  20.833  1.00  0.00    -0.379 OA
ATOM     28  H2  UNL     1      14.653  -2.650  21.140  1.00  0.00     0.211 HD
ENDBRANCH   9  27
TORSDOF 10
ENDMDL
MODEL 5
REMARK VINA RESULT: -6.082845026      3.121      5.530
REMARK  10 active torsions:
REMARK  status: ('A' for Active; 'I' for Inactive)
REMARK    1  A    between atoms: C4_7  and  C5_8 
REMARK    2  A    between atoms: C5_8  and  C6_9 
REMARK    3  A    between atoms: C6_9  and  C7_10 
REMARK    4  A    between atoms: C7_10  and  N2_11 
REMARK    5  A    between atoms: N5_16  and  C9_17 
REMARK    6  A    between atoms: C9_17  and  C10_18 
REMARK    7  A    between atoms: C10_18  and  C11_19 
REMARK    8  A    between atoms: C11_19  and  N6_20 
REMARK    9  A    between atoms: N6_20  and  C12_22 
REMARK   10  A    between atoms: C13_26  and  O2_27 
ROOT
HETATM    1  C1  UNL     1      19.379  -7.044  25.661  1.00  0.00     0.036 C 
HETATM    2  C2  UNL     1      18.807  -5.687  25.281  1.00  0.00     0.124 C 
HETATM    3  N1  UNL     1      18.833  -5.562  23.849  1.00  0.00    -0.348 N 
ATOM      4  H1  UNL     1      18.454  -6.313  23.273  1.00  0.00     0.163 HD
HETATM    5  C3  UNL     1      19.380  -4.406  23.221  1.00  0.00     0.259 C 
HETATM    6  O1  UNL     1      19.146  -4.268  22.005  1.00  0.00    -0.267 OA
HETATM    7  C4  UNL     1      20.158  -3.514  24.089  1.00  0.00     0.058 C 
HETATM    8  N5  UNL     1      19.514  -3.335  25.327  1.00  0.00    -0.254 NA
HETATM    9  C13 UNL     1      19.580  -4.639  26.024  1.00  0.00     0.220 C 
ENDROOT
BRANCH   8  10
HETATM   10  C9  UNL     1      18.168  -2.918  25.406  1.00  0.00     0.100 C 
BRANCH  10  11
HETATM   11  C10 UNL     1      17.918  -1.446  25.571  1.00  0.00     0.034 C 
BRANCH  11  12
HETATM   12  C11 UNL     1      16.738  -0.960  24.751  1.00  0.00     0.121 C 
BRANCH  12  13
HETATM   13  N6  UNL     1      17.119   0.074  23.825  1.00  0.00    -0.386 N 
ATOM     14  H6  UNL     1      16.469   0.319  23.077  1.00  0.00     0.160 HD
BRANCH  13  15
HETATM   15  C12 UNL     1      18.348   0.766  23.901  1.00  0.00     0.168 C 
HETATM   16  N7  UNL     1      18.486   1.887  23.319  1.00  0.00    -0.396 N 
ATOM     17  H72 UNL     1      17.699   2.275  22.800  1.00  0.00     0.156 HD
ATOM     18  H71 UNL     1      19.374   2.387  23.375  1.00  0.00     0.156 HD
ENDBRANCH  13  15
ENDBRANCH  12  13
ENDBRANCH  11  12
ENDBRANCH  10  11
ENDBRANCH   8  10
BRANCH   7  19
HETATM   19  C5  UNL     1      20.788  -2.329  23.477  1.00  0.00     0.058 C 
BRANCH  19  20
HETATM   20  C6  UNL     1      21.995  -1.816  24.249  1.00  0.00     0.025 C 
BRANCH  20  21
HETATM   21  C7  UNL     1      21.794  -0.320  24.359  1.00  0.00     0.122 C 
BRANCH  21  22
HETATM   22  N2  UNL     1      22.173   0.383  23.137  1.00  0.00    -0.367 N 
HETATM   23  C8  UNL     1      22.085   1.658  23.089  1.00  0.00     0.196 C 
HETATM   24  N3  UNL     1      21.622   2.378  24.205  1.00  0.00    -0.067 NA
HETATM   25  N4  UNL     1      22.449   2.339  21.910  1.00  0.00    -0.067 NA
ATOM     26  H2  UNL     1      22.506  -0.140  22.327  1.00  0.00     0.161 HD
ENDBRANCH  21  22
ENDBRANCH  20  21
ENDBRANCH  19  20
ENDBRANCH   7  19
BRANCH   9  27
HETATM   27  O2  UNL     1      18.995  -4.474  27.279  1.00  0.00    -0.379 OA
ATOM     28  H2  UNL     1      19.636  -4.071  27.854  1.00  0.00     0.211 HD
ENDBRANCH   9  27
TORSDOF 10
ENDMDL
