MODEL 1
REMARK VINA RESULT: -6.305229267      0.000      0.000
REMARK  12 active torsions:
REMARK  status: ('A' for Active; 'I' for Inactive)
REMARK    1  A    between atoms: N1_2  and  C3_4 
REMARK    2  A    between atoms: N1_2  and  C8_14 
REMARK    3  A    between atoms: C3_4  and  C4_5 
REMARK    4  A    between atoms: C4_5  and  C5_6 
REMARK    5  A    between atoms: C8_14  and  C9_15 
REMARK    6  A    between atoms: C9_15  and  N5_19 
REMARK    7  A    between atoms: N5_19  and  O2_21 
REMARK    8  A    between atoms: O2_21  and  C10_22 
REMARK    9  A    between atoms: C10_22  and  C11_23 
REMARK   10  A    between atoms: C11_23  and  N6_24 
REMARK   11  A    between atoms: C11_23  and  C12_28 
REMARK   12  A    between atoms: C12_28  and  N7_29 
ROOT
HETATM    1  C9  UNL     1      17.034  -8.149  21.007  1.00  0.00     0.121 C 
HETATM    2  N4  UNL     1      15.740  -8.065  21.023  1.00  0.00    -0.386 N 
ATOM      3  H41 UNL     1      15.272  -7.199  21.290  1.00  0.00     0.157 HD
ATOM      4  H42 UNL     1      15.213  -8.894  20.749  1.00  0.00     0.157 HD
ENDROOT
BRANCH   1   5
HETATM    5  C8  UNL     1      17.704  -9.390  20.624  1.00  0.00     0.313 C 
BRANCH   5   6
HETATM    6  N1  UNL     1      17.832  -9.637  19.198  1.00  0.00    -0.068 N 
HETATM    7  C1  UNL     1      19.031 -10.453  19.025  1.00  0.00     0.272 C 
HETATM    8  C2  UNL     1      16.734 -10.430  18.749  1.00  0.00     0.272 C 
BRANCH   6   9
HETATM    9  C3  UNL     1      17.982  -8.373  18.562  1.00  0.00     0.243 C 
BRANCH   9  10
HETATM   10  C4  UNL     1      17.036  -7.959  17.518  1.00  0.00     0.086 C 
BRANCH  10  11
HETATM   11  C5  UNL     1      16.039  -6.941  17.841  1.00  0.00     0.030 A 
HETATM   12  C6  UNL     1      14.666  -7.030  17.791  1.00  0.00     0.118 A 
HETATM   13  N2  UNL     1      14.140  -5.845  18.179  1.00  0.00    -0.317 N 
HETATM   14  C7  UNL     1      15.151  -5.009  18.473  1.00  0.00     0.324 A 
ATOM     15  H2  UNL     1      13.146  -5.625  18.238  1.00  0.00     0.170 HD
HETATM   16  O1  UNL     1      14.985  -3.810  18.870  1.00  0.00    -0.247 OA
HETATM   17  N3  UNL     1      16.287  -5.671  18.269  1.00  0.00    -0.311 N 
ATOM     18  H3  UNL     1      17.218  -5.280  18.414  1.00  0.00     0.170 HD
ENDBRANCH  10  11
ENDBRANCH   9  10
ENDBRANCH   6   9
ENDBRANCH   5   6
ENDBRANCH   1   5
BRANCH   1  19
HETATM   19  N5  UNL     1      17.766  -6.997  21.387  1.00  0.00    -0.253 N 
ATOM     20  H5  UNL     1      18.475  -7.095  22.113  1.00  0.00     0.195 HD
BRANCH  19  21
HETATM   21  O2  UNL     1      17.576  -5.764  20.837  1.00  0.00    -0.277 OA
BRANCH  21  22
HETATM   22  C10 UNL     1      17.856  -4.815  21.826  1.00  0.00     0.235 C 
BRANCH  22  23
HETATM   23  C11 UNL     1      16.750  -3.801  21.964  1.00  0.00     0.234 C 
BRANCH  23  24
HETATM   24  N6  UNL     1      15.472  -4.482  21.891  1.00  0.00    -0.071 N 
ATOM     25  H63 UNL     1      15.377  -5.038  21.041  1.00  0.00     0.274 HD
ATOM     26  H62 UNL     1      15.398  -5.241  22.569  1.00  0.00     0.274 HD
ATOM     27  H61 UNL     1      14.723  -3.797  21.992  1.00  0.00     0.274 HD
ENDBRANCH  23  24
BRANCH  23  28
HETATM   28  C12 UNL     1      16.909  -3.094  23.296  1.00  0.00     0.264 C 
BRANCH  28  29
HETATM   29  N7  UNL     1      17.313  -4.037  24.308  1.00  0.00    -0.077 N 
ATOM     30  H73 UNL     1      16.997  -4.984  24.097  1.00  0.00     0.274 HD
ATOM     31  H72 UNL     1      18.318  -4.208  24.292  1.00  0.00     0.274 HD
ATOM     32  H71 UNL     1      16.993  -3.722  25.224  1.00  0.00     0.274 HD
ENDBRANCH  28  29
ENDBRANCH  23  28
ENDBRANCH  22  23
ENDBRANCH  21  22
ENDBRANCH  19  21
ENDBRANCH   1  19
TORSDOF 12
ENDMDL
MODEL 2
REMARK VINA RESULT: -6.209731242      1.739      2.330
REMARK  12 active torsions:
REMARK  status: ('A' for Active; 'I' for Inactive)
REMARK    1  A    between atoms: N1_2  and  C3_4 
REMARK    2  A    between atoms: N1_2  and  C8_14 
REMARK    3  A    between atoms: C3_4  and  C4_5 
REMARK    4  A    between atoms: C4_5  and  C5_6 
REMARK    5  A    between atoms: C8_14  and  C9_15 
REMARK    6  A    between atoms: C9_15  and  N5_19 
REMARK    7  A    between atoms: N5_19  and  O2_21 
REMARK    8  A    between atoms: O2_21  and  C10_22 
REMARK    9  A    between atoms: C10_22  and  C11_23 
REMARK   10  A    between atoms: C11_23  and  N6_24 
REMARK   11  A    between atoms: C11_23  and  C12_28 
REMARK   12  A    between atoms: C12_28  and  N7_29 
ROOT
HETATM    1  C9  UNL     1      16.708  -6.812  20.439  1.00  0.00     0.121 C 
HETATM    2  N4  UNL     1      15.447  -6.905  20.729  1.00  0.00    -0.386 N 
ATOM      3  H41 UNL     1      15.049  -6.394  21.517  1.00  0.00     0.157 HD
ATOM      4  H42 UNL     1      14.872  -7.501  20.135  1.00  0.00     0.157 HD
ENDROOT
BRANCH   1   5
HETATM    5  C8  UNL     1      17.277  -7.544  19.310  1.00  0.00     0.313 C 
BRANCH   5   6
HETATM    6  N1  UNL     1      17.260  -8.994  19.410  1.00  0.00    -0.068 N 
HETATM    7  C1  UNL     1      18.347  -9.480  18.564  1.00  0.00     0.272 C 
HETATM    8  C2  UNL     1      17.580  -9.385  20.745  1.00  0.00     0.272 C 
BRANCH   6   9
HETATM    9  C3  UNL     1      16.000  -9.437  18.921  1.00  0.00     0.243 C 
BRANCH   9  10
HETATM   10  C4  UNL     1      15.542  -9.022  17.589  1.00  0.00     0.086 C 
BRANCH  10  11
HETATM   11  C5  UNL     1      14.285  -8.285  17.479  1.00  0.00     0.030 A 
HETATM   12  C6  UNL     1      13.020  -8.767  17.229  1.00  0.00     0.118 A 
HETATM   13  N2  UNL     1      12.154  -7.728  17.216  1.00  0.00    -0.317 N 
HETATM   14  C7  UNL     1      12.845  -6.598  17.452  1.00  0.00     0.324 A 
ATOM     15  H2  UNL     1      11.149  -7.790  17.055  1.00  0.00     0.170 HD
HETATM   16  O1  UNL     1      12.315  -5.441  17.503  1.00  0.00    -0.247 OA
HETATM   17  N3  UNL     1      14.122  -6.938  17.609  1.00  0.00    -0.311 N 
ATOM     18  H3  UNL     1      14.877  -6.279  17.801  1.00  0.00     0.170 HD
ENDBRANCH  10  11
ENDBRANCH   9  10
ENDBRANCH   6   9
ENDBRANCH   5   6
ENDBRANCH   1   5
BRANCH   1  19
HETATM   19  N5  UNL     1      17.506  -5.983  21.265  1.00  0.00    -0.253 N 
ATOM     20  H5  UNL     1      18.042  -6.422  22.013  1.00  0.00     0.195 HD
BRANCH  19  21
HETATM   21  O2  UNL     1      17.600  -4.632  21.117  1.00  0.00    -0.277 OA
BRANCH  21  22
HETATM   22  C10 UNL     1      17.172  -4.047  22.315  1.00  0.00     0.235 C 
BRANCH  22  23
HETATM   23  C11 UNL     1      15.735  -3.602  22.242  1.00  0.00     0.234 C 
BRANCH  23  24
HETATM   24  N6  UNL     1      15.388  -2.918  23.473  1.00  0.00    -0.071 N 
ATOM     25  H63 UNL     1      15.596  -3.478  24.299  1.00  0.00     0.274 HD
ATOM     26  H62 UNL     1      16.010  -2.134  23.669  1.00  0.00     0.274 HD
ATOM     27  H61 UNL     1      14.409  -2.636  23.432  1.00  0.00     0.274 HD
ENDBRANCH  23  24
BRANCH  23  28
HETATM   28  C12 UNL     1      15.578  -2.679  21.049  1.00  0.00     0.264 C 
BRANCH  28  29
HETATM   29  N7  UNL     1      15.107  -3.423  19.909  1.00  0.00    -0.077 N 
ATOM     30  H73 UNL     1      15.253  -2.917  19.036  1.00  0.00     0.274 HD
ATOM     31  H72 UNL     1      15.695  -4.233  19.712  1.00  0.00     0.274 HD
ATOM     32  H71 UNL     1      14.130  -3.684  20.043  1.00  0.00     0.274 HD
ENDBRANCH  28  29
ENDBRANCH  23  28
ENDBRANCH  22  23
ENDBRANCH  21  22
ENDBRANCH  19  21
ENDBRANCH   1  19
TORSDOF 12
ENDMDL
MODEL 3
REMARK VINA RESULT: -6.067099977      3.209      4.597
REMARK  12 active torsions:
REMARK  status: ('A' for Active; 'I' for Inactive)
REMARK    1  A    between atoms: N1_2  and  C3_4 
REMARK    2  A    between atoms: N1_2  and  C8_14 
REMARK    3  A    between atoms: C3_4  and  C4_5 
REMARK    4  A    between atoms: C4_5  and  C5_6 
REMARK    5  A    between atoms: C8_14  and  C9_15 
REMARK    6  A    between atoms: C9_15  and  N5_19 
REMARK    7  A    between atoms: N5_19  and  O2_21 
REMARK    8  A    between atoms: O2_21  and  C10_22 
REMARK    9  A    between atoms: C10_22  and  C11_23 
REMARK   10  A    between atoms: C11_23  and  N6_24 
REMARK   11  A    between atoms: C11_23  and  C12_28 
REMARK   12  A    between atoms: C12_28  and  N7_29 
ROOT
HETATM    1  C9  UNL     1      15.955  -4.219  21.157  1.00  0.00     0.121 C 
HETATM    2  N4  UNL     1      15.369  -4.380  22.303  1.00  0.00    -0.386 N 
ATOM      3  H41 UNL     1      14.691  -3.700  22.648  1.00  0.00     0.157 HD
ATOM      4  H42 UNL     1      15.608  -5.214  22.838  1.00  0.00     0.157 HD
ENDROOT
BRANCH   1   5
HETATM    5  C8  UNL     1      16.926  -5.194  20.663  1.00  0.00     0.313 C 
BRANCH   5   6
HETATM    6  N1  UNL     1      16.419  -6.194  19.738  1.00  0.00    -0.068 N 
HETATM    7  C1  UNL     1      15.350  -6.901  20.440  1.00  0.00     0.272 C 
HETATM    8  C2  UNL     1      15.812  -5.548  18.621  1.00  0.00     0.272 C 
BRANCH   6   9
HETATM    9  C3  UNL     1      17.495  -7.073  19.435  1.00  0.00     0.243 C 
BRANCH   9  10
HETATM   10  C4  UNL     1      17.642  -7.614  18.078  1.00  0.00     0.086 C 
BRANCH  10  11
HETATM   11  C5  UNL     1      16.880  -8.806  17.713  1.00  0.00     0.030 A 
HETATM   12  C6  UNL     1      16.566  -9.902  18.485  1.00  0.00     0.118 A 
HETATM   13  N2  UNL     1      15.842 -10.766  17.737  1.00  0.00    -0.317 N 
HETATM   14  C7  UNL     1      15.691 -10.241  16.509  1.00  0.00     0.324 A 
ATOM     15  H2  UNL     1      15.474 -11.663  18.052  1.00  0.00     0.170 HD
HETATM   16  O1  UNL     1      15.055 -10.814  15.567  1.00  0.00    -0.247 OA
HETATM   17  N3  UNL     1      16.315  -9.065  16.499  1.00  0.00    -0.311 N 
ATOM     18  H3  UNL     1      16.364  -8.442  15.693  1.00  0.00     0.170 HD
ENDBRANCH  10  11
ENDBRANCH   9  10
ENDBRANCH   6   9
ENDBRANCH   5   6
ENDBRANCH   1   5
BRANCH   1  19
HETATM   19  N5  UNL     1      15.623  -3.060  20.413  1.00  0.00    -0.253 N 
ATOM     20  H5  UNL     1      16.174  -2.847  19.583  1.00  0.00     0.195 HD
BRANCH  19  21
HETATM   21  O2  UNL     1      14.608  -2.213  20.744  1.00  0.00    -0.277 OA
BRANCH  21  22
HETATM   22  C10 UNL     1      15.140  -1.225  21.579  1.00  0.00     0.235 C 
BRANCH  22  23
HETATM   23  C11 UNL     1      14.199  -0.867  22.700  1.00  0.00     0.234 C 
BRANCH  23  24
HETATM   24  N6  UNL     1      14.955  -0.258  23.777  1.00  0.00    -0.071 N 
ATOM     25  H63 UNL     1      15.564  -0.926  24.248  1.00  0.00     0.274 HD
ATOM     26  H62 UNL     1      15.676   0.377  23.434  1.00  0.00     0.274 HD
ATOM     27  H61 UNL     1      14.309   0.199  24.420  1.00  0.00     0.274 HD
ENDBRANCH  23  24
BRANCH  23  28
HETATM   28  C12 UNL     1      13.156   0.094  22.162  1.00  0.00     0.264 C 
BRANCH  28  29
HETATM   29  N7  UNL     1      12.565   0.835  23.247  1.00  0.00    -0.077 N 
ATOM     30  H73 UNL     1      11.548   0.753  23.256  1.00  0.00     0.274 HD
ATOM     31  H72 UNL     1      12.757   0.407  24.153  1.00  0.00     0.274 HD
ATOM     32  H71 UNL     1      12.869   1.808  23.211  1.00  0.00     0.274 HD
ENDBRANCH  28  29
ENDBRANCH  23  28
ENDBRANCH  22  23
ENDBRANCH  21  22
ENDBRANCH  19  21
ENDBRANCH   1  19
TORSDOF 12
ENDMDL
MODEL 4
REMARK VINA RESULT: -6.011777471      1.821      2.300
REMARK  12 active torsions:
REMARK  status: ('A' for Active; 'I' for Inactive)
REMARK    1  A    between atoms: N1_2  and  C3_4 
REMARK    2  A    between atoms: N1_2  and  C8_14 
REMARK    3  A    between atoms: C3_4  and  C4_5 
REMARK    4  A    between atoms: C4_5  and  C5_6 
REMARK    5  A    between atoms: C8_14  and  C9_15 
REMARK    6  A    between atoms: C9_15  and  N5_19 
REMARK    7  A    between atoms: N5_19  and  O2_21 
REMARK    8  A    between atoms: O2_21  and  C10_22 
REMARK    9  A    between atoms: C10_22  and  C11_23 
REMARK   10  A    between atoms: C11_23  and  N6_24 
REMARK   11  A    between atoms: C11_23  and  C12_28 
REMARK   12  A    between atoms: C12_28  and  N7_29 
ROOT
HETATM    1  C9  UNL     1      16.863  -8.235  20.305  1.00  0.00     0.121 C 
HETATM    2  N4  UNL     1      17.309  -8.932  21.304  1.00  0.00    -0.386 N 
ATOM      3  H41 UNL     1      16.938  -8.800  22.245  1.00  0.00     0.157 HD
ATOM      4  H42 UNL     1      18.036  -9.619  21.109  1.00  0.00     0.157 HD
ENDROOT
BRANCH   1   5
HETATM    5  C8  UNL     1      17.394  -8.425  18.957  1.00  0.00     0.313 C 
BRANCH   5   6
HETATM    6  N1  UNL     1      16.828  -9.524  18.193  1.00  0.00    -0.068 N 
HETATM    7  C1  UNL     1      16.933  -9.145  16.785  1.00  0.00     0.272 C 
HETATM    8  C2  UNL     1      17.635 -10.689  18.360  1.00  0.00     0.272 C 
BRANCH   6   9
HETATM    9  C3  UNL     1      15.467  -9.653  18.583  1.00  0.00     0.243 C 
BRANCH   9  10
HETATM   10  C4  UNL     1      14.405  -9.614  17.570  1.00  0.00     0.086 C 
BRANCH  10  11
HETATM   11  C5  UNL     1      13.567  -8.420  17.480  1.00  0.00     0.030 A 
HETATM   12  C6  UNL     1      12.249  -8.316  17.098  1.00  0.00     0.118 A 
HETATM   13  N2  UNL     1      11.879  -7.016  17.165  1.00  0.00    -0.317 N 
HETATM   14  C7  UNL     1      12.935  -6.296  17.582  1.00  0.00     0.324 A 
ATOM     15  H2  UNL     1      10.956  -6.646  16.938  1.00  0.00     0.170 HD
HETATM   16  O1  UNL     1      12.910  -5.034  17.748  1.00  0.00    -0.247 OA
HETATM   17  N3  UNL     1      13.945  -7.142  17.770  1.00  0.00    -0.311 N 
ATOM     18  H3  UNL     1      14.875  -6.872  18.088  1.00  0.00     0.170 HD
ENDBRANCH  10  11
ENDBRANCH   9  10
ENDBRANCH   6   9
ENDBRANCH   5   6
ENDBRANCH   1   5
BRANCH   1  19
HETATM   19  N5  UNL     1      15.853  -7.280  20.577  1.00  0.00    -0.253 N 
ATOM     20  H5  UNL     1      15.120  -7.530  21.240  1.00  0.00     0.195 HD
BRANCH  19  21
HETATM   21  O2  UNL     1      15.804  -6.045  20.002  1.00  0.00    -0.277 OA
BRANCH  21  22
HETATM   22  C10 UNL     1      16.542  -5.175  20.813  1.00  0.00     0.235 C 
BRANCH  22  23
HETATM   23  C11 UNL     1      16.076  -3.748  20.676  1.00  0.00     0.234 C 
BRANCH  23  24
HETATM   24  N6  UNL     1      15.077  -3.674  19.629  1.00  0.00    -0.071 N 
ATOM     25  H63 UNL     1      15.124  -4.469  18.992  1.00  0.00     0.274 HD
ATOM     26  H62 UNL     1      14.132  -3.829  19.983  1.00  0.00     0.274 HD
ATOM     27  H61 UNL     1      15.168  -2.782  19.144  1.00  0.00     0.274 HD
ENDBRANCH  23  24
BRANCH  23  28
HETATM   28  C12 UNL     1      15.498  -3.303  22.006  1.00  0.00     0.264 C 
BRANCH  28  29
HETATM   29  N7  UNL     1      16.383  -3.680  23.078  1.00  0.00    -0.077 N 
ATOM     30  H73 UNL     1      16.391  -4.689  23.230  1.00  0.00     0.274 HD
ATOM     31  H72 UNL     1      17.364  -3.560  22.826  1.00  0.00     0.274 HD
ATOM     32  H71 UNL     1      16.141  -3.168  23.927  1.00  0.00     0.274 HD
ENDBRANCH  28  29
ENDBRANCH  23  28
ENDBRANCH  22  23
ENDBRANCH  21  22
ENDBRANCH  19  21
ENDBRANCH   1  19
TORSDOF 12
ENDMDL
MODEL 5
REMARK VINA RESULT: -5.975391857      1.367      1.767
REMARK  12 active torsions:
REMARK  status: ('A' for Active; 'I' for Inactive)
REMARK    1  A    between atoms: N1_2  and  C3_4 
REMARK    2  A    between atoms: N1_2  and  C8_14 
REMARK    3  A    between atoms: C3_4  and  C4_5 
REMARK    4  A    between atoms: C4_5  and  C5_6 
REMARK    5  A    between atoms: C8_14  and  C9_15 
REMARK    6  A    between atoms: C9_15  and  N5_19 
REMARK    7  A    between atoms: N5_19  and  O2_21 
REMARK    8  A    between atoms: O2_21  and  C10_22 
REMARK    9  A    between atoms: C10_22  and  C11_23 
REMARK   10  A    between atoms: C11_23  and  N6_24 
REMARK   11  A    between atoms: C11_23  and  C12_28 
REMARK   12  A    between atoms: C12_28  and  N7_29 
ROOT
HETATM    1  C9  UNL     1      16.861  -8.127  20.840  1.00  0.00     0.121 C 
HETATM    2  N4  UNL     1      15.594  -7.949  21.054  1.00  0.00    -0.386 N 
ATOM      3  H41 UNL     1      15.237  -7.052  21.382  1.00  0.00     0.157 HD
ATOM      4  H42 UNL     1      14.974  -8.737  20.872  1.00  0.00     0.157 HD
ENDROOT
BRANCH   1   5
HETATM    5  C8  UNL     1      17.373  -9.413  20.369  1.00  0.00     0.313 C 
BRANCH   5   6
HETATM    6  N1  UNL     1      17.430  -9.592  18.928  1.00  0.00    -0.068 N 
HETATM    7  C1  UNL     1      18.138  -8.431  18.395  1.00  0.00     0.272 C 
HETATM    8  C2  UNL     1      18.231 -10.732  18.620  1.00  0.00     0.272 C 
BRANCH   6   9
HETATM    9  C3  UNL     1      16.090  -9.632  18.454  1.00  0.00     0.243 C 
BRANCH   9  10
HETATM   10  C4  UNL     1      15.694  -8.812  17.302  1.00  0.00     0.086 C 
BRANCH  10  11
HETATM   11  C5  UNL     1      14.738  -7.727  17.510  1.00  0.00     0.030 A 
HETATM   12  C6  UNL     1      14.943  -6.493  18.084  1.00  0.00     0.118 A 
HETATM   13  N2  UNL     1      13.777  -5.807  18.066  1.00  0.00    -0.317 N 
HETATM   14  C7  UNL     1      12.839  -6.581  17.493  1.00  0.00     0.324 A 
ATOM     15  H2  UNL     1      13.635  -4.863  18.425  1.00  0.00     0.170 HD
HETATM   16  O1  UNL     1      11.628  -6.221  17.328  1.00  0.00    -0.247 OA
HETATM   17  N3  UNL     1      13.420  -7.731  17.162  1.00  0.00    -0.311 N 
ATOM     18  H3  UNL     1      12.943  -8.511  16.708  1.00  0.00     0.170 HD
ENDBRANCH  10  11
ENDBRANCH   9  10
ENDBRANCH   6   9
ENDBRANCH   5   6
ENDBRANCH   1   5
BRANCH   1  19
HETATM   19  N5  UNL     1      17.724  -7.032  21.092  1.00  0.00    -0.253 N 
ATOM     20  H5  UNL     1      18.581  -7.205  21.617  1.00  0.00     0.195 HD
BRANCH  19  21
HETATM   21  O2  UNL     1      17.474  -5.759  20.673  1.00  0.00    -0.277 OA
BRANCH  21  22
HETATM   22  C10 UNL     1      17.839  -4.895  21.711  1.00  0.00     0.235 C 
BRANCH  22  23
HETATM   23  C11 UNL     1      16.770  -3.871  21.993  1.00  0.00     0.234 C 
BRANCH  23  24
HETATM   24  N6  UNL     1      15.468  -4.481  21.809  1.00  0.00    -0.071 N 
ATOM     25  H63 UNL     1      15.528  -5.394  21.357  1.00  0.00     0.274 HD
ATOM     26  H62 UNL     1      15.054  -4.784  22.690  1.00  0.00     0.274 HD
ATOM     27  H61 UNL     1      14.867  -3.835  21.298  1.00  0.00     0.274 HD
ENDBRANCH  23  24
BRANCH  23  28
HETATM   28  C12 UNL     1      16.939  -3.381  23.418  1.00  0.00     0.264 C 
BRANCH  28  29
HETATM   29  N7  UNL     1      15.743  -2.704  23.851  1.00  0.00    -0.077 N 
ATOM     30  H73 UNL     1      15.753  -2.515  24.854  1.00  0.00     0.274 HD
ATOM     31  H72 UNL     1      15.706  -1.741  23.518  1.00  0.00     0.274 HD
ATOM     32  H71 UNL     1      14.920  -3.238  23.570  1.00  0.00     0.274 HD
ENDBRANCH  28  29
ENDBRANCH  23  28
ENDBRANCH  22  23
ENDBRANCH  21  22
ENDBRANCH  19  21
ENDBRANCH   1  19
TORSDOF 12
ENDMDL
