MODEL 1
REMARK VINA RESULT: -7.306972405      0.000      0.000
REMARK  10 active torsions:
REMARK  status: ('A' for Active; 'I' for Inactive)
REMARK    1  A    between atoms: N1_1  and  C1_5 
REMARK    2  A    between atoms: C1_5  and  C2_6 
REMARK    3  A    between atoms: N2_7  and  N3_9 
REMARK       I    between atoms: N3_9  and  C3_11 
REMARK    4  A    between atoms: N5_13  and  C4_15 
REMARK    5  A    between atoms: C4_15  and  C5_16 
REMARK    6  A    between atoms: C5_16  and  C6_17 
REMARK    7  A    between atoms: C6_17  and  C7_18 
REMARK    8  A    between atoms: C7_18  and  N6_19 
REMARK    9  A    between atoms: C10_22  and  C11_23 
REMARK   10  A    between atoms: N8_25  and  N9_27 
ROOT
HETATM    1  C5  UNL     1      18.292  -4.412  22.730  1.00  0.00     0.021 C 
ENDROOT
BRANCH   1   2
HETATM    2  C4  UNL     1      17.606  -3.644  23.810  1.00  0.00     0.122 C 
BRANCH   2   3
HETATM    3  N5  UNL     1      16.881  -2.537  23.187  1.00  0.00    -0.363 N 
HETATM    4  C3  UNL     1      16.325  -1.676  23.959  1.00  0.00     0.203 C 
HETATM    5  N3  UNL     1      15.605  -0.577  23.423  1.00  0.00    -0.274 N 
HETATM    6  N4  UNL     1      16.398  -1.772  25.382  1.00  0.00    -0.062 NA
ATOM      7  H3  UNL     1      15.594   0.321  23.908  1.00  0.00     0.189 HD
ATOM      8  H5  UNL     1      16.819  -2.453  22.172  1.00  0.00     0.162 HD
BRANCH   5   9
HETATM    9  N2  UNL     1      14.914  -0.742  22.229  1.00  0.00    -0.312 N 
HETATM   10  C2  UNL     1      13.621  -0.569  22.239  1.00  0.00     0.107 C 
ATOM     11  H2  UNL     1      15.403  -0.990  21.370  1.00  0.00     0.185 HD
BRANCH  10  12
HETATM   12  C1  UNL     1      12.888  -0.210  23.466  1.00  0.00     0.275 C 
BRANCH  12  13
HETATM   13  N1  UNL     1      12.027   0.935  23.163  1.00  0.00    -0.075 N 
ATOM     14  H13 UNL     1      12.543   1.814  23.119  1.00  0.00     0.274 HD
ATOM     15  H12 UNL     1      11.684   0.928  22.203  1.00  0.00     0.274 HD
ATOM     16  H11 UNL     1      11.273   0.955  23.850  1.00  0.00     0.274 HD
ENDBRANCH  12  13
ENDBRANCH  10  12
ENDBRANCH   5   9
ENDBRANCH   2   3
ENDBRANCH   1   2
BRANCH   1  17
HETATM   17  C6  UNL     1      17.336  -4.719  21.614  1.00  0.00     0.022 C 
BRANCH  17  18
HETATM   18  C7  UNL     1      17.700  -5.995  20.882  1.00  0.00     0.128 C 
BRANCH  18  19
HETATM   19  N6  UNL     1      16.597  -6.411  20.037  1.00  0.00    -0.366 N 
HETATM   20  C8  UNL     1      16.029  -7.623  20.193  1.00  0.00     0.091 A 
HETATM   21  C9  UNL     1      14.979  -7.958  19.353  1.00  0.00     0.032 A 
HETATM   22  C10 UNL     1      14.498  -7.127  18.384  1.00  0.00     0.009 A 
HETATM   23  C12 UNL     1      15.095  -5.890  18.242  1.00  0.00     0.032 A 
HETATM   24  C13 UNL     1      16.134  -5.561  19.075  1.00  0.00     0.091 A 
BRANCH  22  25
HETATM   25  C11 UNL     1      13.378  -7.512  17.504  1.00  0.00     0.140 C 
HETATM   26  N7  UNL     1      13.443  -8.709  16.765  1.00  0.00    -0.080 NA
HETATM   27  N8  UNL     1      12.335  -6.763  17.402  1.00  0.00    -0.294 N 
ATOM     28  H8  UNL     1      12.284  -5.895  17.936  1.00  0.00     0.187 HD
BRANCH  27  29
HETATM   29  N9  UNL     1      11.278  -7.123  16.572  1.00  0.00    -0.344 N 
ATOM     30  H92 UNL     1      11.478  -7.360  15.601  1.00  0.00     0.176 HD
ATOM     31  H91 UNL     1      10.321  -7.150  16.926  1.00  0.00     0.176 HD
ENDBRANCH  27  29
ENDBRANCH  22  25
ENDBRANCH  18  19
ENDBRANCH  17  18
ENDBRANCH   1  17
TORSDOF 10
ENDMDL
MODEL 2
REMARK VINA RESULT: -6.894202273      4.475      9.507
REMARK  10 active torsions:
REMARK  status: ('A' for Active; 'I' for Inactive)
REMARK    1  A    between atoms: N1_1  and  C1_5 
REMARK    2  A    between atoms: C1_5  and  C2_6 
REMARK    3  A    between atoms: N2_7  and  N3_9 
REMARK       I    between atoms: N3_9  and  C3_11 
REMARK    4  A    between atoms: N5_13  and  C4_15 
REMARK    5  A    between atoms: C4_15  and  C5_16 
REMARK    6  A    between atoms: C5_16  and  C6_17 
REMARK    7  A    between atoms: C6_17  and  C7_18 
REMARK    8  A    between atoms: C7_18  and  N6_19 
REMARK    9  A    between atoms: C10_22  and  C11_23 
REMARK   10  A    between atoms: N8_25  and  N9_27 
ROOT
HETATM    1  C5  UNL     1      17.666  -2.644  23.972  1.00  0.00     0.021 C 
ENDROOT
BRANCH   1   2
HETATM    2  C4  UNL     1      16.283  -2.891  23.470  1.00  0.00     0.122 C 
BRANCH   2   3
HETATM    3  N5  UNL     1      16.331  -4.031  22.556  1.00  0.00    -0.363 N 
HETATM    4  C3  UNL     1      16.032  -3.826  21.326  1.00  0.00     0.203 C 
HETATM    5  N3  UNL     1      16.057  -4.886  20.383  1.00  0.00    -0.274 N 
HETATM    6  N4  UNL     1      15.660  -2.535  20.840  1.00  0.00    -0.062 NA
ATOM      7  H3  UNL     1      16.317  -4.710  19.413  1.00  0.00     0.189 HD
ATOM      8  H5  UNL     1      16.594  -4.960  22.887  1.00  0.00     0.162 HD
BRANCH   5   9
HETATM    9  N2  UNL     1      15.723  -6.168  20.802  1.00  0.00    -0.312 N 
HETATM   10  C2  UNL     1      15.307  -7.018  19.905  1.00  0.00     0.107 C 
ATOM     11  H2  UNL     1      15.800  -6.436  21.783  1.00  0.00     0.185 HD
BRANCH  10  12
HETATM   12  C1  UNL     1      15.185  -6.658  18.481  1.00  0.00     0.275 C 
BRANCH  12  13
HETATM   13  N1  UNL     1      13.784  -6.330  18.212  1.00  0.00    -0.075 N 
ATOM     14  H13 UNL     1      13.206  -6.356  19.051  1.00  0.00     0.274 HD
ATOM     15  H12 UNL     1      13.647  -5.346  17.981  1.00  0.00     0.274 HD
ATOM     16  H11 UNL     1      13.447  -6.956  17.480  1.00  0.00     0.274 HD
ENDBRANCH  12  13
ENDBRANCH  10  12
ENDBRANCH   5   9
ENDBRANCH   2   3
ENDBRANCH   1   2
BRANCH   1  17
HETATM   17  C6  UNL     1      18.438  -3.929  24.045  1.00  0.00     0.022 C 
BRANCH  17  18
HETATM   18  C7  UNL     1      19.704  -3.886  23.213  1.00  0.00     0.128 C 
BRANCH  18  19
HETATM   19  N6  UNL     1      20.798  -3.361  24.007  1.00  0.00    -0.366 N 
HETATM   20  C8  UNL     1      21.390  -4.119  24.950  1.00  0.00     0.091 A 
HETATM   21  C9  UNL     1      22.430  -3.557  25.674  1.00  0.00     0.032 A 
HETATM   22  C10 UNL     1      22.878  -2.283  25.477  1.00  0.00     0.009 A 
HETATM   23  C12 UNL     1      22.257  -1.525  24.506  1.00  0.00     0.032 A 
HETATM   24  C13 UNL     1      21.228  -2.084  23.792  1.00  0.00     0.091 A 
BRANCH  22  25
HETATM   25  C11 UNL     1      23.988  -1.711  26.264  1.00  0.00     0.140 C 
HETATM   26  N7  UNL     1      24.090  -0.316  26.425  1.00  0.00    -0.080 NA
HETATM   27  N8  UNL     1      24.870  -2.476  26.808  1.00  0.00    -0.294 N 
ATOM     28  H8  UNL     1      24.800  -3.487  26.694  1.00  0.00     0.187 HD
BRANCH  27  29
HETATM   29  N9  UNL     1      25.919  -1.939  27.549  1.00  0.00    -0.344 N 
ATOM     30  H92 UNL     1      25.795  -1.021  27.975  1.00  0.00     0.176 HD
ATOM     31  H91 UNL     1      26.793  -2.452  27.665  1.00  0.00     0.176 HD
ENDBRANCH  27  29
ENDBRANCH  22  25
ENDBRANCH  18  19
ENDBRANCH  17  18
ENDBRANCH   1  17
TORSDOF 10
ENDMDL
MODEL 3
REMARK VINA RESULT: -6.751307824      3.545      8.130
REMARK  10 active torsions:
REMARK  status: ('A' for Active; 'I' for Inactive)
REMARK    1  A    between atoms: N1_1  and  C1_5 
REMARK    2  A    between atoms: C1_5  and  C2_6 
REMARK    3  A    between atoms: N2_7  and  N3_9 
REMARK       I    between atoms: N3_9  and  C3_11 
REMARK    4  A    between atoms: N5_13  and  C4_15 
REMARK    5  A    between atoms: C4_15  and  C5_16 
REMARK    6  A    between atoms: C5_16  and  C6_17 
REMARK    7  A    between atoms: C6_17  and  C7_18 
REMARK    8  A    between atoms: C7_18  and  N6_19 
REMARK    9  A    between atoms: C10_22  and  C11_23 
REMARK   10  A    between atoms: N8_25  and  N9_27 
ROOT
HETATM    1  C5  UNL     1      18.879  -4.820  22.446  1.00  0.00     0.021 C 
ENDROOT
BRANCH   1   2
HETATM    2  C4  UNL     1      17.656  -4.866  21.592  1.00  0.00     0.122 C 
BRANCH   2   3
HETATM    3  N5  UNL     1      16.602  -4.114  22.272  1.00  0.00    -0.363 N 
HETATM    4  C3  UNL     1      15.739  -3.503  21.546  1.00  0.00     0.203 C 
HETATM    5  N3  UNL     1      14.689  -2.754  22.139  1.00  0.00    -0.274 N 
HETATM    6  N4  UNL     1      15.784  -3.540  20.119  1.00  0.00    -0.062 NA
ATOM      7  H3  UNL     1      13.777  -2.694  21.686  1.00  0.00     0.189 HD
ATOM      8  H5  UNL     1      16.555  -4.077  23.291  1.00  0.00     0.162 HD
BRANCH   5   9
HETATM    9  N2  UNL     1      14.923  -2.104  23.344  1.00  0.00    -0.312 N 
HETATM   10  C2  UNL     1      14.351  -0.947  23.538  1.00  0.00     0.107 C 
ATOM     11  H2  UNL     1      15.523  -2.518  24.056  1.00  0.00     0.185 HD
BRANCH  10  12
HETATM   12  C1  UNL     1      13.479  -0.324  22.527  1.00  0.00     0.275 C 
BRANCH  12  13
HETATM   13  N1  UNL     1      12.719   0.745  23.177  1.00  0.00    -0.075 N 
ATOM     14  H13 UNL     1      13.168   1.086  24.026  1.00  0.00     0.274 HD
ATOM     15  H12 UNL     1      12.739   1.619  22.650  1.00  0.00     0.274 HD
ATOM     16  H11 UNL     1      11.771   0.406  23.340  1.00  0.00     0.274 HD
ENDBRANCH  12  13
ENDBRANCH  10  12
ENDBRANCH   5   9
ENDBRANCH   2   3
ENDBRANCH   1   2
BRANCH   1  17
HETATM   17  C6  UNL     1      18.666  -3.914  23.624  1.00  0.00     0.022 C 
BRANCH  17  18
HETATM   18  C7  UNL     1      19.936  -3.192  24.030  1.00  0.00     0.128 C 
BRANCH  18  19
HETATM   19  N6  UNL     1      19.671  -1.774  24.178  1.00  0.00    -0.366 N 
HETATM   20  C8  UNL     1      18.431  -1.332  24.464  1.00  0.00     0.091 A 
HETATM   21  C9  UNL     1      18.246   0.036  24.592  1.00  0.00     0.032 A 
HETATM   22  C10 UNL     1      19.251   0.946  24.443  1.00  0.00     0.009 A 
HETATM   23  C12 UNL     1      20.513   0.471  24.150  1.00  0.00     0.032 A 
HETATM   24  C13 UNL     1      20.693  -0.883  24.024  1.00  0.00     0.091 A 
BRANCH  22  25
HETATM   25  C11 UNL     1      19.023   2.397  24.586  1.00  0.00     0.140 C 
HETATM   26  N7  UNL     1      20.028   3.308  24.205  1.00  0.00    -0.080 NA
HETATM   27  N8  UNL     1      17.911   2.845  25.057  1.00  0.00    -0.294 N 
ATOM     28  H8  UNL     1      17.181   2.189  25.333  1.00  0.00     0.187 HD
BRANCH  27  29
HETATM   29  N9  UNL     1      17.694   4.213  25.193  1.00  0.00    -0.344 N 
ATOM     30  H92 UNL     1      17.505   4.587  26.122  1.00  0.00     0.176 HD
ATOM     31  H91 UNL     1      17.723   4.830  24.381  1.00  0.00     0.176 HD
ENDBRANCH  27  29
ENDBRANCH  22  25
ENDBRANCH  18  19
ENDBRANCH  17  18
ENDBRANCH   1  17
TORSDOF 10
ENDMDL
MODEL 4
REMARK VINA RESULT: -6.737676177      3.779      8.091
REMARK  10 active torsions:
REMARK  status: ('A' for Active; 'I' for Inactive)
REMARK    1  A    between atoms: N1_1  and  C1_5 
REMARK    2  A    between atoms: C1_5  and  C2_6 
REMARK    3  A    between atoms: N2_7  and  N3_9 
REMARK       I    between atoms: N3_9  and  C3_11 
REMARK    4  A    between atoms: N5_13  and  C4_15 
REMARK    5  A    between atoms: C4_15  and  C5_16 
REMARK    6  A    between atoms: C5_16  and  C6_17 
REMARK    7  A    between atoms: C6_17  and  C7_18 
REMARK    8  A    between atoms: C7_18  and  N6_19 
REMARK    9  A    between atoms: C10_22  and  C11_23 
REMARK   10  A    between atoms: N8_25  and  N9_27 
ROOT
HETATM    1  C5  UNL     1      18.790  -4.541  22.902  1.00  0.00     0.021 C 
ENDROOT
BRANCH   1   2
HETATM    2  C4  UNL     1      17.658  -4.615  21.932  1.00  0.00     0.122 C 
BRANCH   2   3
HETATM    3  N5  UNL     1      16.523  -3.894  22.507  1.00  0.00    -0.363 N 
HETATM    4  C3  UNL     1      15.699  -3.333  21.700  1.00  0.00     0.203 C 
HETATM    5  N3  UNL     1      14.576  -2.617  22.189  1.00  0.00    -0.274 N 
HETATM    6  N4  UNL     1      15.864  -3.394  20.282  1.00  0.00    -0.062 NA
ATOM      7  H3  UNL     1      13.703  -2.602  21.662  1.00  0.00     0.189 HD
ATOM      8  H5  UNL     1      16.391  -3.841  23.518  1.00  0.00     0.162 HD
BRANCH   5   9
HETATM    9  N2  UNL     1      14.683  -1.935  23.395  1.00  0.00    -0.312 N 
HETATM   10  C2  UNL     1      14.072  -0.788  23.508  1.00  0.00     0.107 C 
ATOM     11  H2  UNL     1      15.224  -2.321  24.169  1.00  0.00     0.185 HD
BRANCH  10  12
HETATM   12  C1  UNL     1      13.284  -0.208  22.407  1.00  0.00     0.275 C 
BRANCH  12  13
HETATM   13  N1  UNL     1      12.327   0.740  22.981  1.00  0.00    -0.075 N 
ATOM     14  H13 UNL     1      11.656   0.292  23.604  1.00  0.00     0.274 HD
ATOM     15  H12 UNL     1      12.754   1.365  23.665  1.00  0.00     0.274 HD
ATOM     16  H11 UNL     1      11.880   1.243  22.215  1.00  0.00     0.274 HD
ENDBRANCH  12  13
ENDBRANCH  10  12
ENDBRANCH   5   9
ENDBRANCH   2   3
ENDBRANCH   1   2
BRANCH   1  17
HETATM   17  C6  UNL     1      18.287  -4.203  24.275  1.00  0.00     0.022 C 
BRANCH  17  18
HETATM   18  C7  UNL     1      19.392  -3.707  25.185  1.00  0.00     0.128 C 
BRANCH  18  19
HETATM   19  N6  UNL     1      19.938  -2.466  24.669  1.00  0.00    -0.366 N 
HETATM   20  C8  UNL     1      19.199  -1.340  24.664  1.00  0.00     0.091 A 
HETATM   21  C9  UNL     1      19.780  -0.188  24.156  1.00  0.00     0.032 A 
HETATM   22  C10 UNL     1      21.052  -0.143  23.666  1.00  0.00     0.009 A 
HETATM   23  C12 UNL     1      21.790  -1.309  23.681  1.00  0.00     0.032 A 
HETATM   24  C13 UNL     1      21.213  -2.447  24.184  1.00  0.00     0.091 A 
BRANCH  22  25
HETATM   25  C11 UNL     1      21.644   1.099  23.131  1.00  0.00     0.140 C 
HETATM   26  N7  UNL     1      21.185   2.350  23.586  1.00  0.00    -0.080 NA
HETATM   27  N8  UNL     1      22.581   1.053  22.249  1.00  0.00    -0.294 N 
ATOM     28  H8  UNL     1      22.917   0.149  21.917  1.00  0.00     0.187 HD
BRANCH  27  29
HETATM   29  N9  UNL     1      23.141   2.223  21.742  1.00  0.00    -0.344 N 
ATOM     30  H92 UNL     1      22.522   2.922  21.333  1.00  0.00     0.176 HD
ATOM     31  H91 UNL     1      24.148   2.378  21.779  1.00  0.00     0.176 HD
ENDBRANCH  27  29
ENDBRANCH  22  25
ENDBRANCH  18  19
ENDBRANCH  17  18
ENDBRANCH   1  17
TORSDOF 10
ENDMDL
MODEL 5
REMARK VINA RESULT: -6.689125441      3.368      9.185
REMARK  10 active torsions:
REMARK  status: ('A' for Active; 'I' for Inactive)
REMARK    1  A    between atoms: N1_1  and  C1_5 
REMARK    2  A    between atoms: C1_5  and  C2_6 
REMARK    3  A    between atoms: N2_7  and  N3_9 
REMARK       I    between atoms: N3_9  and  C3_11 
REMARK    4  A    between atoms: N5_13  and  C4_15 
REMARK    5  A    between atoms: C4_15  and  C5_16 
REMARK    6  A    between atoms: C5_16  and  C6_17 
REMARK    7  A    between atoms: C6_17  and  C7_18 
REMARK    8  A    between atoms: C7_18  and  N6_19 
REMARK    9  A    between atoms: C10_22  and  C11_23 
REMARK   10  A    between atoms: N8_25  and  N9_27 
ROOT
HETATM    1  C5  UNL     1      19.154  -4.454  22.705  1.00  0.00     0.021 C 
ENDROOT
BRANCH   1   2
HETATM    2  C4  UNL     1      17.731  -4.069  22.476  1.00  0.00     0.122 C 
BRANCH   2   3
HETATM    3  N5  UNL     1      17.088  -5.144  21.720  1.00  0.00    -0.363 N 
HETATM    4  C3  UNL     1      16.268  -4.814  20.791  1.00  0.00     0.203 C 
HETATM    5  N3  UNL     1      15.607  -5.805  20.018  1.00  0.00    -0.274 N 
HETATM    6  N4  UNL     1      15.973  -3.450  20.485  1.00  0.00    -0.062 NA
ATOM      7  H3  UNL     1      15.382  -5.631  19.038  1.00  0.00     0.189 HD
ATOM      8  H5  UNL     1      17.286  -6.123  21.925  1.00  0.00     0.162 HD
BRANCH   5   9
HETATM    9  N2  UNL     1      15.273  -7.014  20.615  1.00  0.00    -0.312 N 
HETATM   10  C2  UNL     1      15.212  -8.075  19.859  1.00  0.00     0.107 C 
ATOM     11  H2  UNL     1      15.082  -7.070  21.615  1.00  0.00     0.185 HD
BRANCH  10  12
HETATM   12  C1  UNL     1      15.484  -8.023  18.412  1.00  0.00     0.275 C 
BRANCH  12  13
HETATM   13  N1  UNL     1      14.281  -8.469  17.706  1.00  0.00    -0.075 N 
ATOM     14  H13 UNL     1      14.227  -9.484  17.623  1.00  0.00     0.274 HD
ATOM     15  H12 UNL     1      13.430  -8.330  18.251  1.00  0.00     0.274 HD
ATOM     16  H11 UNL     1      14.251  -7.998  16.802  1.00  0.00     0.274 HD
ENDBRANCH  12  13
ENDBRANCH  10  12
ENDBRANCH   5   9
ENDBRANCH   2   3
ENDBRANCH   1   2
BRANCH   1  17
HETATM   17  C6  UNL     1      19.652  -3.884  24.001  1.00  0.00     0.022 C 
BRANCH  17  18
HETATM   18  C7  UNL     1      20.817  -2.936  23.800  1.00  0.00     0.128 C 
BRANCH  18  19
HETATM   19  N6  UNL     1      20.382  -1.568  24.008  1.00  0.00    -0.366 N 
HETATM   20  C8  UNL     1      19.182  -1.305  24.562  1.00  0.00     0.091 A 
HETATM   21  C9  UNL     1      18.826   0.023  24.733  1.00  0.00     0.032 A 
HETATM   22  C10 UNL     1      19.627   1.067  24.371  1.00  0.00     0.009 A 
HETATM   23  C12 UNL     1      20.851   0.774  23.806  1.00  0.00     0.032 A 
HETATM   24  C13 UNL     1      21.200  -0.541  23.637  1.00  0.00     0.091 A 
BRANCH  22  25
HETATM   25  C11 UNL     1      19.221   2.472  24.566  1.00  0.00     0.140 C 
HETATM   26  N7  UNL     1      20.110   3.514  24.238  1.00  0.00    -0.080 NA
HETATM   27  N8  UNL     1      18.057   2.761  25.035  1.00  0.00    -0.294 N 
ATOM     28  H8  UNL     1      17.409   2.010  25.274  1.00  0.00     0.187 HD
BRANCH  27  29
HETATM   29  N9  UNL     1      17.671   4.086  25.221  1.00  0.00    -0.344 N 
ATOM     30  H92 UNL     1      17.998   4.786  24.556  1.00  0.00     0.176 HD
ATOM     31  H91 UNL     1      17.074   4.352  26.004  1.00  0.00     0.176 HD
ENDBRANCH  27  29
ENDBRANCH  22  25
ENDBRANCH  18  19
ENDBRANCH  17  18
ENDBRANCH   1  17
TORSDOF 10
ENDMDL
