MODEL 1
REMARK VINA RESULT: -7.597592998      0.000      0.000
REMARK  12 active torsions:
REMARK  status: ('A' for Active; 'I' for Inactive)
REMARK       I    between atoms: N1_2  and  C3_4 
REMARK       I    between atoms: C3_4  and  N3_6 
REMARK    1  A    between atoms: N3_6  and  C4_8 
REMARK    2  A    between atoms: C4_8  and  C5_9 
REMARK    3  A    between atoms: C5_9  and  C6_10 
REMARK    4  A    between atoms: C6_10  and  N4_11 
REMARK    5  A    between atoms: N4_11  and  C7_13 
REMARK    6  A    between atoms: C8_18  and  N7_19 
REMARK    7  A    between atoms: N7_19  and  C9_21 
REMARK    8  A    between atoms: C9_21  and  C10_22 
REMARK    9  A    between atoms: C10_22  and  N8_23 
REMARK   10  A    between atoms: N8_23  and  C11_25 
REMARK   11  A    between atoms: C11_25  and  C12_26 
REMARK   12  A    between atoms: C12_26  and  O1_27 
ROOT
HETATM    1  C7  UNL     1      15.623  -3.986  21.522  1.00  0.00     0.707 A 
HETATM    2  N5  UNL     1      15.446  -3.073  20.524  1.00  0.00    -0.117 N 
ATOM      3  H5  UNL     1      15.723  -3.200  19.550  1.00  0.00     0.206 HD
HETATM    4  N6  UNL     1      14.862  -2.002  21.018  1.00  0.00    -0.117 N 
ATOM      5  H6  UNL     1      14.613  -1.168  20.487  1.00  0.00     0.206 HD
HETATM    6  C8  UNL     1      14.640  -2.180  22.349  1.00  0.00     0.707 A 
HETATM    7  N9  UNL     1      15.119  -3.401  22.616  1.00  0.00    -0.020 N 
ATOM      8  H9  UNL     1      15.101  -3.833  23.539  1.00  0.00     0.203 HD
ENDROOT
BRANCH   1   9
HETATM    9  N4  UNL     1      16.167  -5.137  21.401  1.00  0.00    -0.224 N 
ATOM     10  H4  UNL     1      16.199  -5.702  22.250  1.00  0.00     0.177 HD
BRANCH   9  11
HETATM   11  C6  UNL     1      16.733  -5.735  20.247  1.00  0.00     0.139 C 
BRANCH  11  12
HETATM   12  C5  UNL     1      15.679  -6.707  19.699  1.00  0.00     0.040 C 
BRANCH  12  13
HETATM   13  C4  UNL     1      15.226  -6.364  18.324  1.00  0.00     0.124 C 
BRANCH  13  14
HETATM   14  N3  UNL     1      14.090  -7.033  17.825  1.00  0.00    -0.364 N 
HETATM   15  C3  UNL     1      13.935  -8.160  17.284  1.00  0.00     0.185 C 
HETATM   16  N1  UNL     1      14.972  -9.072  17.047  1.00  0.00    -0.364 N 
HETATM   17  N2  UNL     1      12.605  -8.523  16.884  1.00  0.00    -0.064 NA
HETATM   18  C1  UNL     1      15.048 -10.329  17.809  1.00  0.00     0.151 C 
HETATM   19  C2  UNL     1      15.981  -8.814  16.057  1.00  0.00     0.151 C 
ATOM     20  H3  UNL     1      13.224  -6.500  17.920  1.00  0.00     0.162 HD
ENDBRANCH  13  14
ENDBRANCH  12  13
ENDBRANCH  11  12
ENDBRANCH   9  11
ENDBRANCH   1   9
BRANCH   6  21
HETATM   21  N7  UNL     1      14.088  -1.343  23.163  1.00  0.00    -0.223 N 
ATOM     22  H7  UNL     1      14.670  -0.896  23.872  1.00  0.00     0.177 HD
BRANCH  21  23
HETATM   23  C9  UNL     1      12.700  -1.015  23.114  1.00  0.00     0.157 C 
BRANCH  23  24
HETATM   24  C10 UNL     1      12.583   0.511  23.040  1.00  0.00     0.134 C 
BRANCH  24  25
HETATM   25  N8  UNL     1      11.307   0.841  23.601  1.00  0.00    -0.418 N 
ATOM     26  H8  UNL     1      10.950   1.796  23.617  1.00  0.00     0.153 HD
BRANCH  25  27
HETATM   27  C11 UNL     1      10.568  -0.257  24.139  1.00  0.00     0.139 C 
BRANCH  27  28
HETATM   28  C12 UNL     1       9.656   0.100  25.286  1.00  0.00     0.183 C 
BRANCH  28  29
HETATM   29  O1  UNL     1       9.551   1.511  25.260  1.00  0.00    -0.399 OA
ATOM     30  H1  UNL     1      10.162   1.799  24.592  1.00  0.00     0.209 HD
ENDBRANCH  28  29
ENDBRANCH  27  28
ENDBRANCH  25  27
ENDBRANCH  24  25
ENDBRANCH  23  24
ENDBRANCH  21  23
ENDBRANCH   6  21
TORSDOF 12
ENDMDL
MODEL 2
REMARK VINA RESULT: -7.352472220      1.646      2.154
REMARK  12 active torsions:
REMARK  status: ('A' for Active; 'I' for Inactive)
REMARK       I    between atoms: N1_2  and  C3_4 
REMARK       I    between atoms: C3_4  and  N3_6 
REMARK    1  A    between atoms: N3_6  and  C4_8 
REMARK    2  A    between atoms: C4_8  and  C5_9 
REMARK    3  A    between atoms: C5_9  and  C6_10 
REMARK    4  A    between atoms: C6_10  and  N4_11 
REMARK    5  A    between atoms: N4_11  and  C7_13 
REMARK    6  A    between atoms: C8_18  and  N7_19 
REMARK    7  A    between atoms: N7_19  and  C9_21 
REMARK    8  A    between atoms: C9_21  and  C10_22 
REMARK    9  A    between atoms: C10_22  and  N8_23 
REMARK   10  A    between atoms: N8_23  and  C11_25 
REMARK   11  A    between atoms: C11_25  and  C12_26 
REMARK   12  A    between atoms: C12_26  and  O1_27 
ROOT
HETATM    1  C7  UNL     1      16.201  -4.696  21.041  1.00  0.00     0.707 A 
HETATM    2  N5  UNL     1      15.684  -3.987  19.995  1.00  0.00    -0.117 N 
ATOM      3  H5  UNL     1      15.750  -4.251  19.012  1.00  0.00     0.206 HD
HETATM    4  N6  UNL     1      15.088  -2.909  20.459  1.00  0.00    -0.117 N 
ATOM      5  H6  UNL     1      14.618  -2.206  19.889  1.00  0.00     0.206 HD
HETATM    6  C8  UNL     1      15.197  -2.878  21.815  1.00  0.00     0.707 A 
HETATM    7  N9  UNL     1      15.881  -3.984  22.129  1.00  0.00    -0.020 N 
ATOM      8  H9  UNL     1      16.129  -4.252  23.081  1.00  0.00     0.203 HD
ENDROOT
BRANCH   1   9
HETATM    9  N4  UNL     1      16.853  -5.793  20.956  1.00  0.00    -0.224 N 
ATOM     10  H4  UNL     1      17.730  -5.825  21.477  1.00  0.00     0.177 HD
BRANCH   9  11
HETATM   11  C6  UNL     1      16.524  -6.969  20.239  1.00  0.00     0.139 C 
BRANCH  11  12
HETATM   12  C5  UNL     1      17.642  -7.179  19.209  1.00  0.00     0.040 C 
BRANCH  12  13
HETATM   13  C4  UNL     1      17.592  -8.514  18.554  1.00  0.00     0.124 C 
BRANCH  13  14
HETATM   14  N3  UNL     1      17.134  -8.571  17.222  1.00  0.00    -0.364 N 
HETATM   15  C3  UNL     1      15.980  -8.555  16.717  1.00  0.00     0.185 C 
HETATM   16  N1  UNL     1      14.795  -8.465  17.458  1.00  0.00    -0.364 N 
HETATM   17  N2  UNL     1      15.884  -8.638  15.287  1.00  0.00    -0.064 NA
HETATM   18  C1  UNL     1      13.974  -7.245  17.407  1.00  0.00     0.151 C 
HETATM   19  C2  UNL     1      14.344  -9.555  18.279  1.00  0.00     0.151 C 
ATOM     20  H3  UNL     1      17.884  -8.638  16.532  1.00  0.00     0.162 HD
ENDBRANCH  13  14
ENDBRANCH  12  13
ENDBRANCH  11  12
ENDBRANCH   9  11
ENDBRANCH   1   9
BRANCH   6  21
HETATM   21  N7  UNL     1      14.734  -1.972  22.610  1.00  0.00    -0.223 N 
ATOM     22  H7  UNL     1      14.884  -2.082  23.613  1.00  0.00     0.177 HD
BRANCH  21  23
HETATM   23  C9  UNL     1      14.023  -0.824  22.148  1.00  0.00     0.157 C 
BRANCH  23  24
HETATM   24  C10 UNL     1      13.204  -0.278  23.322  1.00  0.00     0.134 C 
BRANCH  24  25
HETATM   25  N8  UNL     1      12.000  -1.052  23.363  1.00  0.00    -0.418 N 
ATOM     26  H8  UNL     1      11.968  -2.024  23.053  1.00  0.00     0.153 HD
BRANCH  25  27
HETATM   27  C11 UNL     1      10.848  -0.374  23.865  1.00  0.00     0.139 C 
BRANCH  27  28
HETATM   28  C12 UNL     1       9.853  -1.261  24.569  1.00  0.00     0.183 C 
BRANCH  28  29
HETATM   29  O1  UNL     1       9.873  -2.487  23.863  1.00  0.00    -0.399 OA
ATOM     30  H1  UNL     1      10.405  -3.073  24.388  1.00  0.00     0.209 HD
ENDBRANCH  28  29
ENDBRANCH  27  28
ENDBRANCH  25  27
ENDBRANCH  24  25
ENDBRANCH  23  24
ENDBRANCH  21  23
ENDBRANCH   6  21
TORSDOF 12
ENDMDL
MODEL 3
REMARK VINA RESULT: -7.216994237      1.519      1.622
REMARK  12 active torsions:
REMARK  status: ('A' for Active; 'I' for Inactive)
REMARK       I    between atoms: N1_2  and  C3_4 
REMARK       I    between atoms: C3_4  and  N3_6 
REMARK    1  A    between atoms: N3_6  and  C4_8 
REMARK    2  A    between atoms: C4_8  and  C5_9 
REMARK    3  A    between atoms: C5_9  and  C6_10 
REMARK    4  A    between atoms: C6_10  and  N4_11 
REMARK    5  A    between atoms: N4_11  and  C7_13 
REMARK    6  A    between atoms: C8_18  and  N7_19 
REMARK    7  A    between atoms: N7_19  and  C9_21 
REMARK    8  A    between atoms: C9_21  and  C10_22 
REMARK    9  A    between atoms: C10_22  and  N8_23 
REMARK   10  A    between atoms: N8_23  and  C11_25 
REMARK   11  A    between atoms: C11_25  and  C12_26 
REMARK   12  A    between atoms: C12_26  and  O1_27 
ROOT
HETATM    1  C7  UNL     1      16.242  -4.542  21.194  1.00  0.00     0.707 A 
HETATM    2  N5  UNL     1      15.749  -3.864  20.116  1.00  0.00    -0.117 N 
ATOM      3  H5  UNL     1      15.942  -4.086  19.140  1.00  0.00     0.206 HD
HETATM    4  N6  UNL     1      14.986  -2.879  20.540  1.00  0.00    -0.117 N 
ATOM      5  H6  UNL     1      14.494  -2.217  19.941  1.00  0.00     0.206 HD
HETATM    6  C8  UNL     1      14.957  -2.880  21.900  1.00  0.00     0.707 A 
HETATM    7  N9  UNL     1      15.734  -3.909  22.259  1.00  0.00    -0.020 N 
ATOM      8  H9  UNL     1      15.917  -4.179  23.225  1.00  0.00     0.203 HD
ENDROOT
BRANCH   1   9
HETATM    9  N4  UNL     1      17.025  -5.553  21.152  1.00  0.00    -0.224 N 
ATOM     10  H4  UNL     1      17.437  -5.828  22.044  1.00  0.00     0.177 HD
BRANCH   9  11
HETATM   11  C6  UNL     1      17.399  -6.342  20.036  1.00  0.00     0.139 C 
BRANCH  11  12
HETATM   12  C5  UNL     1      17.085  -7.797  20.407  1.00  0.00     0.040 C 
BRANCH  12  13
HETATM   13  C4  UNL     1      15.661  -8.164  20.185  1.00  0.00     0.124 C 
BRANCH  13  14
HETATM   14  N3  UNL     1      15.079  -7.805  18.951  1.00  0.00    -0.364 N 
HETATM   15  C3  UNL     1      15.021  -8.389  17.836  1.00  0.00     0.185 C 
HETATM   16  N1  UNL     1      15.583  -9.645  17.572  1.00  0.00    -0.364 N 
HETATM   17  N2  UNL     1      14.336  -7.711  16.772  1.00  0.00    -0.064 NA
HETATM   18  C1  UNL     1      14.719 -10.813  17.337  1.00  0.00     0.151 C 
HETATM   19  C2  UNL     1      17.007  -9.829  17.515  1.00  0.00     0.151 C 
ATOM     20  H3  UNL     1      14.614  -6.897  18.965  1.00  0.00     0.162 HD
ENDBRANCH  13  14
ENDBRANCH  12  13
ENDBRANCH  11  12
ENDBRANCH   9  11
ENDBRANCH   1   9
BRANCH   6  21
HETATM   21  N7  UNL     1      14.313  -2.062  22.664  1.00  0.00    -0.223 N 
ATOM     22  H7  UNL     1      13.997  -2.393  23.575  1.00  0.00     0.177 HD
BRANCH  21  23
HETATM   23  C9  UNL     1      14.026  -0.715  22.289  1.00  0.00     0.157 C 
BRANCH  23  24
HETATM   24  C10 UNL     1      13.109  -0.117  23.362  1.00  0.00     0.134 C 
BRANCH  24  25
HETATM   25  N8  UNL     1      11.938  -0.941  23.390  1.00  0.00    -0.418 N 
ATOM     26  H8  UNL     1      11.945  -1.908  23.065  1.00  0.00     0.153 HD
BRANCH  25  27
HETATM   27  C11 UNL     1      10.759  -0.319  23.902  1.00  0.00     0.139 C 
BRANCH  27  28
HETATM   28  C12 UNL     1       9.847  -1.238  24.674  1.00  0.00     0.183 C 
BRANCH  28  29
HETATM   29  O1  UNL     1       9.799  -2.438  23.926  1.00  0.00    -0.399 OA
ATOM     30  H1  UNL     1      10.635  -2.864  24.076  1.00  0.00     0.209 HD
ENDBRANCH  28  29
ENDBRANCH  27  28
ENDBRANCH  25  27
ENDBRANCH  24  25
ENDBRANCH  23  24
ENDBRANCH  21  23
ENDBRANCH   6  21
TORSDOF 12
ENDMDL
MODEL 4
REMARK VINA RESULT: -7.185002703      1.720      3.072
REMARK  12 active torsions:
REMARK  status: ('A' for Active; 'I' for Inactive)
REMARK       I    between atoms: N1_2  and  C3_4 
REMARK       I    between atoms: C3_4  and  N3_6 
REMARK    1  A    between atoms: N3_6  and  C4_8 
REMARK    2  A    between atoms: C4_8  and  C5_9 
REMARK    3  A    between atoms: C5_9  and  C6_10 
REMARK    4  A    between atoms: C6_10  and  N4_11 
REMARK    5  A    between atoms: N4_11  and  C7_13 
REMARK    6  A    between atoms: C8_18  and  N7_19 
REMARK    7  A    between atoms: N7_19  and  C9_21 
REMARK    8  A    between atoms: C9_21  and  C10_22 
REMARK    9  A    between atoms: C10_22  and  N8_23 
REMARK   10  A    between atoms: N8_23  and  C11_25 
REMARK   11  A    between atoms: C11_25  and  C12_26 
REMARK   12  A    between atoms: C12_26  and  O1_27 
ROOT
HETATM    1  C7  UNL     1      17.052  -6.115  20.464  1.00  0.00     0.707 A 
HETATM    2  N5  UNL     1      17.699  -5.612  21.557  1.00  0.00    -0.117 N 
ATOM      3  H5  UNL     1      18.466  -6.068  22.051  1.00  0.00     0.206 HD
HETATM    4  N6  UNL     1      17.173  -4.447  21.870  1.00  0.00    -0.117 N 
ATOM      5  H6  UNL     1      17.471  -3.857  22.646  1.00  0.00     0.206 HD
HETATM    6  C8  UNL     1      16.170  -4.153  20.999  1.00  0.00     0.707 A 
HETATM    7  N9  UNL     1      16.129  -5.194  20.159  1.00  0.00    -0.020 N 
ATOM      8  H9  UNL     1      15.476  -5.276  19.380  1.00  0.00     0.203 HD
ENDROOT
BRANCH   1   9
HETATM    9  N4  UNL     1      17.298  -7.233  19.894  1.00  0.00    -0.224 N 
ATOM     10  H4  UNL     1      17.809  -7.174  19.013  1.00  0.00     0.177 HD
BRANCH   9  11
HETATM   11  C6  UNL     1      16.957  -8.541  20.318  1.00  0.00     0.139 C 
BRANCH  11  12
HETATM   12  C5  UNL     1      17.769  -9.508  19.445  1.00  0.00     0.040 C 
BRANCH  12  13
HETATM   13  C4  UNL     1      16.928 -10.287  18.498  1.00  0.00     0.124 C 
BRANCH  13  14
HETATM   14  N3  UNL     1      16.682  -9.725  17.228  1.00  0.00    -0.364 N 
HETATM   15  C3  UNL     1      15.714  -9.070  16.761  1.00  0.00     0.185 C 
HETATM   16  N1  UNL     1      14.566  -8.730  17.489  1.00  0.00    -0.364 N 
HETATM   17  N2  UNL     1      15.800  -8.651  15.390  1.00  0.00    -0.064 NA
HETATM   18  C1  UNL     1      14.308  -7.330  17.863  1.00  0.00     0.151 C 
HETATM   19  C2  UNL     1      13.609  -9.727  17.882  1.00  0.00     0.151 C 
ATOM     20  H3  UNL     1      17.436  -9.880  16.558  1.00  0.00     0.162 HD
ENDBRANCH  13  14
ENDBRANCH  12  13
ENDBRANCH  11  12
ENDBRANCH   9  11
ENDBRANCH   1   9
BRANCH   6  21
HETATM   21  N7  UNL     1      15.430  -3.095  20.996  1.00  0.00    -0.223 N 
ATOM     22  H7  UNL     1      14.892  -2.879  20.156  1.00  0.00     0.177 HD
BRANCH  21  23
HETATM   23  C9  UNL     1      15.330  -2.215  22.115  1.00  0.00     0.157 C 
BRANCH  23  24
HETATM   24  C10 UNL     1      14.301  -1.134  21.769  1.00  0.00     0.134 C 
BRANCH  24  25
HETATM   25  N8  UNL     1      13.184  -1.354  22.638  1.00  0.00    -0.418 N 
ATOM     26  H8  UNL     1      12.738  -2.267  22.730  1.00  0.00     0.153 HD
BRANCH  25  27
HETATM   27  C11 UNL     1      12.734  -0.210  23.365  1.00  0.00     0.139 C 
BRANCH  27  28
HETATM   28  C12 UNL     1      11.278  -0.244  23.755  1.00  0.00     0.183 C 
BRANCH  28  29
HETATM   29  O1  UNL     1      10.929  -1.614  23.791  1.00  0.00    -0.399 OA
ATOM     30  H1  UNL     1      10.228  -1.681  24.429  1.00  0.00     0.209 HD
ENDBRANCH  28  29
ENDBRANCH  27  28
ENDBRANCH  25  27
ENDBRANCH  24  25
ENDBRANCH  23  24
ENDBRANCH  21  23
ENDBRANCH   6  21
TORSDOF 12
ENDMDL
MODEL 5
REMARK VINA RESULT: -6.970880933      2.922      3.913
REMARK  12 active torsions:
REMARK  status: ('A' for Active; 'I' for Inactive)
REMARK       I    between atoms: N1_2  and  C3_4 
REMARK       I    between atoms: C3_4  and  N3_6 
REMARK    1  A    between atoms: N3_6  and  C4_8 
REMARK    2  A    between atoms: C4_8  and  C5_9 
REMARK    3  A    between atoms: C5_9  and  C6_10 
REMARK    4  A    between atoms: C6_10  and  N4_11 
REMARK    5  A    between atoms: N4_11  and  C7_13 
REMARK    6  A    between atoms: C8_18  and  N7_19 
REMARK    7  A    between atoms: N7_19  and  C9_21 
REMARK    8  A    between atoms: C9_21  and  C10_22 
REMARK    9  A    between atoms: C10_22  and  N8_23 
REMARK   10  A    between atoms: N8_23  and  C11_25 
REMARK   11  A    between atoms: C11_25  and  C12_26 
REMARK   12  A    between atoms: C12_26  and  O1_27 
ROOT
HETATM    1  C7  UNL     1      16.128  -4.495  21.129  1.00  0.00     0.707 A 
HETATM    2  N5  UNL     1      15.611  -3.640  20.199  1.00  0.00    -0.117 N 
ATOM      3  H5  UNL     1      15.702  -3.741  19.188  1.00  0.00     0.206 HD
HETATM    4  N6  UNL     1      14.976  -2.666  20.816  1.00  0.00    -0.117 N 
ATOM      5  H6  UNL     1      14.497  -1.893  20.356  1.00  0.00     0.206 HD
HETATM    6  C8  UNL     1      15.059  -2.851  22.161  1.00  0.00     0.707 A 
HETATM    7  N9  UNL     1      15.768  -3.976  22.310  1.00  0.00    -0.020 N 
ATOM      8  H9  UNL     1      16.006  -4.388  23.212  1.00  0.00     0.203 HD
ENDROOT
BRANCH   1   9
HETATM    9  N4  UNL     1      16.812  -5.548  20.884  1.00  0.00    -0.224 N 
ATOM     10  H4  UNL     1      17.757  -5.559  21.269  1.00  0.00     0.177 HD
BRANCH   9  11
HETATM   11  C6  UNL     1      16.437  -6.702  20.152  1.00  0.00     0.139 C 
BRANCH  11  12
HETATM   12  C5  UNL     1      17.606  -7.021  19.211  1.00  0.00     0.040 C 
BRANCH  12  13
HETATM   13  C4  UNL     1      17.516  -8.375  18.605  1.00  0.00     0.124 C 
BRANCH  13  14
HETATM   14  N3  UNL     1      17.067  -8.466  17.271  1.00  0.00    -0.364 N 
HETATM   15  C3  UNL     1      15.915  -8.486  16.761  1.00  0.00     0.185 C 
HETATM   16  N1  UNL     1      14.725  -8.412  17.496  1.00  0.00    -0.364 N 
HETATM   17  N2  UNL     1      15.829  -8.595  15.332  1.00  0.00    -0.064 NA
HETATM   18  C1  UNL     1      13.875  -7.213  17.420  1.00  0.00     0.151 C 
HETATM   19  C2  UNL     1      14.295  -9.498  18.333  1.00  0.00     0.151 C 
ATOM     20  H3  UNL     1      17.821  -8.527  16.587  1.00  0.00     0.162 HD
ENDBRANCH  13  14
ENDBRANCH  12  13
ENDBRANCH  11  12
ENDBRANCH   9  11
ENDBRANCH   1   9
BRANCH   6  21
HETATM   21  N7  UNL     1      14.557  -2.097  23.081  1.00  0.00    -0.223 N 
ATOM     22  H7  UNL     1      13.762  -2.446  23.617  1.00  0.00     0.177 HD
BRANCH  21  23
HETATM   23  C9  UNL     1      15.063  -0.796  23.380  1.00  0.00     0.157 C 
BRANCH  23  24
HETATM   24  C10 UNL     1      15.706  -0.854  24.770  1.00  0.00     0.134 C 
BRANCH  24  25
HETATM   25  N8  UNL     1      16.641   0.230  24.822  1.00  0.00    -0.418 N 
ATOM     26  H8  UNL     1      16.421   1.118  25.272  1.00  0.00     0.153 HD
BRANCH  25  27
HETATM   27  C11 UNL     1      17.904  -0.015  24.199  1.00  0.00     0.139 C 
BRANCH  27  28
HETATM   28  C12 UNL     1      18.740   1.217  23.968  1.00  0.00     0.183 C 
BRANCH  28  29
HETATM   29  O1  UNL     1      18.108   1.910  22.910  1.00  0.00    -0.399 OA
ATOM     30  H1  UNL     1      17.739   1.237  22.350  1.00  0.00     0.209 HD
ENDBRANCH  28  29
ENDBRANCH  27  28
ENDBRANCH  25  27
ENDBRANCH  24  25
ENDBRANCH  23  24
ENDBRANCH  21  23
ENDBRANCH   6  21
TORSDOF 12
ENDMDL
