MODEL 1
REMARK VINA RESULT: -5.193043556      0.000      0.000
REMARK  2 active torsions:
REMARK  status: ('A' for Active; 'I' for Inactive)
REMARK    1  A    between atoms: C2_3  and  N2_4 
REMARK    2  A    between atoms: C3_9  and  N4_10 
ROOT
HETATM    1  C1  UNL     1      49.689  37.981  30.929  1.00  0.00     0.198 C 
HETATM    2  N1  UNL     1      50.360  38.002  29.637  1.00  0.00    -0.124 N 
HETATM    3  C2  UNL     1      51.593  38.499  29.548  1.00  0.00     0.694 A 
HETATM    4  N3  UNL     1      52.285  38.554  28.382  1.00  0.00    -0.170 N 
ATOM      5  H3  UNL     1      53.229  38.941  28.353  1.00  0.00     0.186 HD
HETATM    6  C3  UNL     1      51.698  38.088  27.266  1.00  0.00     0.185 A 
HETATM    7  C4  UNL     1      50.435  37.580  27.358  1.00  0.00     0.306 A 
HETATM    8  O1  UNL     1      49.901  37.144  26.286  1.00  0.00    -0.262 OA
HETATM    9  N5  UNL     1      49.785  37.544  28.535  1.00  0.00    -0.243 N 
HETATM   10  C5  UNL     1      48.449  37.005  28.623  1.00  0.00     0.182 C 
ENDROOT
BRANCH   3  11
HETATM   11  N2  UNL     1      52.166  38.949  30.607  1.00  0.00    -0.233 N 
ATOM     12  H22 UNL     1      52.036  39.935  30.835  1.00  0.00     0.174 HD
ATOM     13  H21 UNL     1      52.727  38.316  31.177  1.00  0.00     0.174 HD
ENDBRANCH   3  11
BRANCH   6  14
HETATM   14  N4  UNL     1      52.303  38.111  26.119  1.00  0.00    -0.380 N 
ATOM     15  H42 UNL     1      52.379  38.987  25.604  1.00  0.00     0.157 HD
ATOM     16  H41 UNL     1      52.709  37.268  25.711  1.00  0.00     0.157 HD
ENDBRANCH   6  14
TORSDOF 2
ENDMDL
MODEL 2
REMARK VINA RESULT: -5.056744002      1.603      2.061
REMARK  2 active torsions:
REMARK  status: ('A' for Active; 'I' for Inactive)
REMARK    1  A    between atoms: C2_3  and  N2_4 
REMARK    2  A    between atoms: C3_9  and  N4_10 
ROOT
HETATM    1  C1  UNL     1      50.205  39.322  29.252  1.00  0.00     0.198 C 
HETATM    2  N1  UNL     1      50.375  38.370  28.164  1.00  0.00    -0.124 N 
HETATM    3  C2  UNL     1      51.387  38.526  27.311  1.00  0.00     0.694 A 
HETATM    4  N3  UNL     1      51.614  37.683  26.272  1.00  0.00    -0.170 N 
ATOM      5  H3  UNL     1      52.401  37.834  25.640  1.00  0.00     0.186 HD
HETATM    6  C3  UNL     1      50.779  36.645  26.095  1.00  0.00     0.185 A 
HETATM    7  C4  UNL     1      49.743  36.487  26.968  1.00  0.00     0.306 A 
HETATM    8  O1  UNL     1      48.965  35.494  26.779  1.00  0.00    -0.262 OA
HETATM    9  N5  UNL     1      49.555  37.346  27.985  1.00  0.00    -0.243 N 
HETATM   10  C5  UNL     1      48.456  37.171  28.905  1.00  0.00     0.182 C 
ENDROOT
BRANCH   3  11
HETATM   11  N2  UNL     1      52.194  39.514  27.468  1.00  0.00    -0.233 N 
ATOM     12  H22 UNL     1      51.909  40.423  27.101  1.00  0.00     0.174 HD
ATOM     13  H21 UNL     1      53.081  39.362  27.945  1.00  0.00     0.174 HD
ENDBRANCH   3  11
BRANCH   6  14
HETATM   14  N4  UNL     1      50.938  35.801  25.123  1.00  0.00    -0.380 N 
ATOM     15  H42 UNL     1      50.140  35.266  24.781  1.00  0.00     0.157 HD
ATOM     16  H41 UNL     1      51.847  35.655  24.684  1.00  0.00     0.157 HD
ENDBRANCH   6  14
TORSDOF 2
ENDMDL
MODEL 3
REMARK VINA RESULT: -4.819974246      1.630      3.149
REMARK  2 active torsions:
REMARK  status: ('A' for Active; 'I' for Inactive)
REMARK    1  A    between atoms: C2_3  and  N2_4 
REMARK    2  A    between atoms: C3_9  and  N4_10 
ROOT
HETATM    1  C1  UNL     1      50.499  36.938  26.342  1.00  0.00     0.198 C 
HETATM    2  N1  UNL     1      50.789  37.497  27.655  1.00  0.00    -0.124 N 
HETATM    3  C2  UNL     1      52.000  37.994  27.902  1.00  0.00     0.694 A 
HETATM    4  N3  UNL     1      52.348  38.532  29.098  1.00  0.00    -0.170 N 
ATOM      5  H3  UNL     1      53.286  38.904  29.249  1.00  0.00     0.186 HD
HETATM    6  C3  UNL     1      51.430  38.563  30.078  1.00  0.00     0.185 A 
HETATM    7  C4  UNL     1      50.190  38.053  29.825  1.00  0.00     0.306 A 
HETATM    8  O1  UNL     1      49.336  38.094  30.771  1.00  0.00    -0.262 OA
HETATM    9  N5  UNL     1      49.886  37.529  28.624  1.00  0.00    -0.243 N 
HETATM   10  C5  UNL     1      48.572  36.992  28.364  1.00  0.00     0.182 C 
ENDROOT
BRANCH   3  11
HETATM   11  N2  UNL     1      52.889  37.971  26.974  1.00  0.00    -0.233 N 
ATOM     12  H22 UNL     1      52.688  37.423  26.137  1.00  0.00     0.174 HD
ATOM     13  H21 UNL     1      53.756  38.492  27.102  1.00  0.00     0.174 HD
ENDBRANCH   3  11
BRANCH   6  14
HETATM   14  N4  UNL     1      51.695  39.063  31.245  1.00  0.00    -0.380 N 
ATOM     15  H42 UNL     1      51.766  38.448  32.055  1.00  0.00     0.157 HD
ATOM     16  H41 UNL     1      51.837  40.065  31.379  1.00  0.00     0.157 HD
ENDBRANCH   6  14
TORSDOF 2
ENDMDL
MODEL 4
REMARK VINA RESULT: -4.772908731      1.420      3.053
REMARK  2 active torsions:
REMARK  status: ('A' for Active; 'I' for Inactive)
REMARK    1  A    between atoms: C2_3  and  N2_4 
REMARK    2  A    between atoms: C3_9  and  N4_10 
ROOT
HETATM    1  C1  UNL     1      52.691  38.032  27.148  1.00  0.00     0.198 C 
HETATM    2  N1  UNL     1      51.427  37.751  27.814  1.00  0.00    -0.124 N 
HETATM    3  C2  UNL     1      51.183  38.288  29.008  1.00  0.00     0.694 A 
HETATM    4  N3  UNL     1      50.030  38.076  29.693  1.00  0.00    -0.170 N 
ATOM      5  H3  UNL     1      49.879  38.506  30.606  1.00  0.00     0.186 HD
HETATM    6  C3  UNL     1      49.093  37.287  29.140  1.00  0.00     0.185 A 
HETATM    7  C4  UNL     1      49.344  36.737  27.917  1.00  0.00     0.306 A 
HETATM    8  O1  UNL     1      48.439  35.992  27.414  1.00  0.00    -0.262 OA
HETATM    9  N5  UNL     1      50.500  36.974  27.273  1.00  0.00    -0.243 N 
HETATM   10  C5  UNL     1      50.757  36.388  25.979  1.00  0.00     0.182 C 
ENDROOT
BRANCH   3  11
HETATM   11  N2  UNL     1      52.070  39.045  29.550  1.00  0.00    -0.233 N 
ATOM     12  H22 UNL     1      51.808  39.557  30.392  1.00  0.00     0.174 HD
ATOM     13  H21 UNL     1      52.995  39.109  29.125  1.00  0.00     0.174 HD
ENDBRANCH   3  11
BRANCH   6  14
HETATM   14  N4  UNL     1      47.969  37.042  29.740  1.00  0.00    -0.380 N 
ATOM     15  H42 UNL     1      47.450  36.194  29.515  1.00  0.00     0.157 HD
ATOM     16  H41 UNL     1      47.585  37.680  30.437  1.00  0.00     0.157 HD
ENDBRANCH   6  14
TORSDOF 2
ENDMDL
MODEL 5
REMARK VINA RESULT: -4.711723868      1.048      1.054
REMARK  2 active torsions:
REMARK  status: ('A' for Active; 'I' for Inactive)
REMARK    1  A    between atoms: C2_3  and  N2_4 
REMARK    2  A    between atoms: C3_9  and  N4_10 
ROOT
HETATM    1  C1  UNL     1      49.106  37.320  31.356  1.00  0.00     0.198 C 
HETATM    2  N1  UNL     1      49.858  37.832  30.220  1.00  0.00    -0.124 N 
HETATM    3  C2  UNL     1      51.018  38.454  30.429  1.00  0.00     0.694 A 
HETATM    4  N3  UNL     1      51.778  38.959  29.425  1.00  0.00    -0.170 N 
ATOM      5  H3  UNL     1      52.661  39.428  29.625  1.00  0.00     0.186 HD
HETATM    6  C3  UNL     1      51.340  38.826  28.161  1.00  0.00     0.185 A 
HETATM    7  C4  UNL     1      50.152  38.190  27.947  1.00  0.00     0.306 A 
HETATM    8  O1  UNL     1      49.759  38.076  26.740  1.00  0.00    -0.262 OA
HETATM    9  N5  UNL     1      49.430  37.704  28.972  1.00  0.00    -0.243 N 
HETATM   10  C5  UNL     1      48.175  37.031  28.737  1.00  0.00     0.182 C 
ENDROOT
BRANCH   3  11
HETATM   11  N2  UNL     1      51.449  38.589  31.633  1.00  0.00    -0.233 N 
ATOM     12  H22 UNL     1      50.827  39.023  32.315  1.00  0.00     0.174 HD
ATOM     13  H21 UNL     1      52.387  38.263  31.864  1.00  0.00     0.174 HD
ENDBRANCH   3  11
BRANCH   6  14
HETATM   14  N4  UNL     1      52.016  39.285  27.154  1.00  0.00    -0.380 N 
ATOM     15  H42 UNL     1      52.970  38.962  26.995  1.00  0.00     0.157 HD
ATOM     16  H41 UNL     1      51.619  39.967  26.509  1.00  0.00     0.157 HD
ENDBRANCH   6  14
TORSDOF 2
ENDMDL
