MODEL 1
REMARK VINA RESULT: -5.277074770      0.000      0.000
REMARK  3 active torsions:
REMARK  status: ('A' for Active; 'I' for Inactive)
REMARK    1  A    between atoms: C1_2  and  N2_4 
REMARK    2  A    between atoms: N2_4  and  C2_6 
REMARK    3  A    between atoms: N6_11  and  N7_12 
ROOT
HETATM    1  C2  UNL     1      51.174  37.591  26.762  1.00  0.00     0.731 A 
HETATM    2  N3  UNL     1      50.565  36.478  27.206  1.00  0.00    -0.115 N 
ATOM      3  H3  UNL     1      50.537  36.157  28.174  1.00  0.00     0.203 HD
HETATM    4  N4  UNL     1      50.002  35.862  26.156  1.00  0.00     0.008 NA
HETATM    5  N5  UNL     1      50.268  36.596  25.087  1.00  0.00     0.030 NA
HETATM    6  N6  UNL     1      50.982  37.658  25.429  1.00  0.00    -0.012 N 
ENDROOT
BRANCH   1   7
HETATM    7  N2  UNL     1      51.813  38.409  27.526  1.00  0.00    -0.165 N 
ATOM      8  H2  UNL     1      52.772  38.644  27.271  1.00  0.00     0.186 HD
BRANCH   7   9
HETATM    9  C1  UNL     1      51.279  39.000  28.690  1.00  0.00     0.199 C 
HETATM   10  N1  UNL     1      50.020  39.666  28.681  1.00  0.00    -0.069 NA
HETATM   11  S1  UNL     1      52.145  38.906  30.072  1.00  0.00    -0.044 SA
ENDBRANCH   7   9
ENDBRANCH   1   7
BRANCH   6  12
HETATM   12  N7  UNL     1      51.445  38.654  24.565  1.00  0.00    -0.311 N 
ATOM     13  H72 UNL     1      52.226  39.286  24.739  1.00  0.00     0.179 HD
ATOM     14  H71 UNL     1      51.071  38.889  23.646  1.00  0.00     0.179 HD
ENDBRANCH   6  12
TORSDOF 3
ENDMDL
MODEL 2
REMARK VINA RESULT: -4.998338031      1.033      1.854
REMARK  3 active torsions:
REMARK  status: ('A' for Active; 'I' for Inactive)
REMARK    1  A    between atoms: C1_2  and  N2_4 
REMARK    2  A    between atoms: N2_4  and  C2_6 
REMARK    3  A    between atoms: N6_11  and  N7_12 
ROOT
HETATM    1  C2  UNL     1      51.626  38.470  26.539  1.00  0.00     0.731 A 
HETATM    2  N3  UNL     1      50.938  39.027  25.528  1.00  0.00    -0.115 N 
ATOM      3  H3  UNL     1      50.677  40.010  25.451  1.00  0.00     0.203 HD
HETATM    4  N4  UNL     1      50.657  38.066  24.636  1.00  0.00     0.008 NA
HETATM    5  N5  UNL     1      51.168  36.938  25.104  1.00  0.00     0.030 NA
HETATM    6  N6  UNL     1      51.766  37.157  26.266  1.00  0.00    -0.012 N 
ENDROOT
BRANCH   1   7
HETATM    7  N2  UNL     1      52.047  39.129  27.564  1.00  0.00    -0.165 N 
ATOM      8  H2  UNL     1      52.947  39.603  27.485  1.00  0.00     0.186 HD
BRANCH   7   9
HETATM    9  C1  UNL     1      51.353  39.240  28.786  1.00  0.00     0.199 C 
HETATM   10  N1  UNL     1      49.985  39.636  28.836  1.00  0.00    -0.069 NA
HETATM   11  S1  UNL     1      52.156  38.902  30.167  1.00  0.00    -0.044 SA
ENDBRANCH   7   9
ENDBRANCH   1   7
BRANCH   6  12
HETATM   12  N7  UNL     1      52.416  36.203  27.052  1.00  0.00    -0.311 N 
ATOM     13  H72 UNL     1      53.415  36.169  27.255  1.00  0.00     0.179 HD
ATOM     14  H71 UNL     1      51.988  35.410  27.531  1.00  0.00     0.179 HD
ENDBRANCH   6  12
TORSDOF 3
ENDMDL
MODEL 3
REMARK VINA RESULT: -4.954022319      1.087      1.254
REMARK  3 active torsions:
REMARK  status: ('A' for Active; 'I' for Inactive)
REMARK    1  A    between atoms: C1_2  and  N2_4 
REMARK    2  A    between atoms: N2_4  and  C2_6 
REMARK    3  A    between atoms: N6_11  and  N7_12 
ROOT
HETATM    1  C2  UNL     1      50.293  37.807  26.882  1.00  0.00     0.731 A 
HETATM    2  N3  UNL     1      49.705  36.655  27.249  1.00  0.00    -0.115 N 
ATOM      3  H3  UNL     1      49.279  36.463  28.156  1.00  0.00     0.203 HD
HETATM    4  N4  UNL     1      49.775  35.804  26.215  1.00  0.00     0.008 NA
HETATM    5  N5  UNL     1      50.400  36.434  25.233  1.00  0.00     0.030 NA
HETATM    6  N6  UNL     1      50.727  37.660  25.615  1.00  0.00    -0.012 N 
ENDROOT
BRANCH   1   7
HETATM    7  N2  UNL     1      50.393  38.834  27.654  1.00  0.00    -0.165 N 
ATOM      8  H2  UNL     1      50.037  39.725  27.307  1.00  0.00     0.186 HD
BRANCH   7   9
HETATM    9  C1  UNL     1      50.962  38.814  28.945  1.00  0.00     0.199 C 
HETATM   10  N1  UNL     1      52.370  38.740  29.140  1.00  0.00    -0.069 NA
HETATM   11  S1  UNL     1      49.960  38.879  30.233  1.00  0.00    -0.044 SA
ENDBRANCH   7   9
ENDBRANCH   1   7
BRANCH   6  12
HETATM   12  N7  UNL     1      51.395  38.613  24.842  1.00  0.00    -0.311 N 
ATOM     13  H72 UNL     1      52.148  39.224  25.159  1.00  0.00     0.179 HD
ATOM     14  H71 UNL     1      51.228  38.832  23.860  1.00  0.00     0.179 HD
ENDBRANCH   6  12
TORSDOF 3
ENDMDL
MODEL 4
REMARK VINA RESULT: -4.893619394      1.541      2.214
REMARK  3 active torsions:
REMARK  status: ('A' for Active; 'I' for Inactive)
REMARK    1  A    between atoms: C1_2  and  N2_4 
REMARK    2  A    between atoms: N2_4  and  C2_6 
REMARK    3  A    between atoms: N6_11  and  N7_12 
ROOT
HETATM    1  C2  UNL     1      51.609  38.595  26.623  1.00  0.00     0.731 A 
HETATM    2  N3  UNL     1      50.912  39.141  25.612  1.00  0.00    -0.115 N 
ATOM      3  H3  UNL     1      50.620  40.116  25.545  1.00  0.00     0.203 HD
HETATM    4  N4  UNL     1      50.669  38.181  24.707  1.00  0.00     0.008 NA
HETATM    5  N5  UNL     1      51.213  37.066  25.167  1.00  0.00     0.030 NA
HETATM    6  N6  UNL     1      51.794  37.291  26.337  1.00  0.00    -0.012 N 
ENDROOT
BRANCH   1   7
HETATM    7  N2  UNL     1      52.001  39.255  27.659  1.00  0.00    -0.165 N 
ATOM      8  H2  UNL     1      52.733  39.953  27.526  1.00  0.00     0.186 HD
BRANCH   7   9
HETATM    9  C1  UNL     1      51.490  39.081  28.961  1.00  0.00     0.199 C 
HETATM   10  N1  UNL     1      52.332  39.134  30.108  1.00  0.00    -0.069 NA
HETATM   11  S1  UNL     1      49.888  38.812  29.135  1.00  0.00    -0.044 SA
ENDBRANCH   7   9
ENDBRANCH   1   7
BRANCH   6  12
HETATM   12  N7  UNL     1      52.469  36.348  27.117  1.00  0.00    -0.311 N 
ATOM     13  H72 UNL     1      52.323  36.176  28.112  1.00  0.00     0.179 HD
ATOM     14  H71 UNL     1      53.196  35.704  26.807  1.00  0.00     0.179 HD
ENDBRANCH   6  12
TORSDOF 3
ENDMDL
MODEL 5
REMARK VINA RESULT: -4.885892741      1.882      2.938
REMARK  3 active torsions:
REMARK  status: ('A' for Active; 'I' for Inactive)
REMARK    1  A    between atoms: C1_2  and  N2_4 
REMARK    2  A    between atoms: N2_4  and  C2_6 
REMARK    3  A    between atoms: N6_11  and  N7_12 
ROOT
HETATM    1  C2  UNL     1      49.352  37.441  28.074  1.00  0.00     0.731 A 
HETATM    2  N3  UNL     1      50.010  36.895  27.038  1.00  0.00    -0.115 N 
ATOM      3  H3  UNL     1      50.855  37.267  26.602  1.00  0.00     0.203 HD
HETATM    4  N4  UNL     1      49.365  35.776  26.676  1.00  0.00     0.008 NA
HETATM    5  N5  UNL     1      48.326  35.648  27.485  1.00  0.00     0.030 NA
HETATM    6  N6  UNL     1      48.294  36.652  28.350  1.00  0.00    -0.012 N 
ENDROOT
BRANCH   1   7
HETATM    7  N2  UNL     1      49.717  38.531  28.658  1.00  0.00    -0.165 N 
ATOM      8  H2  UNL     1      48.993  39.100  29.096  1.00  0.00     0.186 HD
BRANCH   7   9
HETATM    9  C1  UNL     1      51.048  38.992  28.733  1.00  0.00     0.199 C 
HETATM   10  N1  UNL     1      51.705  39.565  27.607  1.00  0.00    -0.069 NA
HETATM   11  S1  UNL     1      51.836  38.856  30.157  1.00  0.00    -0.044 SA
ENDBRANCH   7   9
ENDBRANCH   1   7
BRANCH   6  12
HETATM   12  N7  UNL     1      47.342  36.847  29.353  1.00  0.00    -0.311 N 
ATOM     13  H72 UNL     1      46.413  37.249  29.231  1.00  0.00     0.179 HD
ATOM     14  H71 UNL     1      47.439  36.616  30.342  1.00  0.00     0.179 HD
ENDBRANCH   6  12
TORSDOF 3
ENDMDL
