MODEL 1
REMARK VINA RESULT: -5.271456705      0.000      0.000
REMARK  3 active torsions:
REMARK  status: ('A' for Active; 'I' for Inactive)
REMARK    1  A    between atoms: N1_2  and  N2_3 
REMARK    2  A    between atoms: N1_2  and  C2_6 
REMARK    3  A    between atoms: C3_9  and  N4_10 
ROOT
HETATM    1  C2  UNL     1      50.751  37.801  27.307  1.00  0.00     0.716 A 
HETATM    2  N3  UNL     1      51.678  38.272  28.159  1.00  0.00    -0.021 N 
ATOM      3  H3  UNL     1      52.596  38.523  27.791  1.00  0.00     0.203 HD
HETATM    4  C3  UNL     1      51.449  38.427  29.471  1.00  0.00     0.694 A 
HETATM    5  N5  UNL     1      50.254  38.108  29.991  1.00  0.00    -0.141 N 
ATOM      6  H5  UNL     1      50.068  38.221  30.987  1.00  0.00     0.189 HD
HETATM    7  C4  UNL     1      49.306  37.634  29.159  1.00  0.00     0.352 A 
HETATM    8  O1  UNL     1      48.189  37.342  29.664  1.00  0.00    -0.246 OA
HETATM    9  N6  UNL     1      49.567  37.492  27.859  1.00  0.00    -0.139 N 
ATOM     10  H6  UNL     1      48.830  37.131  27.254  1.00  0.00     0.189 HD
ENDROOT
BRANCH   1  11
HETATM   11  N1  UNL     1      50.970  37.619  25.924  1.00  0.00    -0.134 N 
HETATM   12  C1  UNL     1      50.744  36.263  25.398  1.00  0.00     0.197 C 
BRANCH  11  13
HETATM   13  N2  UNL     1      51.363  38.564  25.001  1.00  0.00    -0.329 N 
ATOM     14  H22 UNL     1      52.217  38.576  24.445  1.00  0.00     0.177 HD
ATOM     15  H21 UNL     1      50.723  39.347  24.865  1.00  0.00     0.177 HD
ENDBRANCH  11  13
ENDBRANCH   1  11
BRANCH   4  16
HETATM   16  N4  UNL     1      52.376  38.875  30.271  1.00  0.00    -0.234 N 
ATOM     17  H42 UNL     1      52.561  39.878  30.288  1.00  0.00     0.174 HD
ATOM     18  H41 UNL     1      52.904  38.245  30.874  1.00  0.00     0.174 HD
ENDBRANCH   4  16
TORSDOF 3
ENDMDL
MODEL 2
REMARK VINA RESULT: -5.062863587      1.589      3.825
REMARK  3 active torsions:
REMARK  status: ('A' for Active; 'I' for Inactive)
REMARK    1  A    between atoms: N1_2  and  N2_3 
REMARK    2  A    between atoms: N1_2  and  C2_6 
REMARK    3  A    between atoms: C3_9  and  N4_10 
ROOT
HETATM    1  C2  UNL     1      50.964  38.122  28.137  1.00  0.00     0.716 A 
HETATM    2  N3  UNL     1      51.413  38.680  26.998  1.00  0.00    -0.021 N 
ATOM      3  H3  UNL     1      51.976  39.528  27.060  1.00  0.00     0.203 HD
HETATM    4  C3  UNL     1      51.154  38.169  25.786  1.00  0.00     0.694 A 
HETATM    5  N5  UNL     1      50.417  37.054  25.666  1.00  0.00    -0.141 N 
ATOM      6  H5  UNL     1      50.213  36.656  24.749  1.00  0.00     0.189 HD
HETATM    7  C4  UNL     1      49.955  36.474  26.791  1.00  0.00     0.352 A 
HETATM    8  O1  UNL     1      49.268  35.426  26.658  1.00  0.00    -0.246 OA
HETATM    9  N6  UNL     1      50.231  37.008  27.980  1.00  0.00    -0.139 N 
ATOM     10  H6  UNL     1      49.868  36.548  28.815  1.00  0.00     0.189 HD
ENDROOT
BRANCH   1  11
HETATM   11  N1  UNL     1      51.214  38.645  29.424  1.00  0.00    -0.134 N 
HETATM   12  C1  UNL     1      50.035  39.041  30.210  1.00  0.00     0.197 C 
BRANCH  11  13
HETATM   13  N2  UNL     1      52.434  38.823  30.039  1.00  0.00    -0.329 N 
ATOM     14  H22 UNL     1      52.704  38.545  30.982  1.00  0.00     0.177 HD
ATOM     15  H21 UNL     1      53.148  39.295  29.483  1.00  0.00     0.177 HD
ENDBRANCH  11  13
ENDBRANCH   1  11
BRANCH   4  16
HETATM   16  N4  UNL     1      51.596  38.743  24.702  1.00  0.00    -0.234 N 
ATOM     17  H42 UNL     1      52.302  38.260  24.148  1.00  0.00     0.174 HD
ATOM     18  H41 UNL     1      51.242  39.652  24.403  1.00  0.00     0.174 HD
ENDBRANCH   4  16
TORSDOF 3
ENDMDL
MODEL 3
REMARK VINA RESULT: -5.062797037      1.519      2.363
REMARK  3 active torsions:
REMARK  status: ('A' for Active; 'I' for Inactive)
REMARK    1  A    between atoms: N1_2  and  N2_3 
REMARK    2  A    between atoms: N1_2  and  C2_6 
REMARK    3  A    between atoms: C3_9  and  N4_10 
ROOT
HETATM    1  C2  UNL     1      50.693  37.820  27.243  1.00  0.00     0.716 A 
HETATM    2  N3  UNL     1      49.559  37.438  27.857  1.00  0.00    -0.021 N 
ATOM      3  H3  UNL     1      48.835  36.980  27.303  1.00  0.00     0.203 HD
HETATM    4  C3  UNL     1      49.339  37.631  29.165  1.00  0.00     0.694 A 
HETATM    5  N5  UNL     1      50.269  38.229  29.926  1.00  0.00    -0.141 N 
ATOM      6  H5  UNL     1      50.112  38.382  30.922  1.00  0.00     0.189 HD
HETATM    7  C4  UNL     1      51.415  38.621  29.337  1.00  0.00     0.352 A 
HETATM    8  O1  UNL     1      52.278  39.178  30.068  1.00  0.00    -0.246 OA
HETATM    9  N6  UNL     1      51.602  38.414  28.033  1.00  0.00    -0.139 N 
ATOM     10  H6  UNL     1      52.479  38.722  27.615  1.00  0.00     0.189 HD
ENDROOT
BRANCH   1  11
HETATM   11  N1  UNL     1      50.946  37.637  25.866  1.00  0.00    -0.134 N 
HETATM   12  C1  UNL     1      50.738  36.280  25.338  1.00  0.00     0.197 C 
BRANCH  11  13
HETATM   13  N2  UNL     1      51.358  38.582  24.952  1.00  0.00    -0.329 N 
ATOM     14  H22 UNL     1      52.163  38.537  24.327  1.00  0.00     0.177 HD
ATOM     15  H21 UNL     1      50.793  39.430  24.902  1.00  0.00     0.177 HD
ENDBRANCH  11  13
ENDBRANCH   1  11
BRANCH   4  16
HETATM   16  N4  UNL     1      48.222  37.258  29.725  1.00  0.00    -0.234 N 
ATOM     17  H42 UNL     1      47.421  37.056  29.126  1.00  0.00     0.174 HD
ATOM     18  H41 UNL     1      48.145  37.160  30.736  1.00  0.00     0.174 HD
ENDBRANCH   4  16
TORSDOF 3
ENDMDL
MODEL 4
REMARK VINA RESULT: -4.775422213      0.873      1.069
REMARK  3 active torsions:
REMARK  status: ('A' for Active; 'I' for Inactive)
REMARK    1  A    between atoms: N1_2  and  N2_3 
REMARK    2  A    between atoms: N1_2  and  C2_6 
REMARK    3  A    between atoms: C3_9  and  N4_10 
ROOT
HETATM    1  C2  UNL     1      50.730  37.458  27.475  1.00  0.00     0.716 A 
HETATM    2  N3  UNL     1      51.664  37.999  28.278  1.00  0.00    -0.021 N 
ATOM      3  H3  UNL     1      52.588  38.191  27.891  1.00  0.00     0.203 HD
HETATM    4  C3  UNL     1      51.433  38.299  29.564  1.00  0.00     0.694 A 
HETATM    5  N5  UNL     1      50.229  38.062  30.108  1.00  0.00    -0.141 N 
ATOM      6  H5  UNL     1      50.042  38.285  31.085  1.00  0.00     0.189 HD
HETATM    7  C4  UNL     1      49.275  37.522  29.326  1.00  0.00     0.352 A 
HETATM    8  O1  UNL     1      48.150  37.309  29.853  1.00  0.00    -0.246 OA
HETATM    9  N6  UNL     1      49.538  37.235  28.050  1.00  0.00    -0.139 N 
ATOM     10  H6  UNL     1      48.796  36.826  27.483  1.00  0.00     0.189 HD
ENDROOT
BRANCH   1  11
HETATM   11  N1  UNL     1      50.950  37.125  26.121  1.00  0.00    -0.134 N 
HETATM   12  C1  UNL     1      51.107  38.251  25.187  1.00  0.00     0.197 C 
BRANCH  11  13
HETATM   13  N2  UNL     1      51.044  35.866  25.567  1.00  0.00    -0.329 N 
ATOM     14  H22 UNL     1      51.863  35.260  25.531  1.00  0.00     0.177 HD
ATOM     15  H21 UNL     1      50.193  35.504  25.138  1.00  0.00     0.177 HD
ENDBRANCH  11  13
ENDBRANCH   1  11
BRANCH   4  16
HETATM   16  N4  UNL     1      52.366  38.811  30.316  1.00  0.00    -0.234 N 
ATOM     17  H42 UNL     1      53.084  39.388  29.878  1.00  0.00     0.174 HD
ATOM     18  H41 UNL     1      52.381  38.652  31.323  1.00  0.00     0.174 HD
ENDBRANCH   4  16
TORSDOF 3
ENDMDL
MODEL 5
REMARK VINA RESULT: -4.762082438      1.139      1.144
REMARK  3 active torsions:
REMARK  status: ('A' for Active; 'I' for Inactive)
REMARK    1  A    between atoms: N1_2  and  N2_3 
REMARK    2  A    between atoms: N1_2  and  C2_6 
REMARK    3  A    between atoms: C3_9  and  N4_10 
ROOT
HETATM    1  C2  UNL     1      50.861  37.551  28.124  1.00  0.00     0.716 A 
HETATM    2  N3  UNL     1      51.436  37.936  29.277  1.00  0.00    -0.021 N 
ATOM      3  H3  UNL     1      52.427  38.176  29.272  1.00  0.00     0.203 HD
HETATM    4  C3  UNL     1      50.763  38.018  30.434  1.00  0.00     0.694 A 
HETATM    5  N5  UNL     1      49.457  37.711  30.480  1.00  0.00    -0.141 N 
ATOM      6  H5  UNL     1      48.935  37.769  31.354  1.00  0.00     0.189 HD
HETATM    7  C4  UNL     1      48.856  37.323  29.338  1.00  0.00     0.352 A 
HETATM    8  O1  UNL     1      47.629  37.041  29.400  1.00  0.00    -0.246 OA
HETATM    9  N6  UNL     1      49.554  37.251  28.205  1.00  0.00    -0.139 N 
ATOM     10  H6  UNL     1      49.073  36.954  27.357  1.00  0.00     0.189 HD
ENDROOT
BRANCH   1  11
HETATM   11  N1  UNL     1      51.548  37.446  26.896  1.00  0.00    -0.134 N 
HETATM   12  C1  UNL     1      51.014  36.476  25.927  1.00  0.00     0.197 C 
BRANCH  11  13
HETATM   13  N2  UNL     1      52.660  38.152  26.489  1.00  0.00    -0.329 N 
ATOM     14  H22 UNL     1      53.270  37.954  25.696  1.00  0.00     0.177 HD
ATOM     15  H21 UNL     1      52.902  38.966  27.055  1.00  0.00     0.177 HD
ENDBRANCH  11  13
ENDBRANCH   1  11
BRANCH   4  16
HETATM   16  N4  UNL     1      51.355  38.383  31.536  1.00  0.00    -0.234 N 
ATOM     17  H42 UNL     1      51.275  39.356  31.833  1.00  0.00     0.174 HD
ATOM     18  H41 UNL     1      51.882  37.716  32.099  1.00  0.00     0.174 HD
ENDBRANCH   4  16
TORSDOF 3
ENDMDL
