MODEL 1
REMARK VINA RESULT: -5.669695915      0.000      0.000
REMARK  1 active torsions:
REMARK  status: ('A' for Active; 'I' for Inactive)
REMARK    1  A    between atoms: N1_1  and  C1_4 
ROOT
HETATM    1  C1  UNL     1      50.939  36.906  26.340  1.00  0.00     0.172 C 
HETATM    2  N2  UNL     1      50.846  36.591  27.645  1.00  0.00    -0.302 N 
ATOM      3  H2  UNL     1      50.470  35.665  27.850  1.00  0.00     0.171 HD
HETATM    4  C2  UNL     1      51.188  37.345  28.730  1.00  0.00     0.289 C 
HETATM    5  O1  UNL     1      50.941  36.807  29.838  1.00  0.00    -0.264 OA
HETATM    6  C3  UNL     1      51.758  38.594  28.807  1.00  0.00     0.199 C 
HETATM    7  N3  UNL     1      52.185  39.035  30.099  1.00  0.00    -0.075 NA
HETATM    8  N4  UNL     1      51.952  39.434  27.789  1.00  0.00    -0.280 N 
ATOM      9  H4  UNL     1      52.324  40.349  28.041  1.00  0.00     0.188 HD
HETATM   10  N5  UNL     1      51.725  39.242  26.480  1.00  0.00    -0.262 N 
ATOM     11  H5  UNL     1      51.853  40.065  25.890  1.00  0.00     0.190 HD
HETATM   12  C4  UNL     1      51.352  38.118  25.827  1.00  0.00     0.303 C 
HETATM   13  O2  UNL     1      51.373  38.141  24.571  1.00  0.00    -0.263 OA
ENDROOT
BRANCH   1  14
HETATM   14  N1  UNL     1      50.607  35.987  25.466  1.00  0.00    -0.381 N 
ATOM     15  H12 UNL     1      51.309  35.275  25.269  1.00  0.00     0.157 HD
ATOM     16  H11 UNL     1      49.679  36.046  25.046  1.00  0.00     0.157 HD
ENDBRANCH   1  14
TORSDOF 1
ENDMDL
MODEL 2
REMARK VINA RESULT: -5.344441987      1.633      3.622
REMARK  1 active torsions:
REMARK  status: ('A' for Active; 'I' for Inactive)
REMARK    1  A    between atoms: N1_1  and  C1_4 
ROOT
HETATM    1  C1  UNL     1      50.634  37.659  29.260  1.00  0.00     0.172 C 
HETATM    2  N2  UNL     1      50.122  37.010  28.198  1.00  0.00    -0.302 N 
ATOM      3  H2  UNL     1      49.400  36.320  28.407  1.00  0.00     0.171 HD
HETATM    4  C2  UNL     1      50.440  37.152  26.879  1.00  0.00     0.289 C 
HETATM    5  O1  UNL     1      49.831  36.369  26.108  1.00  0.00    -0.264 OA
HETATM    6  C3  UNL     1      51.318  38.010  26.258  1.00  0.00     0.199 C 
HETATM    7  N3  UNL     1      51.280  38.056  24.828  1.00  0.00    -0.075 NA
HETATM    8  N4  UNL     1      52.200  38.805  26.863  1.00  0.00    -0.280 N 
ATOM      9  H4  UNL     1      52.822  39.323  26.242  1.00  0.00     0.188 HD
HETATM   10  N5  UNL     1      52.386  39.018  28.176  1.00  0.00    -0.262 N 
ATOM     11  H5  UNL     1      53.193  39.596  28.414  1.00  0.00     0.190 HD
HETATM   12  C4  UNL     1      51.660  38.580  29.229  1.00  0.00     0.303 C 
HETATM   13  O2  UNL     1      51.929  39.058  30.359  1.00  0.00    -0.263 OA
ENDROOT
BRANCH   1  14
HETATM   14  N1  UNL     1      50.121  37.399  30.438  1.00  0.00    -0.381 N 
ATOM     15  H12 UNL     1      50.311  36.473  30.820  1.00  0.00     0.157 HD
ATOM     16  H11 UNL     1      49.572  38.131  30.888  1.00  0.00     0.157 HD
ENDBRANCH   1  14
TORSDOF 1
ENDMDL
MODEL 3
REMARK VINA RESULT: -5.336213397      2.460      3.233
REMARK  1 active torsions:
REMARK  status: ('A' for Active; 'I' for Inactive)
REMARK    1  A    between atoms: N1_1  and  C1_4 
ROOT
HETATM    1  C1  UNL     1      51.436  37.959  26.865  1.00  0.00     0.172 C 
HETATM    2  N2  UNL     1      50.721  36.867  26.540  1.00  0.00    -0.302 N 
ATOM      3  H2  UNL     1      51.091  36.308  25.770  1.00  0.00     0.171 HD
HETATM    4  C2  UNL     1      49.566  36.407  27.102  1.00  0.00     0.289 C 
HETATM    5  O1  UNL     1      49.090  35.381  26.553  1.00  0.00    -0.264 OA
HETATM    6  C3  UNL     1      48.839  36.882  28.169  1.00  0.00     0.199 C 
HETATM    7  N3  UNL     1      47.773  36.056  28.648  1.00  0.00    -0.075 NA
HETATM    8  N4  UNL     1      49.035  38.040  28.799  1.00  0.00    -0.280 N 
ATOM      9  H4  UNL     1      48.355  38.265  29.525  1.00  0.00     0.188 HD
HETATM   10  N5  UNL     1      50.003  38.952  28.611  1.00  0.00    -0.262 N 
ATOM     11  H5  UNL     1      49.896  39.816  29.143  1.00  0.00     0.190 HD
HETATM   12  C4  UNL     1      51.098  38.894  27.821  1.00  0.00     0.303 C 
HETATM   13  O2  UNL     1      51.954  39.804  27.946  1.00  0.00    -0.263 OA
ENDROOT
BRANCH   1  14
HETATM   14  N1  UNL     1      52.559  38.165  26.220  1.00  0.00    -0.381 N 
ATOM     15  H12 UNL     1      53.371  37.644  26.547  1.00  0.00     0.157 HD
ATOM     16  H11 UNL     1      52.544  38.827  25.444  1.00  0.00     0.157 HD
ENDBRANCH   1  14
TORSDOF 1
ENDMDL
MODEL 4
REMARK VINA RESULT: -5.296641229      2.067      3.556
REMARK  1 active torsions:
REMARK  status: ('A' for Active; 'I' for Inactive)
REMARK    1  A    between atoms: N1_1  and  C1_4 
ROOT
HETATM    1  C1  UNL     1      50.497  38.628  28.335  1.00  0.00     0.172 C 
HETATM    2  N2  UNL     1      49.671  37.583  28.142  1.00  0.00    -0.302 N 
ATOM      3  H2  UNL     1      48.959  37.445  28.859  1.00  0.00     0.171 HD
HETATM    4  C2  UNL     1      49.660  36.684  27.116  1.00  0.00     0.289 C 
HETATM    5  O1  UNL     1      48.800  35.775  27.228  1.00  0.00    -0.264 OA
HETATM    6  C3  UNL     1      50.436  36.611  25.982  1.00  0.00     0.199 C 
HETATM    7  N3  UNL     1      50.044  35.660  24.988  1.00  0.00    -0.075 NA
HETATM    8  N4  UNL     1      51.518  37.344  25.722  1.00  0.00    -0.280 N 
ATOM      9  H4  UNL     1      52.013  37.106  24.863  1.00  0.00     0.188 HD
HETATM   10  N5  UNL     1      52.048  38.352  26.435  1.00  0.00    -0.262 N 
ATOM     11  H5  UNL     1      52.943  38.703  26.093  1.00  0.00     0.190 HD
HETATM   12  C4  UNL     1      51.570  38.970  27.538  1.00  0.00     0.303 C 
HETATM   13  O2  UNL     1      52.161  40.008  27.925  1.00  0.00    -0.263 OA
ENDROOT
BRANCH   1  14
HETATM   14  N1  UNL     1      50.272  39.399  29.371  1.00  0.00    -0.381 N 
ATOM     15  H12 UNL     1      49.303  39.478  29.675  1.00  0.00     0.157 HD
ATOM     16  H11 UNL     1      51.074  39.863  29.798  1.00  0.00     0.157 HD
ENDBRANCH   1  14
TORSDOF 1
ENDMDL
MODEL 5
REMARK VINA RESULT: -5.193809483      1.612      4.214
REMARK  1 active torsions:
REMARK  status: ('A' for Active; 'I' for Inactive)
REMARK    1  A    between atoms: N1_1  and  C1_4 
ROOT
HETATM    1  C1  UNL     1      51.564  38.577  29.465  1.00  0.00     0.172 C 
HETATM    2  N2  UNL     1      52.155  38.227  28.308  1.00  0.00    -0.302 N 
ATOM      3  H2  UNL     1      53.147  38.452  28.232  1.00  0.00     0.171 HD
HETATM    4  C2  UNL     1      51.604  37.610  27.222  1.00  0.00     0.289 C 
HETATM    5  O1  UNL     1      52.392  37.453  26.256  1.00  0.00    -0.264 OA
HETATM    6  C3  UNL     1      50.331  37.134  27.015  1.00  0.00     0.199 C 
HETATM    7  N3  UNL     1      50.114  36.349  25.839  1.00  0.00    -0.075 NA
HETATM    8  N4  UNL     1      49.278  37.334  27.809  1.00  0.00    -0.280 N 
ATOM      9  H4  UNL     1      48.392  36.966  27.463  1.00  0.00     0.188 HD
HETATM   10  N5  UNL     1      49.222  37.952  28.999  1.00  0.00    -0.262 N 
ATOM     11  H5  UNL     1      48.284  38.077  29.382  1.00  0.00     0.190 HD
HETATM   12  C4  UNL     1      50.226  38.434  29.767  1.00  0.00     0.303 C 
HETATM   13  O2  UNL     1      49.938  38.816  30.927  1.00  0.00    -0.263 OA
ENDROOT
BRANCH   1  14
HETATM   14  N1  UNL     1      52.318  39.106  30.398  1.00  0.00    -0.381 N 
ATOM     15  H12 UNL     1      52.994  39.805  30.092  1.00  0.00     0.157 HD
ATOM     16  H11 UNL     1      52.180  38.785  31.356  1.00  0.00     0.157 HD
ENDBRANCH   1  14
TORSDOF 1
ENDMDL
