MODEL 1
REMARK VINA RESULT: -5.512416962      0.000      0.000
REMARK  2 active torsions:
REMARK  status: ('A' for Active; 'I' for Inactive)
REMARK    1  A    between atoms: N1_1  and  C1_4 
REMARK    2  A    between atoms: N6_14  and  O1_15 
ROOT
HETATM    1  C1  UNL     1      51.660  38.324  27.468  1.00  0.00     0.134 A 
HETATM    2  N2  UNL     1      51.651  39.279  28.438  1.00  0.00    -0.337 N 
ATOM      3  H2  UNL     1      52.413  39.950  28.541  1.00  0.00     0.168 HD
HETATM    4  C2  UNL     1      50.583  39.288  29.250  1.00  0.00     0.183 A 
HETATM    5  N3  UNL     1      49.569  38.413  29.131  1.00  0.00    -0.336 N 
ATOM      6  H3  UNL     1      48.784  38.469  29.780  1.00  0.00     0.168 HD
HETATM    7  C3  UNL     1      49.570  37.468  28.178  1.00  0.00     0.154 A 
HETATM    8  N4  UNL     1      48.733  36.477  27.810  1.00  0.00    -0.265 N 
ATOM      9  H4  UNL     1      47.845  36.269  28.268  1.00  0.00     0.186 HD
HETATM   10  N5  UNL     1      49.216  35.812  26.776  1.00  0.00     0.008 NA
HETATM   11  N6  UNL     1      50.370  36.390  26.491  1.00  0.00    -0.140 N 
HETATM   12  C4  UNL     1      50.642  37.411  27.314  1.00  0.00     0.167 A 
ENDROOT
BRANCH   1  13
HETATM   13  N1  UNL     1      52.660  38.304  26.697  1.00  0.00    -0.383 N 
ATOM     14  H12 UNL     1      53.606  38.364  27.074  1.00  0.00     0.157 HD
ATOM     15  H11 UNL     1      52.469  38.227  25.698  1.00  0.00     0.157 HD
ENDBRANCH   1  13
BRANCH  11  16
HETATM   16  O1  UNL     1      51.174  35.972  25.466  1.00  0.00    -0.269 OA
ATOM     17  H1  UNL     1      51.141  36.356  24.597  1.00  0.00     0.246 HD
ENDBRANCH  11  16
TORSDOF 2
ENDMDL
MODEL 2
REMARK VINA RESULT: -5.400199708      0.801      2.623
REMARK  2 active torsions:
REMARK  status: ('A' for Active; 'I' for Inactive)
REMARK    1  A    between atoms: N1_1  and  C1_4 
REMARK    2  A    between atoms: N6_14  and  O1_15 
ROOT
HETATM    1  C1  UNL     1      49.464  37.528  28.360  1.00  0.00     0.134 A 
HETATM    2  N2  UNL     1      49.516  38.282  29.492  1.00  0.00    -0.337 N 
ATOM      3  H2  UNL     1      48.798  38.222  30.213  1.00  0.00     0.168 HD
HETATM    4  C2  UNL     1      50.567  39.110  29.602  1.00  0.00     0.183 A 
HETATM    5  N3  UNL     1      51.523  39.205  28.662  1.00  0.00    -0.336 N 
ATOM      6  H3  UNL     1      52.298  39.854  28.802  1.00  0.00     0.168 HD
HETATM    7  C3  UNL     1      51.479  38.465  27.544  1.00  0.00     0.154 A 
HETATM    8  N4  UNL     1      52.257  38.334  26.450  1.00  0.00    -0.265 N 
ATOM      9  H4  UNL     1      53.119  38.853  26.287  1.00  0.00     0.186 HD
HETATM   10  N5  UNL     1      51.751  37.441  25.617  1.00  0.00     0.008 NA
HETATM   11  N6  UNL     1      50.644  37.008  26.192  1.00  0.00    -0.140 N 
HETATM   12  C4  UNL     1      50.423  37.596  27.375  1.00  0.00     0.167 A 
ENDROOT
BRANCH   1  13
HETATM   13  N1  UNL     1      48.480  36.744  28.242  1.00  0.00    -0.383 N 
ATOM     14  H12 UNL     1      47.662  36.847  28.844  1.00  0.00     0.157 HD
ATOM     15  H11 UNL     1      48.551  36.021  27.528  1.00  0.00     0.157 HD
ENDBRANCH   1  13
BRANCH  11  16
HETATM   16  O1  UNL     1      49.834  36.063  25.622  1.00  0.00    -0.269 OA
ATOM     17  H1  UNL     1      49.036  35.753  26.035  1.00  0.00     0.246 HD
ENDBRANCH  11  16
TORSDOF 2
ENDMDL
MODEL 3
REMARK VINA RESULT: -5.390704279      1.337      2.554
REMARK  2 active torsions:
REMARK  status: ('A' for Active; 'I' for Inactive)
REMARK    1  A    between atoms: N1_1  and  C1_4 
REMARK    2  A    between atoms: N6_14  and  O1_15 
ROOT
HETATM    1  C1  UNL     1      50.263  38.149  28.304  1.00  0.00     0.134 A 
HETATM    2  N2  UNL     1      51.208  39.120  28.437  1.00  0.00    -0.337 N 
ATOM      3  H2  UNL     1      51.177  39.803  29.194  1.00  0.00     0.168 HD
HETATM    4  C2  UNL     1      52.183  39.125  27.514  1.00  0.00     0.183 A 
HETATM    5  N3  UNL     1      52.242  38.235  26.509  1.00  0.00    -0.336 N 
ATOM      6  H3  UNL     1      53.008  38.290  25.838  1.00  0.00     0.168 HD
HETATM    7  C3  UNL     1      51.315  37.274  26.372  1.00  0.00     0.154 A 
HETATM    8  N4  UNL     1      51.101  36.265  25.503  1.00  0.00    -0.265 N 
ATOM      9  H4  UNL     1      51.699  36.052  24.705  1.00  0.00     0.186 HD
HETATM   10  N5  UNL     1      50.011  35.591  25.824  1.00  0.00     0.008 NA
HETATM   11  N6  UNL     1      49.535  36.181  26.905  1.00  0.00    -0.140 N 
HETATM   12  C4  UNL     1      50.289  37.219  27.291  1.00  0.00     0.167 A 
ENDROOT
BRANCH   1  13
HETATM   13  N1  UNL     1      49.340  38.131  29.167  1.00  0.00    -0.383 N 
ATOM     14  H12 UNL     1      48.613  37.417  29.131  1.00  0.00     0.157 HD
ATOM     15  H11 UNL     1      49.365  38.858  29.882  1.00  0.00     0.157 HD
ENDBRANCH   1  13
BRANCH  11  16
HETATM   16  O1  UNL     1      48.398  35.759  27.540  1.00  0.00    -0.269 OA
ATOM     17  H1  UNL     1      47.593  36.265  27.544  1.00  0.00     0.246 HD
ENDBRANCH  11  16
TORSDOF 2
ENDMDL
MODEL 4
REMARK VINA RESULT: -5.221970683      1.219      1.914
REMARK  2 active torsions:
REMARK  status: ('A' for Active; 'I' for Inactive)
REMARK    1  A    between atoms: N1_1  and  C1_4 
REMARK    2  A    between atoms: N6_14  and  O1_15 
ROOT
HETATM    1  C1  UNL     1      51.177  37.396  26.478  1.00  0.00     0.134 A 
HETATM    2  N2  UNL     1      52.111  38.382  26.569  1.00  0.00    -0.337 N 
ATOM      3  H2  UNL     1      52.854  38.487  25.878  1.00  0.00     0.168 HD
HETATM    4  C2  UNL     1      51.998  39.207  27.621  1.00  0.00     0.183 A 
HETATM    5  N3  UNL     1      51.028  39.086  28.544  1.00  0.00    -0.336 N 
ATOM      6  H3  UNL     1      50.994  39.744  29.322  1.00  0.00     0.168 HD
HETATM    7  C3  UNL     1      50.103  38.117  28.461  1.00  0.00     0.154 A 
HETATM    8  N4  UNL     1      49.039  37.742  29.199  1.00  0.00    -0.265 N 
ATOM      9  H4  UNL     1      48.735  38.207  30.055  1.00  0.00     0.186 HD
HETATM   10  N5  UNL     1      48.443  36.691  28.665  1.00  0.00     0.008 NA
HETATM   11  N6  UNL     1      49.139  36.401  27.581  1.00  0.00    -0.140 N 
HETATM   12  C4  UNL     1      50.169  37.239  27.400  1.00  0.00     0.167 A 
ENDROOT
BRANCH   1  13
HETATM   13  N1  UNL     1      51.272  36.611  25.492  1.00  0.00    -0.383 N 
ATOM     14  H12 UNL     1      50.973  35.640  25.574  1.00  0.00     0.157 HD
ATOM     15  H11 UNL     1      51.655  37.000  24.631  1.00  0.00     0.157 HD
ENDBRANCH   1  13
BRANCH  11  16
HETATM   16  O1  UNL     1      48.822  35.358  26.753  1.00  0.00    -0.269 OA
ATOM     17  H1  UNL     1      49.132  35.301  25.857  1.00  0.00     0.246 HD
ENDBRANCH  11  16
TORSDOF 2
ENDMDL
MODEL 5
REMARK VINA RESULT: -5.030597349      1.661      2.638
REMARK  2 active torsions:
REMARK  status: ('A' for Active; 'I' for Inactive)
REMARK    1  A    between atoms: N1_1  and  C1_4 
REMARK    2  A    between atoms: N6_14  and  O1_15 
ROOT
HETATM    1  C1  UNL     1      50.663  38.625  28.520  1.00  0.00     0.134 A 
HETATM    2  N2  UNL     1      51.898  39.075  28.165  1.00  0.00    -0.337 N 
ATOM      3  H2  UNL     1      52.336  39.870  28.629  1.00  0.00     0.168 HD
HETATM    4  C2  UNL     1      52.504  38.411  27.168  1.00  0.00     0.183 A 
HETATM    5  N3  UNL     1      51.943  37.362  26.543  1.00  0.00    -0.336 N 
ATOM      6  H3  UNL     1      52.453  36.898  25.791  1.00  0.00     0.168 HD
HETATM    7  C3  UNL     1      50.727  36.912  26.887  1.00  0.00     0.154 A 
HETATM    8  N4  UNL     1      49.918  35.917  26.468  1.00  0.00    -0.265 N 
ATOM      9  H4  UNL     1      50.145  35.264  25.718  1.00  0.00     0.186 HD
HETATM   10  N5  UNL     1      48.792  35.903  27.160  1.00  0.00     0.008 NA
HETATM   11  N6  UNL     1      48.894  36.899  28.022  1.00  0.00    -0.140 N 
HETATM   12  C4  UNL     1      50.055  37.555  27.906  1.00  0.00     0.167 A 
ENDROOT
BRANCH   1  13
HETATM   13  N1  UNL     1      50.080  39.241  29.458  1.00  0.00    -0.383 N 
ATOM     14  H12 UNL     1      50.532  40.032  29.915  1.00  0.00     0.157 HD
ATOM     15  H11 UNL     1      49.154  38.906  29.721  1.00  0.00     0.157 HD
ENDBRANCH   1  13
BRANCH  11  16
HETATM   16  O1  UNL     1      47.908  37.202  28.922  1.00  0.00    -0.269 OA
ATOM     17  H1  UNL     1      47.606  38.090  29.074  1.00  0.00     0.246 HD
ENDBRANCH  11  16
TORSDOF 2
ENDMDL
