MODEL 1
REMARK VINA RESULT: -10.950704785      0.000      0.000
REMARK  10 active torsions:
REMARK  status: ('A' for Active; 'I' for Inactive)
REMARK    1  A    between atoms: C4_10  and  C5_11 
REMARK    2  A    between atoms: C7_15  and  N5_16 
REMARK    3  A    between atoms: N7_23  and  C9_24 
REMARK    4  A    between atoms: C9_24  and  C10_25 
REMARK       I    between atoms: C10_25  and  N8_27 
REMARK    5  A    between atoms: N8_27  and  C11_29 
REMARK    6  A    between atoms: C11_29  and  C12_30 
REMARK       I    between atoms: C12_30  and  N9_32 
REMARK    7  A    between atoms: N9_32  and  C13_34 
REMARK    8  A    between atoms: C15_37  and  N10_38 
REMARK    9  A    between atoms: C17_43  and  C18_44 
REMARK   10  A    between atoms: C20_48  and  O8_49 
ROOT
HETATM    1  C1  UNL     1      19.060  38.478  96.289  1.00  0.00     0.164 C 
HETATM    2  N1  UNL     1      18.995  39.559  97.267  1.00  0.00    -0.270 N 
HETATM    3  C2  UNL     1      19.467  40.779  96.890  1.00  0.00     0.330 A 
HETATM    4  O1  UNL     1      19.924  40.984  95.721  1.00  0.00    -0.246 OA
HETATM    5  N2  UNL     1      19.439  41.761  97.791  1.00  0.00    -0.293 N 
ATOM      6  H2  UNL     1      19.789  42.682  97.527  1.00  0.00     0.172 HD
HETATM    7  C3  UNL     1      18.960  41.575  99.046  1.00  0.00     0.132 A 
HETATM    8  N3  UNL     1      18.967  42.569  99.934  1.00  0.00    -0.326 N 
ATOM      9  H3  UNL     1      19.325  43.475  99.630  1.00  0.00     0.169 HD
HETATM   10  C4  UNL     1      18.527  42.459 101.228  1.00  0.00     0.129 A 
HETATM   11  N7  UNL     1      18.062  41.270 101.599  1.00  0.00    -0.289 N 
HETATM   12  C21 UNL     1      18.035  40.216 100.711  1.00  0.00     0.269 A 
HETATM   13  O9  UNL     1      17.580  39.086 101.082  1.00  0.00    -0.267 OA
HETATM   14  C22 UNL     1      18.475  40.347  99.442  1.00  0.00     0.144 A 
HETATM   15  C23 UNL     1      18.508  39.332  98.500  1.00  0.00     0.270 A 
HETATM   16  O10 UNL     1      18.070  38.197  98.830  1.00  0.00    -0.267 OA
ENDROOT
BRANCH  11  17
HETATM   17  C9  UNL     1      17.578  40.997 102.899  1.00  0.00     0.236 C 
BRANCH  17  18
HETATM   18  C10 UNL     1      18.508  40.118 103.659  1.00  0.00     0.236 C 
HETATM   19  O3  UNL     1      19.672  40.602 103.941  1.00  0.00    -0.272 OA
HETATM   20  N8  UNL     1      18.240  38.814 104.102  1.00  0.00    -0.351 N 
ATOM     21  H8  UNL     1      17.342  38.368 103.910  1.00  0.00     0.163 HD
BRANCH  20  22
HETATM   22  C11 UNL     1      19.275  38.118 104.839  1.00  0.00     0.225 C 
BRANCH  22  23
HETATM   23  C12 UNL     1      18.798  36.949 105.567  1.00  0.00     0.236 C 
HETATM   24  O4  UNL     1      18.769  35.848 104.884  1.00  0.00    -0.272 OA
HETATM   25  N9  UNL     1      18.379  36.858 106.893  1.00  0.00    -0.346 N 
ATOM     26  H9  UNL     1      18.393  37.690 107.482  1.00  0.00     0.163 HD
BRANCH  25  27
HETATM   27  C13 UNL     1      17.921  35.590 107.452  1.00  0.00     0.185 C 
HETATM   28  C14 UNL     1      18.352  35.554 108.883  1.00  0.00     0.175 C 
HETATM   29  O5  UNL     1      19.477  35.212 109.169  1.00  0.00    -0.293 OA
HETATM   30  C15 UNL     1      17.447  35.929 110.015  1.00  0.00     0.170 C 
HETATM   31  C17 UNL     1      16.007  35.659 109.726  1.00  0.00     0.119 C 
HETATM   32  C19 UNL     1      15.712  34.937 108.462  1.00  0.00     0.052 C 
HETATM   33  C20 UNL     1      16.472  35.365 107.252  1.00  0.00     0.149 C 
BRANCH  30  34
HETATM   34  N10 UNL     1      17.871  35.292 111.248  1.00  0.00    -0.354 N 
HETATM   35  C16 UNL     1      18.073  35.937 112.323  1.00  0.00     0.197 C 
HETATM   36  N11 UNL     1      17.896  37.341 112.398  1.00  0.00    -0.067 NA
HETATM   37  N12 UNL     1      18.487  35.244 113.489  1.00  0.00    -0.067 NA
ATOM     38  H10 UNL     1      18.013  34.281 111.251  1.00  0.00     0.162 HD
ENDBRANCH  30  34
BRANCH  31  39
HETATM   39  C18 UNL     1      15.237  36.932 109.858  1.00  0.00     0.179 C 
HETATM   40  O6  UNL     1      14.004  36.982 110.055  1.00  0.00    -0.648 OA
HETATM   41  O7  UNL     1      15.977  38.102 109.748  1.00  0.00    -0.648 OA
ENDBRANCH  31  39
BRANCH  33  42
HETATM   42  O8  UNL     1      16.343  34.321 106.305  1.00  0.00    -0.393 OA
ATOM     43  H8  UNL     1      15.877  34.680 105.559  1.00  0.00     0.210 HD
ENDBRANCH  33  42
ENDBRANCH  25  27
ENDBRANCH  22  23
ENDBRANCH  20  22
ENDBRANCH  17  18
ENDBRANCH  11  17
BRANCH  10  44
HETATM   44  C5  UNL     1      18.560  43.678 102.020  1.00  0.00     0.093 A 
HETATM   45  C6  UNL     1      17.492  44.582 101.891  1.00  0.00     0.127 A 
HETATM   46  N4  UNL     1      17.452  45.758 102.524  1.00  0.00    -0.201 N 
HETATM   47  C7  UNL     1      18.465  46.142 103.336  1.00  0.00     0.678 A 
ATOM     48  H4  UNL     1      16.649  46.374 102.394  1.00  0.00     0.183 HD
HETATM   49  N6  UNL     1      19.496  45.298 103.473  1.00  0.00    -0.156 N 
HETATM   50  C8  UNL     1      19.573  44.087 102.843  1.00  0.00     0.275 A 
ATOM     51  H6  UNL     1      20.267  45.573 104.081  1.00  0.00     0.187 HD
HETATM   52  O2  UNL     1      20.602  43.404 103.057  1.00  0.00    -0.267 OA
BRANCH  47  53
HETATM   53  N5  UNL     1      18.431  47.281 103.957  1.00  0.00    -0.234 N 
ATOM     54  H52 UNL     1      18.684  47.360 104.943  1.00  0.00     0.174 HD
ATOM     55  H51 UNL     1      18.149  48.135 103.477  1.00  0.00     0.174 HD
ENDBRANCH  47  53
ENDBRANCH  10  44
TORSDOF 10
ENDMDL
MODEL 2
REMARK VINA RESULT: -10.868985331      3.760     10.982
REMARK  10 active torsions:
REMARK  status: ('A' for Active; 'I' for Inactive)
REMARK    1  A    between atoms: C4_10  and  C5_11 
REMARK    2  A    between atoms: C7_15  and  N5_16 
REMARK    3  A    between atoms: N7_23  and  C9_24 
REMARK    4  A    between atoms: C9_24  and  C10_25 
REMARK       I    between atoms: C10_25  and  N8_27 
REMARK    5  A    between atoms: N8_27  and  C11_29 
REMARK    6  A    between atoms: C11_29  and  C12_30 
REMARK       I    between atoms: C12_30  and  N9_32 
REMARK    7  A    between atoms: N9_32  and  C13_34 
REMARK    8  A    between atoms: C15_37  and  N10_38 
REMARK    9  A    between atoms: C17_43  and  C18_44 
REMARK   10  A    between atoms: C20_48  and  O8_49 
ROOT
HETATM    1  C1  UNL     1      15.314  36.399 113.438  1.00  0.00     0.164 C 
HETATM    2  N1  UNL     1      15.453  35.935 112.062  1.00  0.00    -0.270 N 
HETATM    3  C2  UNL     1      14.717  34.855 111.682  1.00  0.00     0.330 A 
HETATM    4  O1  UNL     1      13.912  34.284 112.484  1.00  0.00    -0.246 OA
HETATM    5  N2  UNL     1      14.866  34.410 110.435  1.00  0.00    -0.293 N 
ATOM      6  H2  UNL     1      14.322  33.601 110.132  1.00  0.00     0.172 HD
HETATM    7  C3  UNL     1      15.715  34.996 109.556  1.00  0.00     0.132 A 
HETATM    8  N3  UNL     1      15.862  34.513 108.322  1.00  0.00    -0.326 N 
ATOM      9  H3  UNL     1      15.300  33.704 108.058  1.00  0.00     0.169 HD
HETATM   10  C4  UNL     1      16.717  35.029 107.382  1.00  0.00     0.129 A 
HETATM   11  N7  UNL     1      17.436  36.086 107.747  1.00  0.00    -0.289 N 
HETATM   12  C21 UNL     1      17.313  36.618 109.013  1.00  0.00     0.269 A 
HETATM   13  O9  UNL     1      18.005  37.634 109.344  1.00  0.00    -0.267 OA
HETATM   14  C22 UNL     1      16.466  36.093 109.923  1.00  0.00     0.144 A 
HETATM   15  C23 UNL     1      16.306  36.550 111.221  1.00  0.00     0.270 A 
HETATM   16  O10 UNL     1      16.976  37.552 111.588  1.00  0.00    -0.267 OA
ENDROOT
BRANCH  11  17
HETATM   17  C9  UNL     1      18.364  36.727 106.895  1.00  0.00     0.236 C 
BRANCH  17  18
HETATM   18  C10 UNL     1      17.850  38.036 106.407  1.00  0.00     0.236 C 
HETATM   19  O3  UNL     1      18.695  39.011 106.347  1.00  0.00    -0.272 OA
HETATM   20  N8  UNL     1      16.534  38.312 106.004  1.00  0.00    -0.351 N 
ATOM     21  H8  UNL     1      15.815  37.590 106.030  1.00  0.00     0.163 HD
BRANCH  20  22
HETATM   22  C11 UNL     1      16.229  39.653 105.549  1.00  0.00     0.225 C 
BRANCH  22  23
HETATM   23  C12 UNL     1      16.105  39.773 104.101  1.00  0.00     0.236 C 
HETATM   24  O4  UNL     1      15.529  40.855 103.685  1.00  0.00    -0.272 OA
HETATM   25  N9  UNL     1      16.530  38.886 103.114  1.00  0.00    -0.346 N 
ATOM     26  H9  UNL     1      17.002  38.023 103.384  1.00  0.00     0.163 HD
BRANCH  25  27
HETATM   27  C13 UNL     1      16.309  39.173 101.700  1.00  0.00     0.185 C 
HETATM   28  C14 UNL     1      17.504  38.672 100.954  1.00  0.00     0.175 C 
HETATM   29  O5  UNL     1      18.502  39.353 100.881  1.00  0.00    -0.293 OA
HETATM   30  C15 UNL     1      17.538  37.339 100.273  1.00  0.00     0.170 C 
HETATM   31  C17 UNL     1      16.195  36.892  99.797  1.00  0.00     0.119 C 
HETATM   32  C19 UNL     1      15.089  37.874  99.925  1.00  0.00     0.052 C 
HETATM   33  C20 UNL     1      15.020  38.643 101.202  1.00  0.00     0.149 C 
BRANCH  30  34
HETATM   34  N10 UNL     1      18.513  37.333  99.199  1.00  0.00    -0.354 N 
HETATM   35  C16 UNL     1      19.628  36.729  99.282  1.00  0.00     0.197 C 
HETATM   36  N11 UNL     1      20.003  36.008 100.443  1.00  0.00    -0.067 NA
HETATM   37  N12 UNL     1      20.530  36.769  98.189  1.00  0.00    -0.067 NA
ATOM     38  H10 UNL     1      18.294  37.836  98.338  1.00  0.00     0.162 HD
ENDBRANCH  30  34
BRANCH  31  39
HETATM   39  C18 UNL     1      15.873  35.572 100.419  1.00  0.00     0.179 C 
HETATM   40  O6  UNL     1      14.797  35.322 101.002  1.00  0.00    -0.648 OA
HETATM   41  O7  UNL     1      16.860  34.599 100.319  1.00  0.00    -0.648 OA
ENDBRANCH  31  39
BRANCH  33  42
HETATM   42  O8  UNL     1      14.184  39.758 100.954  1.00  0.00    -0.393 OA
ATOM     43  H8  UNL     1      13.316  39.529 101.267  1.00  0.00     0.210 HD
ENDBRANCH  33  42
ENDBRANCH  25  27
ENDBRANCH  22  23
ENDBRANCH  20  22
ENDBRANCH  17  18
ENDBRANCH  11  17
BRANCH  10  44
HETATM   44  C5  UNL     1      16.684  34.397 106.073  1.00  0.00     0.093 A 
HETATM   45  C6  UNL     1      15.692  34.804 105.165  1.00  0.00     0.127 A 
HETATM   46  N4  UNL     1      15.533  34.246 103.961  1.00  0.00    -0.201 N 
HETATM   47  C7  UNL     1      16.338  33.238 103.553  1.00  0.00     0.678 A 
ATOM     48  H4  UNL     1      14.796  34.584 103.342  1.00  0.00     0.183 HD
HETATM   49  N6  UNL     1      17.291  32.830 104.403  1.00  0.00    -0.156 N 
HETATM   50  C8  UNL     1      17.485  33.375 105.641  1.00  0.00     0.275 A 
ATOM     51  H6  UNL     1      17.905  32.070 104.110  1.00  0.00     0.187 HD
HETATM   52  O2  UNL     1      18.409  32.889 106.334  1.00  0.00    -0.267 OA
BRANCH  47  53
HETATM   53  N5  UNL     1      16.193  32.693 102.384  1.00  0.00    -0.234 N 
ATOM     54  H52 UNL     1      16.612  33.102 101.548  1.00  0.00     0.174 HD
ATOM     55  H51 UNL     1      15.650  31.839 102.264  1.00  0.00     0.174 HD
ENDBRANCH  47  53
ENDBRANCH  10  44
TORSDOF 10
ENDMDL
MODEL 3
REMARK VINA RESULT: -10.755987778      4.770      5.950
REMARK  10 active torsions:
REMARK  status: ('A' for Active; 'I' for Inactive)
REMARK    1  A    between atoms: C4_10  and  C5_11 
REMARK    2  A    between atoms: C7_15  and  N5_16 
REMARK    3  A    between atoms: N7_23  and  C9_24 
REMARK    4  A    between atoms: C9_24  and  C10_25 
REMARK       I    between atoms: C10_25  and  N8_27 
REMARK    5  A    between atoms: N8_27  and  C11_29 
REMARK    6  A    between atoms: C11_29  and  C12_30 
REMARK       I    between atoms: C12_30  and  N9_32 
REMARK    7  A    between atoms: N9_32  and  C13_34 
REMARK    8  A    between atoms: C15_37  and  N10_38 
REMARK    9  A    between atoms: C17_43  and  C18_44 
REMARK   10  A    between atoms: C20_48  and  O8_49 
ROOT
HETATM    1  C1  UNL     1      20.815  39.544  96.111  1.00  0.00     0.164 C 
HETATM    2  N1  UNL     1      20.406  40.544  97.092  1.00  0.00    -0.270 N 
HETATM    3  C2  UNL     1      20.357  41.842  96.687  1.00  0.00     0.330 A 
HETATM    4  O1  UNL     1      20.630  42.176  95.491  1.00  0.00    -0.246 OA
HETATM    5  N2  UNL     1      20.014  42.762  97.589  1.00  0.00    -0.293 N 
ATOM      6  H2  UNL     1      19.973  43.740  97.304  1.00  0.00     0.172 HD
HETATM    7  C3  UNL     1      19.719  42.438  98.872  1.00  0.00     0.132 A 
HETATM    8  N3  UNL     1      19.403  43.383  99.759  1.00  0.00    -0.326 N 
ATOM      9  H3  UNL     1      19.372  44.349  99.434  1.00  0.00     0.169 HD
HETATM   10  C4  UNL     1      19.117  43.144 101.079  1.00  0.00     0.129 A 
HETATM   11  N7  UNL     1      19.160  41.877 101.479  1.00  0.00    -0.289 N 
HETATM   12  C21 UNL     1      19.480  40.871 100.593  1.00  0.00     0.269 A 
HETATM   13  O9  UNL     1      19.511  39.662 100.991  1.00  0.00    -0.267 OA
HETATM   14  C22 UNL     1      19.760  41.127  99.298  1.00  0.00     0.144 A 
HETATM   15  C23 UNL     1      20.117  40.178  98.355  1.00  0.00     0.270 A 
HETATM   16  O10 UNL     1      20.161  38.970  98.711  1.00  0.00    -0.267 OA
ENDROOT
BRANCH  11  17
HETATM   17  C9  UNL     1      18.896  41.472 102.806  1.00  0.00     0.236 C 
BRANCH  17  18
HETATM   18  C10 UNL     1      17.543  40.867 102.939  1.00  0.00     0.236 C 
HETATM   19  O3  UNL     1      17.440  39.822 103.690  1.00  0.00    -0.272 OA
HETATM   20  N8  UNL     1      16.366  41.326 102.326  1.00  0.00    -0.351 N 
ATOM     21  H8  UNL     1      16.376  42.144 101.717  1.00  0.00     0.163 HD
BRANCH  20  22
HETATM   22  C11 UNL     1      15.137  40.605 102.586  1.00  0.00     0.225 C 
BRANCH  22  23
HETATM   23  C12 UNL     1      14.969  39.410 101.767  1.00  0.00     0.236 C 
HETATM   24  O4  UNL     1      14.325  39.588 100.658  1.00  0.00    -0.272 OA
HETATM   25  N9  UNL     1      15.414  38.114 102.017  1.00  0.00    -0.346 N 
ATOM     26  H9  UNL     1      15.939  37.918 102.869  1.00  0.00     0.163 HD
BRANCH  25  27
HETATM   27  C13 UNL     1      15.141  37.031 101.077  1.00  0.00     0.185 C 
HETATM   28  C14 UNL     1      16.437  36.671 100.425  1.00  0.00     0.175 C 
HETATM   29  O5  UNL     1      16.841  37.315  99.483  1.00  0.00    -0.293 OA
HETATM   30  C15 UNL     1      17.290  35.529 100.883  1.00  0.00     0.170 C 
HETATM   31  C17 UNL     1      16.500  34.420 101.496  1.00  0.00     0.119 C 
HETATM   32  C19 UNL     1      15.022  34.541 101.419  1.00  0.00     0.052 C 
HETATM   33  C20 UNL     1      14.444  35.887 101.707  1.00  0.00     0.149 C 
BRANCH  30  34
HETATM   34  N10 UNL     1      18.134  35.049  99.805  1.00  0.00    -0.354 N 
HETATM   35  C16 UNL     1      19.375  35.309  99.733  1.00  0.00     0.197 C 
HETATM   36  N11 UNL     1      20.033  36.094 100.713  1.00  0.00    -0.067 NA
HETATM   37  N12 UNL     1      20.135  34.804  98.648  1.00  0.00    -0.067 NA
ATOM     38  H10 UNL     1      17.711  34.478  99.073  1.00  0.00     0.162 HD
ENDBRANCH  30  34
BRANCH  31  39
HETATM   39  C18 UNL     1      16.990  34.185 102.888  1.00  0.00     0.179 C 
HETATM   40  O6  UNL     1      16.271  33.756 103.815  1.00  0.00    -0.648 OA
HETATM   41  O7  UNL     1      18.329  34.475 103.116  1.00  0.00    -0.648 OA
ENDBRANCH  31  39
BRANCH  33  42
HETATM   42  O8  UNL     1      13.124  35.875 101.195  1.00  0.00    -0.393 OA
ATOM     43  H8  UNL     1      13.065  35.137 100.598  1.00  0.00     0.210 HD
ENDBRANCH  33  42
ENDBRANCH  25  27
ENDBRANCH  22  23
ENDBRANCH  20  22
ENDBRANCH  17  18
ENDBRANCH  11  17
BRANCH  10  44
HETATM   44  C5  UNL     1      18.735  44.304 101.869  1.00  0.00     0.093 A 
HETATM   45  C6  UNL     1      19.734  44.966 102.602  1.00  0.00     0.127 A 
HETATM   46  N4  UNL     1      19.482  46.001 103.408  1.00  0.00    -0.201 N 
HETATM   47  C7  UNL     1      18.221  46.468 103.561  1.00  0.00     0.678 A 
ATOM     48  H4  UNL     1      20.248  46.445 103.914  1.00  0.00     0.183 HD
HETATM   49  N6  UNL     1      17.249  45.851 102.874  1.00  0.00    -0.156 N 
HETATM   50  C8  UNL     1      17.468  44.791 102.041  1.00  0.00     0.275 A 
ATOM     51  H6  UNL     1      16.293  46.192 102.980  1.00  0.00     0.187 HD
HETATM   52  O2  UNL     1      16.463  44.306 101.469  1.00  0.00    -0.267 OA
BRANCH  47  53
HETATM   53  N5  UNL     1      17.968  47.476 104.339  1.00  0.00    -0.234 N 
ATOM     54  H52 UNL     1      18.716  48.036 104.748  1.00  0.00     0.174 HD
ATOM     55  H51 UNL     1      17.010  47.738 104.568  1.00  0.00     0.174 HD
ENDBRANCH  47  53
ENDBRANCH  10  44
TORSDOF 10
ENDMDL
MODEL 4
REMARK VINA RESULT: -10.743106347      1.955      2.582
REMARK  10 active torsions:
REMARK  status: ('A' for Active; 'I' for Inactive)
REMARK    1  A    between atoms: C4_10  and  C5_11 
REMARK    2  A    between atoms: C7_15  and  N5_16 
REMARK    3  A    between atoms: N7_23  and  C9_24 
REMARK    4  A    between atoms: C9_24  and  C10_25 
REMARK       I    between atoms: C10_25  and  N8_27 
REMARK    5  A    between atoms: N8_27  and  C11_29 
REMARK    6  A    between atoms: C11_29  and  C12_30 
REMARK       I    between atoms: C12_30  and  N9_32 
REMARK    7  A    between atoms: N9_32  and  C13_34 
REMARK    8  A    between atoms: C15_37  and  N10_38 
REMARK    9  A    between atoms: C17_43  and  C18_44 
REMARK   10  A    between atoms: C20_48  and  O8_49 
ROOT
HETATM    1  C1  UNL     1      19.905  38.280  96.584  1.00  0.00     0.164 C 
HETATM    2  N1  UNL     1      19.656  39.414  97.468  1.00  0.00    -0.270 N 
HETATM    3  C2  UNL     1      19.608  40.653  96.907  1.00  0.00     0.330 A 
HETATM    4  O1  UNL     1      19.745  40.822  95.654  1.00  0.00    -0.246 OA
HETATM    5  N2  UNL     1      19.412  41.694  97.716  1.00  0.00    -0.293 N 
ATOM      6  H2  UNL     1      19.373  42.631  97.314  1.00  0.00     0.172 HD
HETATM    7  C3  UNL     1      19.263  41.548  99.056  1.00  0.00     0.132 A 
HETATM    8  N3  UNL     1      19.094  42.610  99.844  1.00  0.00    -0.326 N 
ATOM      9  H3  UNL     1      19.060  43.529  99.403  1.00  0.00     0.169 HD
HETATM   10  C4  UNL     1      18.962  42.552 101.208  1.00  0.00     0.129 A 
HETATM   11  N7  UNL     1      19.005  41.344 101.760  1.00  0.00    -0.289 N 
HETATM   12  C21 UNL     1      19.177  40.220 100.981  1.00  0.00     0.269 A 
HETATM   13  O9  UNL     1      19.210  39.070 101.526  1.00  0.00    -0.267 OA
HETATM   14  C22 UNL     1      19.306  40.299  99.640  1.00  0.00     0.144 A 
HETATM   15  C23 UNL     1      19.510  39.223  98.792  1.00  0.00     0.270 A 
HETATM   16  O10 UNL     1      19.552  38.068  99.294  1.00  0.00    -0.267 OA
ENDROOT
BRANCH  11  17
HETATM   17  C9  UNL     1      18.890  41.121 103.151  1.00  0.00     0.236 C 
BRANCH  17  18
HETATM   18  C10 UNL     1      17.497  40.766 103.538  1.00  0.00     0.236 C 
HETATM   19  O3  UNL     1      16.654  41.738 103.650  1.00  0.00    -0.272 OA
HETATM   20  N8  UNL     1      17.011  39.473 103.791  1.00  0.00    -0.351 N 
ATOM     21  H8  UNL     1      17.623  38.660 103.725  1.00  0.00     0.163 HD
BRANCH  20  22
HETATM   22  C11 UNL     1      15.615  39.329 104.148  1.00  0.00     0.225 C 
BRANCH  22  23
HETATM   23  C12 UNL     1      15.308  38.086 104.846  1.00  0.00     0.236 C 
HETATM   24  O4  UNL     1      14.615  37.228 104.166  1.00  0.00    -0.272 OA
HETATM   25  N9  UNL     1      15.667  37.700 106.136  1.00  0.00    -0.346 N 
ATOM     26  H9  UNL     1      16.224  38.331 106.712  1.00  0.00     0.163 HD
BRANCH  25  27
HETATM   27  C13 UNL     1      15.257  36.407 106.675  1.00  0.00     0.185 C 
HETATM   28  C14 UNL     1      16.477  35.545 106.735  1.00  0.00     0.175 C 
HETATM   29  O5  UNL     1      16.852  34.954 105.748  1.00  0.00    -0.293 OA
HETATM   30  C15 UNL     1      17.286  35.366 107.982  1.00  0.00     0.170 C 
HETATM   31  C17 UNL     1      16.473  35.493 109.229  1.00  0.00     0.119 C 
HETATM   32  C19 UNL     1      15.004  35.617 109.049  1.00  0.00     0.052 C 
HETATM   33  C20 UNL     1      14.536  36.525 107.962  1.00  0.00     0.149 C 
BRANCH  30  34
HETATM   34  N10 UNL     1      18.016  34.113 107.949  1.00  0.00    -0.354 N 
HETATM   35  C16 UNL     1      19.249  34.025 108.244  1.00  0.00     0.197 C 
HETATM   36  N11 UNL     1      20.007  35.157 108.634  1.00  0.00    -0.067 NA
HETATM   37  N12 UNL     1      19.896  32.765 108.188  1.00  0.00    -0.067 NA
ATOM     38  H10 UNL     1      17.519  33.265 107.675  1.00  0.00     0.162 HD
ENDBRANCH  30  34
BRANCH  31  39
HETATM   39  C18 UNL     1      17.047  36.582 110.075  1.00  0.00     0.179 C 
HETATM   40  O6  UNL     1      16.980  36.602 111.322  1.00  0.00    -0.648 OA
HETATM   41  O7  UNL     1      17.680  37.611 109.390  1.00  0.00    -0.648 OA
ENDBRANCH  31  39
BRANCH  33  42
HETATM   42  O8  UNL     1      13.185  36.187 107.710  1.00  0.00    -0.393 OA
ATOM     43  H8  UNL     1      12.672  36.542 108.427  1.00  0.00     0.210 HD
ENDBRANCH  33  42
ENDBRANCH  25  27
ENDBRANCH  22  23
ENDBRANCH  20  22
ENDBRANCH  17  18
ENDBRANCH  11  17
BRANCH  10  44
HETATM   44  C5  UNL     1      18.722  43.819 101.881  1.00  0.00     0.093 A 
HETATM   45  C6  UNL     1      19.757  44.362 102.661  1.00  0.00     0.127 A 
HETATM   46  N4  UNL     1      19.622  45.486 103.370  1.00  0.00    -0.201 N 
HETATM   47  C7  UNL     1      18.453  46.168 103.371  1.00  0.00     0.678 A 
ATOM     48  H4  UNL     1      20.410  45.835 103.917  1.00  0.00     0.183 HD
HETATM   49  N6  UNL     1      17.449  45.668 102.637  1.00  0.00    -0.156 N 
HETATM   50  C8  UNL     1      17.549  44.523 101.899  1.00  0.00     0.275 A 
ATOM     51  H6  UNL     1      16.562  46.171 102.628  1.00  0.00     0.187 HD
HETATM   52  O2  UNL     1      16.526  44.168 101.267  1.00  0.00    -0.267 OA
BRANCH  47  53
HETATM   53  N5  UNL     1      18.316  47.263 104.054  1.00  0.00    -0.234 N 
ATOM     54  H52 UNL     1      18.731  47.371 104.980  1.00  0.00     0.174 HD
ATOM     55  H51 UNL     1      17.784  48.051 103.686  1.00  0.00     0.174 HD
ENDBRANCH  47  53
ENDBRANCH  10  44
TORSDOF 10
ENDMDL
MODEL 5
REMARK VINA RESULT: -10.427223551      3.338      9.175
REMARK  10 active torsions:
REMARK  status: ('A' for Active; 'I' for Inactive)
REMARK    1  A    between atoms: C4_10  and  C5_11 
REMARK    2  A    between atoms: C7_15  and  N5_16 
REMARK    3  A    between atoms: N7_23  and  C9_24 
REMARK    4  A    between atoms: C9_24  and  C10_25 
REMARK       I    between atoms: C10_25  and  N8_27 
REMARK    5  A    between atoms: N8_27  and  C11_29 
REMARK    6  A    between atoms: C11_29  and  C12_30 
REMARK       I    between atoms: C12_30  and  N9_32 
REMARK    7  A    between atoms: N9_32  and  C13_34 
REMARK    8  A    between atoms: C15_37  and  N10_38 
REMARK    9  A    between atoms: C17_43  and  C18_44 
REMARK   10  A    between atoms: C20_48  and  O8_49 
ROOT
HETATM    1  C1  UNL     1      18.646  41.697 102.711  1.00  0.00     0.164 C 
HETATM    2  N1  UNL     1      18.793  40.437 103.432  1.00  0.00    -0.270 N 
HETATM    3  C2  UNL     1      19.987  39.791 103.338  1.00  0.00     0.330 A 
HETATM    4  O1  UNL     1      20.955  40.277 102.671  1.00  0.00    -0.246 OA
HETATM    5  N2  UNL     1      20.114  38.625 103.969  1.00  0.00    -0.293 N 
ATOM      6  H2  UNL     1      21.002  38.126 103.910  1.00  0.00     0.172 HD
HETATM    7  C3  UNL     1      19.101  38.079 104.687  1.00  0.00     0.132 A 
HETATM    8  N3  UNL     1      19.249  36.898 105.287  1.00  0.00    -0.326 N 
ATOM      9  H3  UNL     1      20.152  36.432 105.205  1.00  0.00     0.169 HD
HETATM   10  C4  UNL     1      18.269  36.266 106.009  1.00  0.00     0.129 A 
HETATM   11  N7  UNL     1      17.101  36.893 106.107  1.00  0.00    -0.289 N 
HETATM   12  C21 UNL     1      16.908  38.117 105.502  1.00  0.00     0.269 A 
HETATM   13  O9  UNL     1      15.786  38.708 105.611  1.00  0.00    -0.267 OA
HETATM   14  C22 UNL     1      17.886  38.721 104.795  1.00  0.00     0.144 A 
HETATM   15  C23 UNL     1      17.763  39.933 104.136  1.00  0.00     0.270 A 
HETATM   16  O10 UNL     1      16.665  40.547 104.217  1.00  0.00    -0.267 OA
ENDROOT
BRANCH  11  17
HETATM   17  C9  UNL     1      15.994  36.369 106.810  1.00  0.00     0.236 C 
BRANCH  17  18
HETATM   18  C10 UNL     1      15.096  35.585 105.919  1.00  0.00     0.236 C 
HETATM   19  O3  UNL     1      15.250  34.303 105.914  1.00  0.00    -0.272 OA
HETATM   20  N8  UNL     1      14.095  36.106 105.085  1.00  0.00    -0.351 N 
ATOM     21  H8  UNL     1      13.922  37.110 105.036  1.00  0.00     0.163 HD
BRANCH  20  22
HETATM   22  C11 UNL     1      13.314  35.177 104.295  1.00  0.00     0.225 C 
BRANCH  22  23
HETATM   23  C12 UNL     1      13.940  34.803 103.032  1.00  0.00     0.236 C 
HETATM   24  O4  UNL     1      13.543  33.676 102.532  1.00  0.00    -0.272 OA
HETATM   25  N9  UNL     1      14.897  35.497 102.295  1.00  0.00    -0.346 N 
ATOM     26  H9  UNL     1      15.237  36.397 102.634  1.00  0.00     0.163 HD
BRANCH  25  27
HETATM   27  C13 UNL     1      15.420  34.957 101.044  1.00  0.00     0.185 C 
HETATM   28  C14 UNL     1      15.822  36.118 100.193  1.00  0.00     0.175 C 
HETATM   29  O5  UNL     1      14.993  36.701  99.532  1.00  0.00    -0.293 OA
HETATM   30  C15 UNL     1      17.232  36.617 100.109  1.00  0.00     0.170 C 
HETATM   31  C17 UNL     1      18.245  35.541 100.325  1.00  0.00     0.119 C 
HETATM   32  C19 UNL     1      17.724  34.155 100.431  1.00  0.00     0.052 C 
HETATM   33  C20 UNL     1      16.495  33.961 101.254  1.00  0.00     0.149 C 
BRANCH  30  34
HETATM   34  N10 UNL     1      17.458  37.318  98.859  1.00  0.00    -0.354 N 
HETATM   35  C16 UNL     1      17.974  38.477  98.803  1.00  0.00     0.197 C 
HETATM   36  N11 UNL     1      18.372  39.176  99.970  1.00  0.00    -0.067 NA
HETATM   37  N12 UNL     1      18.164  39.100  97.544  1.00  0.00    -0.067 NA
ATOM     38  H10 UNL     1      17.191  36.860  97.988  1.00  0.00     0.162 HD
ENDBRANCH  30  34
BRANCH  31  39
HETATM   39  C18 UNL     1      19.119  35.921 101.476  1.00  0.00     0.179 C 
HETATM   40  O6  UNL     1      20.090  36.700 101.384  1.00  0.00    -0.648 OA
HETATM   41  O7  UNL     1      18.793  35.347 102.699  1.00  0.00    -0.648 OA
ENDBRANCH  31  39
BRANCH  33  42
HETATM   42  O8  UNL     1      15.965  32.699 100.895  1.00  0.00    -0.393 OA
ATOM     43  H8  UNL     1      15.661  32.288 101.696  1.00  0.00     0.210 HD
ENDBRANCH  33  42
ENDBRANCH  25  27
ENDBRANCH  22  23
ENDBRANCH  20  22
ENDBRANCH  17  18
ENDBRANCH  11  17
BRANCH  10  44
HETATM   44  C5  UNL     1      18.649  35.011 106.640  1.00  0.00     0.093 A 
HETATM   45  C6  UNL     1      18.556  33.833 105.880  1.00  0.00     0.127 A 
HETATM   46  N4  UNL     1      18.819  32.621 106.379  1.00  0.00    -0.201 N 
HETATM   47  C7  UNL     1      19.194  32.471 107.671  1.00  0.00     0.678 A 
ATOM     48  H4  UNL     1      18.736  31.800 105.779  1.00  0.00     0.183 HD
HETATM   49  N6  UNL     1      19.287  33.581 108.417  1.00  0.00    -0.156 N 
HETATM   50  C8  UNL     1      19.027  34.836 107.943  1.00  0.00     0.275 A 
ATOM     51  H6  UNL     1      19.568  33.484 109.392  1.00  0.00     0.187 HD
HETATM   52  O2  UNL     1      19.146  35.782 108.755  1.00  0.00    -0.267 OA
BRANCH  47  53
HETATM   53  N5  UNL     1      19.455  31.298 108.162  1.00  0.00    -0.234 N 
ATOM     54  H52 UNL     1      20.407  31.021 108.406  1.00  0.00     0.174 HD
ATOM     55  H51 UNL     1      18.715  30.615 108.316  1.00  0.00     0.174 HD
ENDBRANCH  47  53
ENDBRANCH  10  44
TORSDOF 10
ENDMDL
