MODEL 1
REMARK VINA RESULT: -8.774565653      0.000      0.000
REMARK  11 active torsions:
REMARK  status: ('A' for Active; 'I' for Inactive)
REMARK    1  A    between atoms: N1_1  and  C1_5 
REMARK    2  A    between atoms: C1_5  and  C2_6 
REMARK    3  A    between atoms: C2_6  and  S1_7 
REMARK    4  A    between atoms: C2_6  and  C19_49 
REMARK    5  A    between atoms: S1_7  and  S2_8 
REMARK    6  A    between atoms: S2_8  and  C3_9 
REMARK    7  A    between atoms: C5_14  and  C6_15 
REMARK    8  A    between atoms: C5_14  and  C7_17 
REMARK    9  A    between atoms: C9_24  and  O6_25 
REMARK   10  A    between atoms: O6_25  and  C10_26 
REMARK   11  A    between atoms: C18_46  and  O11_47 
ROOT
HETATM    1  C3  UNL     1      16.798  37.227 103.338  1.00  0.00     0.188 C 
HETATM    2  C4  UNL     1      16.574  38.399 102.517  1.00  0.00     0.238 C 
HETATM    3  O1  UNL     1      15.401  38.501 101.996  1.00  0.00    -0.272 OA
HETATM    4  N2  UNL     1      17.400  39.493 102.155  1.00  0.00    -0.319 N 
ATOM      5  H2  UNL     1      17.209  39.892 101.236  1.00  0.00     0.166 HD
HETATM    6  C5  UNL     1      18.458  40.124 102.881  1.00  0.00     0.254 C 
HETATM    7  N3  UNL     1      18.181  40.016 104.300  1.00  0.00    -0.318 N 
ATOM      8  H3  UNL     1      18.484  40.806 104.870  1.00  0.00     0.166 HD
HETATM    9  C8  UNL     1      17.545  38.960 105.002  1.00  0.00     0.251 C 
HETATM   10  O5  UNL     1      17.016  39.343 106.080  1.00  0.00    -0.271 OA
HETATM   11  C9  UNL     1      17.395  37.537 104.711  1.00  0.00     0.238 C 
ENDROOT
BRANCH  11  12
HETATM   12  O6  UNL     1      16.688  36.929 105.742  1.00  0.00    -0.356 OA
BRANCH  12  13
HETATM   13  C10 UNL     1      17.361  35.878 106.352  1.00  0.00     0.262 C 
HETATM   14  C11 UNL     1      16.447  34.747 106.662  1.00  0.00     0.251 C 
HETATM   15  O7  UNL     1      16.812  33.573 106.319  1.00  0.00    -0.270 OA
HETATM   16  N4  UNL     1      15.209  34.860 107.304  1.00  0.00    -0.350 N 
HETATM   17  C12 UNL     1      14.553  36.147 107.567  1.00  0.00     0.225 C 
ATOM     18  H4  UNL     1      14.738  34.006 107.604  1.00  0.00     0.163 HD
HETATM   19  C13 UNL     1      13.355  35.983 108.419  1.00  0.00     0.235 C 
HETATM   20  O8  UNL     1      12.244  36.224 107.876  1.00  0.00    -0.272 OA
HETATM   21  N5  UNL     1      13.353  35.586 109.766  1.00  0.00    -0.351 N 
HETATM   22  C14 UNL     1      14.494  35.128 110.532  1.00  0.00     0.225 C 
ATOM     23  H5  UNL     1      12.458  35.623 110.254  1.00  0.00     0.163 HD
HETATM   24  C15 UNL     1      15.002  36.134 111.499  1.00  0.00     0.235 C 
HETATM   25  O9  UNL     1      14.139  36.686 112.231  1.00  0.00    -0.272 OA
HETATM   26  N6  UNL     1      16.372  36.494 111.638  1.00  0.00    -0.351 N 
HETATM   27  C16 UNL     1      17.288  36.730 110.546  1.00  0.00     0.225 C 
ATOM     28  H6  UNL     1      16.737  36.593 112.586  1.00  0.00     0.163 HD
HETATM   29  C17 UNL     1      17.844  35.507 109.968  1.00  0.00     0.237 C 
HETATM   30  O10 UNL     1      18.181  34.575 110.737  1.00  0.00    -0.272 OA
HETATM   31  N7  UNL     1      18.042  35.277 108.563  1.00  0.00    -0.331 N 
HETATM   32  C18 UNL     1      18.096  36.323 107.594  1.00  0.00     0.258 C 
ATOM     33  H7  UNL     1      18.149  34.315 108.241  1.00  0.00     0.165 HD
BRANCH  32  34
HETATM   34  O11 UNL     1      19.468  36.538 107.319  1.00  0.00    -0.374 OA
ATOM     35  H11 UNL     1      19.932  35.712 107.246  1.00  0.00     0.212 HD
ENDBRANCH  32  34
ENDBRANCH  12  13
ENDBRANCH  11  12
BRANCH   1  36
HETATM   36  S2  UNL     1      17.725  35.874 102.661  1.00  0.00    -0.079 SA
BRANCH  36  37
HETATM   37  S1  UNL     1      17.857  35.916 100.587  1.00  0.00    -0.079 SA
BRANCH  37  38
HETATM   38  C2  UNL     1      19.511  35.798  99.988  1.00  0.00     0.184 C 
BRANCH  38  39
HETATM   39  C1  UNL     1      19.852  36.515  98.737  1.00  0.00     0.256 C 
BRANCH  39  40
HETATM   40  N1  UNL     1      19.962  35.534  97.651  1.00  0.00    -0.078 N 
ATOM     41  H13 UNL     1      20.926  35.395  97.347  1.00  0.00     0.274 HD
ATOM     42  H12 UNL     1      19.776  34.581  97.964  1.00  0.00     0.274 HD
ATOM     43  H11 UNL     1      19.349  35.822  96.888  1.00  0.00     0.274 HD
ENDBRANCH  39  40
ENDBRANCH  38  39
BRANCH  38  44
HETATM   44  C19 UNL     1      19.823  34.348  99.783  1.00  0.00     0.189 C 
HETATM   45  O12 UNL     1      18.911  33.538  99.588  1.00  0.00    -0.647 OA
HETATM   46  O13 UNL     1      21.131  33.945  99.819  1.00  0.00    -0.647 OA
ENDBRANCH  38  44
ENDBRANCH  37  38
ENDBRANCH  36  37
ENDBRANCH   1  36
BRANCH   6  47
HETATM   47  C6  UNL     1      18.529  41.583 102.533  1.00  0.00     0.296 C 
HETATM   48  O2  UNL     1      18.315  42.395 103.384  1.00  0.00    -0.302 OA
ENDBRANCH   6  47
BRANCH   6  49
HETATM   49  C7  UNL     1      19.791  39.591 102.534  1.00  0.00     0.232 C 
HETATM   50  O3  UNL     1      19.919  38.380 102.309  1.00  0.00    -0.644 OA
HETATM   51  O4  UNL     1      20.870  40.431 102.462  1.00  0.00    -0.644 OA
ENDBRANCH   6  49
TORSDOF 11
ENDMDL
MODEL 2
REMARK VINA RESULT: -8.753064053      2.530      4.888
REMARK  11 active torsions:
REMARK  status: ('A' for Active; 'I' for Inactive)
REMARK    1  A    between atoms: N1_1  and  C1_5 
REMARK    2  A    between atoms: C1_5  and  C2_6 
REMARK    3  A    between atoms: C2_6  and  S1_7 
REMARK    4  A    between atoms: C2_6  and  C19_49 
REMARK    5  A    between atoms: S1_7  and  S2_8 
REMARK    6  A    between atoms: S2_8  and  C3_9 
REMARK    7  A    between atoms: C5_14  and  C6_15 
REMARK    8  A    between atoms: C5_14  and  C7_17 
REMARK    9  A    between atoms: C9_24  and  O6_25 
REMARK   10  A    between atoms: O6_25  and  C10_26 
REMARK   11  A    between atoms: C18_46  and  O11_47 
ROOT
HETATM    1  C3  UNL     1      16.372  37.842 105.061  1.00  0.00     0.188 C 
HETATM    2  C4  UNL     1      17.135  39.024 104.716  1.00  0.00     0.238 C 
HETATM    3  O1  UNL     1      16.764  40.116 105.289  1.00  0.00    -0.272 OA
HETATM    4  N2  UNL     1      18.240  39.240 103.855  1.00  0.00    -0.319 N 
ATOM      5  H2  UNL     1      18.274  40.161 103.418  1.00  0.00     0.166 HD
HETATM    6  C5  UNL     1      19.316  38.364 103.505  1.00  0.00     0.254 C 
HETATM    7  N3  UNL     1      19.580  37.479 104.622  1.00  0.00    -0.318 N 
ATOM      8  H3  UNL     1      20.557  37.217 104.756  1.00  0.00     0.166 HD
HETATM    9  C8  UNL     1      18.663  36.928 105.554  1.00  0.00     0.251 C 
HETATM   10  O5  UNL     1      19.208  36.627 106.650  1.00  0.00    -0.271 OA
HETATM   11  C9  UNL     1      17.232  36.649 105.477  1.00  0.00     0.238 C 
ENDROOT
BRANCH  11  12
HETATM   12  O6  UNL     1      16.808  36.087 106.675  1.00  0.00    -0.356 OA
BRANCH  12  13
HETATM   13  C10 UNL     1      15.957  36.897 107.416  1.00  0.00     0.262 C 
HETATM   14  C11 UNL     1      16.698  37.686 108.436  1.00  0.00     0.251 C 
HETATM   15  O7  UNL     1      16.462  38.937 108.509  1.00  0.00    -0.270 OA
HETATM   16  N4  UNL     1      17.642  37.168 109.330  1.00  0.00    -0.350 N 
HETATM   17  C12 UNL     1      18.179  35.806 109.233  1.00  0.00     0.225 C 
ATOM     18  H4  UNL     1      17.973  37.767 110.086  1.00  0.00     0.163 HD
HETATM   19  C13 UNL     1      19.011  35.464 110.408  1.00  0.00     0.235 C 
HETATM   20  O8  UNL     1      20.242  35.307 110.197  1.00  0.00    -0.272 OA
HETATM   21  N5  UNL     1      18.546  35.302 111.723  1.00  0.00    -0.351 N 
HETATM   22  C14 UNL     1      17.208  35.573 112.205  1.00  0.00     0.225 C 
ATOM     23  H5  UNL     1      19.219  34.959 112.409  1.00  0.00     0.163 HD
HETATM   24  C15 UNL     1      16.408  34.347 112.457  1.00  0.00     0.235 C 
HETATM   25  O9  UNL     1      16.973  33.444 113.129  1.00  0.00    -0.272 OA
HETATM   26  N6  UNL     1      15.077  34.147 111.994  1.00  0.00    -0.351 N 
HETATM   27  C16 UNL     1      14.593  34.479 110.673  1.00  0.00     0.225 C 
ATOM     28  H6  UNL     1      14.410  33.736 112.648  1.00  0.00     0.163 HD
HETATM   29  C17 UNL     1      14.258  35.892 110.506  1.00  0.00     0.237 C 
HETATM   30  O10 UNL     1      13.669  36.487 111.440  1.00  0.00    -0.272 OA
HETATM   31  N7  UNL     1      14.553  36.675 109.337  1.00  0.00    -0.331 N 
HETATM   32  C18 UNL     1      14.844  36.105 108.062  1.00  0.00     0.258 C 
ATOM     33  H7  UNL     1      14.553  37.691 109.424  1.00  0.00     0.165 HD
BRANCH  32  34
HETATM   34  O11 UNL     1      13.652  36.199 107.304  1.00  0.00    -0.374 OA
ATOM     35  H11 UNL     1      13.439  35.365 106.903  1.00  0.00     0.212 HD
ENDBRANCH  32  34
ENDBRANCH  12  13
ENDBRANCH  11  12
BRANCH   1  36
HETATM   36  S2  UNL     1      15.166  37.238 103.907  1.00  0.00    -0.079 SA
BRANCH  36  37
HETATM   37  S1  UNL     1      13.532  38.500 103.679  1.00  0.00    -0.079 SA
BRANCH  37  38
HETATM   38  C2  UNL     1      13.590  39.463 102.204  1.00  0.00     0.184 C 
BRANCH  38  39
HETATM   39  C1  UNL     1      14.668  39.180 101.228  1.00  0.00     0.256 C 
BRANCH  39  40
HETATM   40  N1  UNL     1      15.810  40.052 101.525  1.00  0.00    -0.078 N 
ATOM     41  H13 UNL     1      16.264  40.402 100.682  1.00  0.00     0.274 HD
ATOM     42  H12 UNL     1      15.525  40.951 101.914  1.00  0.00     0.274 HD
ATOM     43  H11 UNL     1      16.454  39.549 102.136  1.00  0.00     0.274 HD
ENDBRANCH  39  40
ENDBRANCH  38  39
BRANCH  38  44
HETATM   44  C19 UNL     1      13.700  40.904 102.600  1.00  0.00     0.189 C 
HETATM   45  O12 UNL     1      13.486  41.793 101.771  1.00  0.00    -0.647 OA
HETATM   46  O13 UNL     1      14.040  41.206 103.891  1.00  0.00    -0.647 OA
ENDBRANCH  38  44
ENDBRANCH  37  38
ENDBRANCH  36  37
ENDBRANCH   1  36
BRANCH   6  47
HETATM   47  C6  UNL     1      20.564  39.155 103.236  1.00  0.00     0.296 C 
HETATM   48  O2  UNL     1      20.520  40.066 102.464  1.00  0.00    -0.302 OA
ENDBRANCH   6  47
BRANCH   6  49
HETATM   49  C7  UNL     1      19.068  37.620 102.253  1.00  0.00     0.232 C 
HETATM   50  O3  UNL     1      17.967  37.725 101.695  1.00  0.00    -0.644 OA
HETATM   51  O4  UNL     1      20.046  36.825 101.720  1.00  0.00    -0.644 OA
ENDBRANCH   6  49
TORSDOF 11
ENDMDL
MODEL 3
REMARK VINA RESULT: -8.578119833      1.749      2.384
REMARK  11 active torsions:
REMARK  status: ('A' for Active; 'I' for Inactive)
REMARK    1  A    between atoms: N1_1  and  C1_5 
REMARK    2  A    between atoms: C1_5  and  C2_6 
REMARK    3  A    between atoms: C2_6  and  S1_7 
REMARK    4  A    between atoms: C2_6  and  C19_49 
REMARK    5  A    between atoms: S1_7  and  S2_8 
REMARK    6  A    between atoms: S2_8  and  C3_9 
REMARK    7  A    between atoms: C5_14  and  C6_15 
REMARK    8  A    between atoms: C5_14  and  C7_17 
REMARK    9  A    between atoms: C9_24  and  O6_25 
REMARK   10  A    between atoms: O6_25  and  C10_26 
REMARK   11  A    between atoms: C18_46  and  O11_47 
ROOT
HETATM    1  C3  UNL     1      16.084  37.765 103.483  1.00  0.00     0.188 C 
HETATM    2  C4  UNL     1      15.978  39.064 102.850  1.00  0.00     0.238 C 
HETATM    3  O1  UNL     1      14.781  39.474 102.612  1.00  0.00    -0.272 OA
HETATM    4  N2  UNL     1      16.945  40.010 102.426  1.00  0.00    -0.319 N 
ATOM      5  H2  UNL     1      16.677  40.567 101.615  1.00  0.00     0.166 HD
HETATM    6  C5  UNL     1      18.239  40.303 102.961  1.00  0.00     0.254 C 
HETATM    7  N3  UNL     1      18.223  40.050 104.388  1.00  0.00    -0.318 N 
ATOM      8  H3  UNL     1      18.801  40.672 104.953  1.00  0.00     0.166 HD
HETATM    9  C8  UNL     1      17.510  39.054 105.105  1.00  0.00     0.251 C 
HETATM   10  O5  UNL     1      17.301  39.377 106.305  1.00  0.00    -0.271 OA
HETATM   11  C9  UNL     1      16.988  37.748 104.715  1.00  0.00     0.238 C 
ENDROOT
BRANCH  11  12
HETATM   12  O6  UNL     1      16.374  37.153 105.811  1.00  0.00    -0.356 OA
BRANCH  12  13
HETATM   13  C10 UNL     1      16.545  35.776 105.883  1.00  0.00     0.262 C 
HETATM   14  C11 UNL     1      15.684  35.170 106.933  1.00  0.00     0.251 C 
HETATM   15  O7  UNL     1      14.991  34.146 106.619  1.00  0.00    -0.270 OA
HETATM   16  N4  UNL     1      15.568  35.631 108.249  1.00  0.00    -0.350 N 
HETATM   17  C12 UNL     1      16.125  36.910 108.705  1.00  0.00     0.225 C 
ATOM     18  H4  UNL     1      15.071  35.049 108.925  1.00  0.00     0.163 HD
HETATM   19  C13 UNL     1      16.020  37.056 110.174  1.00  0.00     0.235 C 
HETATM   20  O8  UNL     1      15.236  37.948 110.593  1.00  0.00    -0.272 OA
HETATM   21  N5  UNL     1      16.712  36.292 111.128  1.00  0.00    -0.351 N 
HETATM   22  C14 UNL     1      17.543  35.135 110.867  1.00  0.00     0.225 C 
ATOM     23  H5  UNL     1      16.620  36.580 112.101  1.00  0.00     0.163 HD
HETATM   24  C15 UNL     1      18.998  35.411 110.979  1.00  0.00     0.235 C 
HETATM   25  O9  UNL     1      19.368  36.031 112.011  1.00  0.00    -0.272 OA
HETATM   26  N6  UNL     1      19.965  35.024 110.009  1.00  0.00    -0.351 N 
HETATM   27  C16 UNL     1      19.809  35.147 108.578  1.00  0.00     0.225 C 
ATOM     28  H6  UNL     1      20.841  34.628 110.353  1.00  0.00     0.163 HD
HETATM   29  C17 UNL     1      19.025  34.070 107.976  1.00  0.00     0.237 C 
HETATM   30  O10 UNL     1      19.201  32.896 108.381  1.00  0.00    -0.272 OA
HETATM   31  N7  UNL     1      18.047  34.246 106.937  1.00  0.00    -0.331 N 
HETATM   32  C18 UNL     1      17.991  35.396 106.096  1.00  0.00     0.258 C 
ATOM     33  H7  UNL     1      17.357  33.508 106.794  1.00  0.00     0.165 HD
BRANCH  32  34
HETATM   34  O11 UNL     1      18.600  35.024 104.873  1.00  0.00    -0.374 OA
ATOM     35  H11 UNL     1      19.467  34.667 105.022  1.00  0.00     0.212 HD
ENDBRANCH  32  34
ENDBRANCH  12  13
ENDBRANCH  11  12
BRANCH   1  36
HETATM   36  S2  UNL     1      16.531  36.365 102.489  1.00  0.00    -0.079 SA
BRANCH  36  37
HETATM   37  S1  UNL     1      17.096  36.869 100.554  1.00  0.00    -0.079 SA
BRANCH  37  38
HETATM   38  C2  UNL     1      18.203  35.709  99.822  1.00  0.00     0.184 C 
BRANCH  38  39
HETATM   39  C1  UNL     1      18.152  34.304 100.290  1.00  0.00     0.256 C 
BRANCH  39  40
HETATM   40  N1  UNL     1      19.422  33.652  99.951  1.00  0.00    -0.078 N 
ATOM     41  H13 UNL     1      20.223  34.272 100.065  1.00  0.00     0.274 HD
ATOM     42  H12 UNL     1      19.693  32.945 100.635  1.00  0.00     0.274 HD
ATOM     43  H11 UNL     1      19.352  33.273  99.006  1.00  0.00     0.274 HD
ENDBRANCH  39  40
ENDBRANCH  38  39
BRANCH  38  44
HETATM   44  C19 UNL     1      19.598  36.211 100.034  1.00  0.00     0.189 C 
HETATM   45  O12 UNL     1      20.065  36.285 101.175  1.00  0.00    -0.647 OA
HETATM   46  O13 UNL     1      20.336  36.583  98.942  1.00  0.00    -0.647 OA
ENDBRANCH  38  44
ENDBRANCH  37  38
ENDBRANCH  36  37
ENDBRANCH   1  36
BRANCH   6  47
HETATM   47  C6  UNL     1      18.570  41.753 102.751  1.00  0.00     0.296 C 
HETATM   48  O2  UNL     1      19.457  42.244 103.384  1.00  0.00    -0.302 OA
ENDBRANCH   6  47
BRANCH   6  49
HETATM   49  C7  UNL     1      19.323  39.569 102.279  1.00  0.00     0.232 C 
HETATM   50  O3  UNL     1      19.364  39.562 101.041  1.00  0.00    -0.644 OA
HETATM   51  O4  UNL     1      20.270  38.904 103.010  1.00  0.00    -0.644 OA
ENDBRANCH   6  49
TORSDOF 11
ENDMDL
MODEL 4
REMARK VINA RESULT: -8.556182721      1.260      1.490
REMARK  11 active torsions:
REMARK  status: ('A' for Active; 'I' for Inactive)
REMARK    1  A    between atoms: N1_1  and  C1_5 
REMARK    2  A    between atoms: C1_5  and  C2_6 
REMARK    3  A    between atoms: C2_6  and  S1_7 
REMARK    4  A    between atoms: C2_6  and  C19_49 
REMARK    5  A    between atoms: S1_7  and  S2_8 
REMARK    6  A    between atoms: S2_8  and  C3_9 
REMARK    7  A    between atoms: C5_14  and  C6_15 
REMARK    8  A    between atoms: C5_14  and  C7_17 
REMARK    9  A    between atoms: C9_24  and  O6_25 
REMARK   10  A    between atoms: O6_25  and  C10_26 
REMARK   11  A    between atoms: C18_46  and  O11_47 
ROOT
HETATM    1  C3  UNL     1      15.472  38.069 103.558  1.00  0.00     0.188 C 
HETATM    2  C4  UNL     1      15.282  39.396 103.006  1.00  0.00     0.238 C 
HETATM    3  O1  UNL     1      14.079  39.852 103.048  1.00  0.00    -0.272 OA
HETATM    4  N2  UNL     1      16.170  40.327 102.412  1.00  0.00    -0.319 N 
ATOM      5  H2  UNL     1      15.755  40.925 101.697  1.00  0.00     0.166 HD
HETATM    6  C5  UNL     1      17.560  40.558 102.660  1.00  0.00     0.254 C 
HETATM    7  N3  UNL     1      17.844  40.249 104.048  1.00  0.00    -0.318 N 
ATOM      8  H3  UNL     1      18.556  40.830 104.493  1.00  0.00     0.166 HD
HETATM    9  C8  UNL     1      17.267  39.248 104.871  1.00  0.00     0.251 C 
HETATM   10  O5  UNL     1      17.335  39.528 106.097  1.00  0.00    -0.271 OA
HETATM   11  C9  UNL     1      16.621  37.975 104.561  1.00  0.00     0.238 C 
ENDROOT
BRANCH  11  12
HETATM   12  O6  UNL     1      16.237  37.356 105.745  1.00  0.00    -0.356 OA
BRANCH  12  13
HETATM   13  C10 UNL     1      17.070  36.317 106.142  1.00  0.00     0.262 C 
HETATM   14  C11 UNL     1      16.308  35.065 106.388  1.00  0.00     0.251 C 
HETATM   15  O7  UNL     1      16.742  33.988 105.859  1.00  0.00    -0.270 OA
HETATM   16  N4  UNL     1      15.143  34.964 107.158  1.00  0.00    -0.350 N 
HETATM   17  C12 UNL     1      14.402  36.131 107.651  1.00  0.00     0.225 C 
ATOM     18  H4  UNL     1      14.792  34.034 107.387  1.00  0.00     0.163 HD
HETATM   19  C13 UNL     1      13.327  35.737 108.589  1.00  0.00     0.235 C 
HETATM   20  O8  UNL     1      12.145  35.921 108.194  1.00  0.00    -0.272 OA
HETATM   21  N5  UNL     1      13.513  35.181 109.865  1.00  0.00    -0.351 N 
HETATM   22  C14 UNL     1      14.770  34.760 110.447  1.00  0.00     0.225 C 
ATOM     23  H5  UNL     1      12.679  35.061 110.439  1.00  0.00     0.163 HD
HETATM   24  C15 UNL     1      15.285  35.689 111.484  1.00  0.00     0.235 C 
HETATM   25  O9  UNL     1      14.460  36.053 112.364  1.00  0.00    -0.272 OA
HETATM   26  N6  UNL     1      16.622  36.176 111.534  1.00  0.00    -0.351 N 
HETATM   27  C16 UNL     1      17.384  36.641 110.398  1.00  0.00     0.225 C 
ATOM     28  H6  UNL     1      17.079  36.198 112.446  1.00  0.00     0.163 HD
HETATM   29  C17 UNL     1      17.985  35.565 109.612  1.00  0.00     0.237 C 
HETATM   30  O10 UNL     1      18.493  34.588 110.214  1.00  0.00    -0.272 OA
HETATM   31  N7  UNL     1      18.047  35.530 108.176  1.00  0.00    -0.331 N 
HETATM   32  C18 UNL     1      17.893  36.686 107.354  1.00  0.00     0.258 C 
ATOM     33  H7  UNL     1      18.208  34.631 107.721  1.00  0.00     0.165 HD
BRANCH  32  34
HETATM   34  O11 UNL     1      19.200  37.079 106.975  1.00  0.00    -0.374 OA
ATOM     35  H11 UNL     1      19.172  37.694 106.252  1.00  0.00     0.212 HD
ENDBRANCH  32  34
ENDBRANCH  12  13
ENDBRANCH  11  12
BRANCH   1  36
HETATM   36  S2  UNL     1      15.638  36.698 102.445  1.00  0.00    -0.079 SA
BRANCH  36  37
HETATM   37  S1  UNL     1      17.566  35.928 102.359  1.00  0.00    -0.079 SA
BRANCH  37  38
HETATM   38  C2  UNL     1      18.146  35.670 100.714  1.00  0.00     0.184 C 
BRANCH  38  39
HETATM   39  C1  UNL     1      18.210  34.280 100.206  1.00  0.00     0.256 C 
BRANCH  39  40
HETATM   40  N1  UNL     1      19.511  33.708 100.570  1.00  0.00    -0.078 N 
ATOM     41  H13 UNL     1      19.500  33.266 101.488  1.00  0.00     0.274 HD
ATOM     42  H12 UNL     1      19.743  32.882 100.019  1.00  0.00     0.274 HD
ATOM     43  H11 UNL     1      20.220  34.438 100.496  1.00  0.00     0.274 HD
ENDBRANCH  39  40
ENDBRANCH  38  39
BRANCH  38  44
HETATM   44  C19 UNL     1      19.521  36.257 100.615  1.00  0.00     0.189 C 
HETATM   45  O12 UNL     1      20.135  36.573 101.639  1.00  0.00    -0.647 OA
HETATM   46  O13 UNL     1      20.073  36.432  99.375  1.00  0.00    -0.647 OA
ENDBRANCH  38  44
ENDBRANCH  37  38
ENDBRANCH  36  37
ENDBRANCH   1  36
BRANCH   6  47
HETATM   47  C6  UNL     1      17.895  42.005 102.431  1.00  0.00     0.296 C 
HETATM   48  O2  UNL     1      18.394  42.634 103.316  1.00  0.00    -0.302 OA
ENDBRANCH   6  47
BRANCH   6  49
HETATM   49  C7  UNL     1      18.441  39.819 101.734  1.00  0.00     0.232 C 
HETATM   50  O3  UNL     1      17.952  39.289 100.728  1.00  0.00    -0.644 OA
HETATM   51  O4  UNL     1      19.783  39.722 101.990  1.00  0.00    -0.644 OA
ENDBRANCH   6  49
TORSDOF 11
ENDMDL
MODEL 5
REMARK VINA RESULT: -8.439148750      2.893      8.898
REMARK  11 active torsions:
REMARK  status: ('A' for Active; 'I' for Inactive)
REMARK    1  A    between atoms: N1_1  and  C1_5 
REMARK    2  A    between atoms: C1_5  and  C2_6 
REMARK    3  A    between atoms: C2_6  and  S1_7 
REMARK    4  A    between atoms: C2_6  and  C19_49 
REMARK    5  A    between atoms: S1_7  and  S2_8 
REMARK    6  A    between atoms: S2_8  and  C3_9 
REMARK    7  A    between atoms: C5_14  and  C6_15 
REMARK    8  A    between atoms: C5_14  and  C7_17 
REMARK    9  A    between atoms: C9_24  and  O6_25 
REMARK   10  A    between atoms: O6_25  and  C10_26 
REMARK   11  A    between atoms: C18_46  and  O11_47 
ROOT
HETATM    1  C3  UNL     1      15.720  35.939 106.237  1.00  0.00     0.188 C 
HETATM    2  C4  UNL     1      15.847  34.534 106.565  1.00  0.00     0.238 C 
HETATM    3  O1  UNL     1      14.799  33.814 106.358  1.00  0.00    -0.272 OA
HETATM    4  N2  UNL     1      16.915  33.758 107.083  1.00  0.00    -0.319 N 
ATOM      5  H2  UNL     1      16.633  32.968 107.663  1.00  0.00     0.166 HD
HETATM    6  C5  UNL     1      18.327  33.914 106.915  1.00  0.00     0.254 C 
HETATM    7  N3  UNL     1      18.581  34.508 105.618  1.00  0.00    -0.318 N 
ATOM      8  H3  UNL     1      19.433  34.198 105.149  1.00  0.00     0.166 HD
HETATM    9  C8  UNL     1      17.805  35.462 104.911  1.00  0.00     0.251 C 
HETATM   10  O5  UNL     1      17.992  35.414 103.666  1.00  0.00    -0.271 OA
HETATM   11  C9  UNL     1      16.849  36.473 105.355  1.00  0.00     0.238 C 
ENDROOT
BRANCH  11  12
HETATM   12  O6  UNL     1      16.371  37.169 104.250  1.00  0.00    -0.356 OA
BRANCH  12  13
HETATM   13  C10 UNL     1      16.208  38.532 104.462  1.00  0.00     0.262 C 
HETATM   14  C11 UNL     1      15.477  39.179 103.340  1.00  0.00     0.251 C 
HETATM   15  O7  UNL     1      14.500  39.948 103.628  1.00  0.00    -0.270 OA
HETATM   16  N4  UNL     1      15.770  39.014 101.981  1.00  0.00    -0.350 N 
HETATM   17  C12 UNL     1      16.712  38.006 101.479  1.00  0.00     0.225 C 
ATOM     18  H4  UNL     1      15.306  39.623 101.307  1.00  0.00     0.163 HD
HETATM   19  C13 UNL     1      16.972  38.178 100.032  1.00  0.00     0.235 C 
HETATM   20  O8  UNL     1      16.544  37.267  99.274  1.00  0.00    -0.272 OA
HETATM   21  N5  UNL     1      17.646  39.259  99.441  1.00  0.00    -0.351 N 
HETATM   22  C14 UNL     1      18.087  40.467 100.106  1.00  0.00     0.225 C 
ATOM     23  H5  UNL     1      17.845  39.186  98.444  1.00  0.00     0.163 HD
HETATM   24  C15 UNL     1      19.553  40.515 100.340  1.00  0.00     0.235 C 
HETATM   25  O9  UNL     1      20.282  40.231  99.353  1.00  0.00    -0.272 OA
HETATM   26  N6  UNL     1      20.158  40.856 101.582  1.00  0.00    -0.351 N 
HETATM   27  C16 UNL     1      19.726  40.384 102.879  1.00  0.00     0.225 C 
ATOM     28  H6  UNL     1      20.961  41.484 101.556  1.00  0.00     0.163 HD
HETATM   29  C17 UNL     1      18.587  41.121 103.424  1.00  0.00     0.237 C 
HETATM   30  O10 UNL     1      18.553  42.367 103.287  1.00  0.00    -0.272 OA
HETATM   31  N7  UNL     1      17.479  40.526 104.121  1.00  0.00    -0.331 N 
HETATM   32  C18 UNL     1      17.526  39.227 104.708  1.00  0.00     0.258 C 
ATOM     33  H7  UNL     1      16.614  41.061 104.199  1.00  0.00     0.165 HD
BRANCH  32  34
HETATM   34  O11 UNL     1      17.739  39.426 106.094  1.00  0.00    -0.374 OA
ATOM     35  H11 UNL     1      18.652  39.618 106.271  1.00  0.00     0.212 HD
ENDBRANCH  32  34
ENDBRANCH  12  13
ENDBRANCH  11  12
BRANCH   1  36
HETATM   36  S2  UNL     1      15.491  37.107 107.553  1.00  0.00    -0.079 SA
BRANCH  36  37
HETATM   37  S1  UNL     1      14.929  36.229 109.351  1.00  0.00    -0.079 SA
BRANCH  37  38
HETATM   38  C2  UNL     1      16.288  35.591 110.274  1.00  0.00     0.184 C 
BRANCH  38  39
HETATM   39  C1  UNL     1      16.007  34.582 111.321  1.00  0.00     0.256 C 
BRANCH  39  40
HETATM   40  N1  UNL     1      17.282  34.028 111.791  1.00  0.00    -0.078 N 
ATOM     41  H13 UNL     1      17.328  33.014 111.690  1.00  0.00     0.274 HD
ATOM     42  H12 UNL     1      18.062  34.265 111.178  1.00  0.00     0.274 HD
ATOM     43  H11 UNL     1      17.435  34.332 112.753  1.00  0.00     0.274 HD
ENDBRANCH  39  40
ENDBRANCH  38  39
BRANCH  38  44
HETATM   44  C19 UNL     1      16.982  36.747 110.927  1.00  0.00     0.189 C 
HETATM   45  O12 UNL     1      17.877  37.352 110.329  1.00  0.00    -0.647 OA
HETATM   46  O13 UNL     1      16.603  37.111 112.192  1.00  0.00    -0.647 OA
ENDBRANCH  38  44
ENDBRANCH  37  38
ENDBRANCH  36  37
ENDBRANCH   1  36
BRANCH   6  47
HETATM   47  C6  UNL     1      19.004  32.573 106.951  1.00  0.00     0.296 C 
HETATM   48  O2  UNL     1      19.133  31.959 105.934  1.00  0.00    -0.302 OA
ENDBRANCH   6  47
BRANCH   6  49
HETATM   49  C7  UNL     1      18.956  34.679 108.010  1.00  0.00     0.232 C 
HETATM   50  O3  UNL     1      19.112  34.140 109.114  1.00  0.00    -0.644 OA
HETATM   51  O4  UNL     1      19.358  35.972 107.803  1.00  0.00    -0.644 OA
ENDBRANCH   6  49
TORSDOF 11
ENDMDL
