MODEL 1
REMARK VINA RESULT: -8.749124200      0.000      0.000
REMARK  16 active torsions:
REMARK  status: ('A' for Active; 'I' for Inactive)
REMARK    1  A    between atoms: N1_5  and  C4_6 
REMARK    2  A    between atoms: C5_8  and  N2_9 
REMARK    3  A    between atoms: N2_9  and  C6_11 
REMARK    4  A    between atoms: C7_14  and  S1_15 
REMARK    5  A    between atoms: S1_15  and  N4_18 
REMARK    6  A    between atoms: N5_21  and  C10_22 
REMARK    7  A    between atoms: C10_22  and  C11_23 
REMARK    8  A    between atoms: C11_23  and  O5_24 
REMARK    9  A    between atoms: C11_23  and  C12_26 
REMARK   10  A    between atoms: C12_26  and  N6_27 
REMARK   11  A    between atoms: N6_27  and  C13_29 
REMARK   12  A    between atoms: C14_34  and  N9_35 
REMARK   13  A    between atoms: N9_35  and  C15_37 
REMARK   14  A    between atoms: C15_37  and  C16_38 
REMARK   15  A    between atoms: C16_38  and  O6_39 
REMARK   16  A    between atoms: C18_52  and  O8_53 
ROOT
HETATM    1  C6  UNL     1      18.916  37.066 103.721  1.00  0.00     0.687 A 
HETATM    2  N3  UNL     1      18.792  37.955 102.674  1.00  0.00    -0.164 N 
ATOM      3  H3  UNL     1      18.410  37.610 101.794  1.00  0.00     0.186 HD
HETATM    4  C7  UNL     1      19.145  39.244 102.746  1.00  0.00     0.238 A 
HETATM    5  N11 UNL     1      19.641  39.646 103.925  1.00  0.00    -0.283 N 
ATOM      6  H11 UNL     1      19.924  40.621 104.031  1.00  0.00     0.172 HD
HETATM    7  C17 UNL     1      19.781  38.817 104.970  1.00  0.00     0.340 A 
HETATM    8  O7  UNL     1      20.246  39.200 106.072  1.00  0.00    -0.246 OA
HETATM    9  N12 UNL     1      19.421  37.535 104.869  1.00  0.00    -0.141 N 
ATOM     10  H12 UNL     1      19.530  36.911 105.668  1.00  0.00     0.189 HD
ENDROOT
BRANCH   4  11
HETATM   11  S1  UNL     1      18.953  40.300 101.351  1.00  0.00     0.293 S 
HETATM   12  O3  UNL     1      18.650  39.494 100.132  1.00  0.00    -0.201 OA
HETATM   13  O4  UNL     1      20.269  41.033 101.167  1.00  0.00    -0.201 OA
BRANCH  11  14
HETATM   14  N4  UNL     1      17.729  41.465 101.654  1.00  0.00    -0.110 NA
HETATM   15  C8  UNL     1      16.490  40.866 102.137  1.00  0.00     0.154 A 
HETATM   16  C9  UNL     1      16.769  41.470 103.520  1.00  0.00     0.161 A 
HETATM   17  N5  UNL     1      17.869  42.046 102.883  1.00  0.00    -0.304 N 
BRANCH  17  18
HETATM   18  C10 UNL     1      18.380  43.314 103.088  1.00  0.00     0.139 C 
BRANCH  18  19
HETATM   19  C11 UNL     1      19.848  43.550 103.070  1.00  0.00     0.078 C 
BRANCH  19  20
HETATM   20  O5  UNL     1      20.637  42.477 103.419  1.00  0.00    -0.362 OA
ATOM     21  H5  UNL     1      21.308  42.232 102.793  1.00  0.00     0.217 HD
ENDBRANCH  19  20
BRANCH  19  22
HETATM   22  C12 UNL     1      20.344  44.334 101.879  1.00  0.00     0.203 C 
BRANCH  22  23
HETATM   23  N6  UNL     1      19.440  44.178 100.740  1.00  0.00    -0.218 N 
ATOM     24  H6  UNL     1      18.433  44.135 100.889  1.00  0.00     0.178 HD
BRANCH  23  25
HETATM   25  C13 UNL     1      19.926  44.093  99.530  1.00  0.00     0.708 A 
HETATM   26  N7  UNL     1      20.251  45.100  98.691  1.00  0.00    -0.117 N 
HETATM   27  N8  UNL     1      20.714  44.634  97.545  1.00  0.00    -0.117 N 
ATOM     28  H7  UNL     1      20.151  46.091  98.912  1.00  0.00     0.206 HD
HETATM   29  C14 UNL     1      20.683  43.288  97.662  1.00  0.00     0.707 A 
ATOM     30  H8  UNL     1      21.029  45.176  96.741  1.00  0.00     0.206 HD
HETATM   31  N10 UNL     1      20.200  42.971  98.880  1.00  0.00    -0.020 N 
ATOM     32  H10 UNL     1      20.067  42.026  99.240  1.00  0.00     0.203 HD
BRANCH  29  33
HETATM   33  N9  UNL     1      21.072  42.466  96.716  1.00  0.00    -0.222 N 
ATOM     34  H9  UNL     1      21.799  42.758  96.062  1.00  0.00     0.177 HD
BRANCH  33  35
HETATM   35  C15 UNL     1      20.482  41.151  96.591  1.00  0.00     0.164 C 
BRANCH  35  36
HETATM   36  C16 UNL     1      21.414  40.155  97.241  1.00  0.00     0.184 C 
BRANCH  36  37
HETATM   37  O6  UNL     1      21.166  40.055  98.613  1.00  0.00    -0.399 OA
ATOM     38  H6  UNL     1      21.977  40.037  99.107  1.00  0.00     0.209 HD
ENDBRANCH  36  37
ENDBRANCH  35  36
ENDBRANCH  33  35
ENDBRANCH  29  33
ENDBRANCH  23  25
ENDBRANCH  22  23
ENDBRANCH  19  22
ENDBRANCH  18  19
ENDBRANCH  17  18
ENDBRANCH  11  14
ENDBRANCH   4  11
BRANCH   1  39
HETATM   39  N2  UNL     1      18.541  35.868 103.519  1.00  0.00    -0.174 N 
ATOM     40  H2  UNL     1      17.851  35.542 104.197  1.00  0.00     0.182 HD
BRANCH  39  41
HETATM   41  C5  UNL     1      18.870  34.915 102.575  1.00  0.00     0.448 C 
HETATM   42  O2  UNL     1      19.802  35.335 101.641  1.00  0.00    -0.313 OA
HETATM   43  C4  UNL     1      19.775  34.454 100.571  1.00  0.00     0.292 C 
HETATM   44  C18 UNL     1      18.480  33.682 100.723  1.00  0.00     0.373 C 
HETATM   45  N13 UNL     1      17.745  34.417 101.759  1.00  0.00     0.000 N 
ATOM     46 2H13 UNL     1      17.036  33.883 102.261  1.00  0.00     0.285 HD
ATOM     47 1H13 UNL     1      17.094  35.126 101.421  1.00  0.00     0.285 HD
BRANCH  43  48
HETATM   48  N1  UNL     1      19.884  35.067  99.278  1.00  0.00    -0.278 N 
HETATM   49  C3  UNL     1      19.530  36.343  99.032  1.00  0.00     0.104 A 
HETATM   50  C2  UNL     1      19.617  36.933  97.813  1.00  0.00     0.092 A 
HETATM   51  C1  UNL     1      20.095  36.199  96.762  1.00  0.00     0.250 A 
HETATM   52  O1  UNL     1      20.204  36.669  95.622  1.00  0.00    -0.268 OA
HETATM   53  N14 UNL     1      20.452  34.914  97.012  1.00  0.00    -0.275 N 
HETATM   54  C19 UNL     1      20.353  34.359  98.229  1.00  0.00     0.331 A 
ATOM     55  H14 UNL     1      20.809  34.347  96.244  1.00  0.00     0.173 HD
HETATM   56  O9  UNL     1      20.712  33.143  98.379  1.00  0.00    -0.246 OA
ENDBRANCH  43  48
BRANCH  44  57
HETATM   57  O8  UNL     1      17.789  33.704  99.533  1.00  0.00    -0.366 OA
ATOM     58  H8  UNL     1      17.645  32.814  99.233  1.00  0.00     0.212 HD
ENDBRANCH  44  57
ENDBRANCH  39  41
ENDBRANCH   1  39
TORSDOF 16
ENDMDL
MODEL 2
REMARK VINA RESULT: -8.696053900      3.747      7.040
REMARK  16 active torsions:
REMARK  status: ('A' for Active; 'I' for Inactive)
REMARK    1  A    between atoms: N1_5  and  C4_6 
REMARK    2  A    between atoms: C5_8  and  N2_9 
REMARK    3  A    between atoms: N2_9  and  C6_11 
REMARK    4  A    between atoms: C7_14  and  S1_15 
REMARK    5  A    between atoms: S1_15  and  N4_18 
REMARK    6  A    between atoms: N5_21  and  C10_22 
REMARK    7  A    between atoms: C10_22  and  C11_23 
REMARK    8  A    between atoms: C11_23  and  O5_24 
REMARK    9  A    between atoms: C11_23  and  C12_26 
REMARK   10  A    between atoms: C12_26  and  N6_27 
REMARK   11  A    between atoms: N6_27  and  C13_29 
REMARK   12  A    between atoms: C14_34  and  N9_35 
REMARK   13  A    between atoms: N9_35  and  C15_37 
REMARK   14  A    between atoms: C15_37  and  C16_38 
REMARK   15  A    between atoms: C16_38  and  O6_39 
REMARK   16  A    between atoms: C18_52  and  O8_53 
ROOT
HETATM    1  C6  UNL     1      18.967  37.221 104.555  1.00  0.00     0.687 A 
HETATM    2  N3  UNL     1      19.083  38.490 104.027  1.00  0.00    -0.164 N 
ATOM      3  H3  UNL     1      19.088  39.279 104.673  1.00  0.00     0.186 HD
HETATM    4  C7  UNL     1      19.188  38.745 102.718  1.00  0.00     0.238 A 
HETATM    5  N11 UNL     1      19.176  37.672 101.913  1.00  0.00    -0.283 N 
ATOM      6  H11 UNL     1      19.256  37.813 100.906  1.00  0.00     0.172 HD
HETATM    7  C17 UNL     1      19.064  36.420 102.382  1.00  0.00     0.340 A 
HETATM    8  O7  UNL     1      19.055  35.420 101.624  1.00  0.00    -0.246 OA
HETATM    9  N12 UNL     1      18.960  36.196 103.694  1.00  0.00    -0.141 N 
ATOM     10  H12 UNL     1      18.876  35.241 104.042  1.00  0.00     0.189 HD
ENDROOT
BRANCH   4  11
HETATM   11  S1  UNL     1      19.327  40.402 102.141  1.00  0.00     0.293 S 
HETATM   12  O3  UNL     1      20.136  40.446 100.888  1.00  0.00    -0.201 OA
HETATM   13  O4  UNL     1      20.027  41.193 103.232  1.00  0.00    -0.201 OA
BRANCH  11  14
HETATM   14  N4  UNL     1      17.768  41.080 101.907  1.00  0.00    -0.110 NA
HETATM   15  C8  UNL     1      16.695  40.126 102.165  1.00  0.00     0.154 A 
HETATM   16  C9  UNL     1      16.343  40.908 103.438  1.00  0.00     0.161 A 
HETATM   17  N5  UNL     1      17.342  41.778 103.002  1.00  0.00    -0.304 N 
BRANCH  17  18
HETATM   18  C10 UNL     1      17.343  43.158 103.091  1.00  0.00     0.139 C 
BRANCH  18  19
HETATM   19  C11 UNL     1      17.608  43.994 101.892  1.00  0.00     0.078 C 
BRANCH  19  20
HETATM   20  O5  UNL     1      16.611  44.876 101.537  1.00  0.00    -0.362 OA
ATOM     21  H5  UNL     1      16.799  45.444 100.800  1.00  0.00     0.217 HD
ENDBRANCH  19  20
BRANCH  19  22
HETATM   22  C12 UNL     1      19.004  44.564 101.818  1.00  0.00     0.203 C 
BRANCH  22  23
HETATM   23  N6  UNL     1      19.906  43.642 101.127  1.00  0.00    -0.218 N 
ATOM     24  H6  UNL     1      20.427  42.944 101.656  1.00  0.00     0.178 HD
BRANCH  23  25
HETATM   25  C13 UNL     1      20.043  43.715  99.829  1.00  0.00     0.708 A 
HETATM   26  N7  UNL     1      20.179  44.823  99.068  1.00  0.00    -0.117 N 
HETATM   27  N8  UNL     1      20.292  44.510  97.790  1.00  0.00    -0.117 N 
ATOM     28  H7  UNL     1      20.193  45.775  99.432  1.00  0.00     0.206 HD
HETATM   29  C14 UNL     1      20.226  43.162  97.740  1.00  0.00     0.707 A 
ATOM     30  H8  UNL     1      20.405  45.151  97.006  1.00  0.00     0.206 HD
HETATM   31  N10 UNL     1      20.074  42.688  98.992  1.00  0.00    -0.020 N 
ATOM     32  H10 UNL     1      19.996  41.705  99.252  1.00  0.00     0.203 HD
BRANCH  29  33
HETATM   33  N9  UNL     1      20.304  42.470  96.627  1.00  0.00    -0.222 N 
ATOM     34  H9  UNL     1      20.539  42.944  95.754  1.00  0.00     0.177 HD
BRANCH  33  35
HETATM   35  C15 UNL     1      20.060  41.044  96.624  1.00  0.00     0.164 C 
BRANCH  35  36
HETATM   36  C16 UNL     1      21.371  40.344  96.900  1.00  0.00     0.184 C 
BRANCH  36  37
HETATM   37  O6  UNL     1      21.495  40.024  98.255  1.00  0.00    -0.399 OA
ATOM     38  H6  UNL     1      22.014  39.238  98.375  1.00  0.00     0.209 HD
ENDBRANCH  36  37
ENDBRANCH  35  36
ENDBRANCH  33  35
ENDBRANCH  29  33
ENDBRANCH  23  25
ENDBRANCH  22  23
ENDBRANCH  19  22
ENDBRANCH  18  19
ENDBRANCH  17  18
ENDBRANCH  11  14
ENDBRANCH   4  11
BRANCH   1  39
HETATM   39  N2  UNL     1      18.876  37.120 105.820  1.00  0.00    -0.174 N 
ATOM     40  H2  UNL     1      19.782  37.115 106.289  1.00  0.00     0.182 HD
BRANCH  39  41
HETATM   41  C5  UNL     1      17.810  37.014 106.691  1.00  0.00     0.448 C 
HETATM   42  O2  UNL     1      18.056  37.516 107.957  1.00  0.00    -0.313 OA
HETATM   43  C4  UNL     1      17.078  37.037 108.814  1.00  0.00     0.292 C 
HETATM   44  C18 UNL     1      16.434  35.880 108.077  1.00  0.00     0.373 C 
HETATM   45  N13 UNL     1      17.327  35.642 106.938  1.00  0.00     0.000 N 
ATOM     46 2H13 UNL     1      16.907  35.169 106.137  1.00  0.00     0.285 HD
ATOM     47 1H13 UNL     1      18.049  34.937 107.081  1.00  0.00     0.285 HD
BRANCH  43  48
HETATM   48  N1  UNL     1      17.547  36.649 110.114  1.00  0.00    -0.278 N 
HETATM   49  C3  UNL     1      18.663  35.921 110.311  1.00  0.00     0.104 A 
HETATM   50  C2  UNL     1      19.114  35.537 111.532  1.00  0.00     0.092 A 
HETATM   51  C1  UNL     1      18.400  35.908 112.639  1.00  0.00     0.250 A 
HETATM   52  O1  UNL     1      18.749  35.595 113.786  1.00  0.00    -0.268 OA
HETATM   53  N14 UNL     1      17.277  36.641 112.439  1.00  0.00    -0.275 N 
HETATM   54  C19 UNL     1      16.857  37.005 111.218  1.00  0.00     0.331 A 
ATOM     55  H14 UNL     1      16.729  36.927 113.250  1.00  0.00     0.173 HD
HETATM   56  O9  UNL     1      15.789  37.696 111.118  1.00  0.00    -0.246 OA
ENDBRANCH  43  48
BRANCH  44  57
HETATM   57  O8  UNL     1      16.394  34.777 108.899  1.00  0.00    -0.366 OA
ATOM     58  H8  UNL     1      16.195  35.049 109.787  1.00  0.00     0.212 HD
ENDBRANCH  44  57
ENDBRANCH  39  41
ENDBRANCH   1  39
TORSDOF 16
ENDMDL
MODEL 3
REMARK VINA RESULT: -8.569170412      3.285      7.639
REMARK  16 active torsions:
REMARK  status: ('A' for Active; 'I' for Inactive)
REMARK    1  A    between atoms: N1_5  and  C4_6 
REMARK    2  A    between atoms: C5_8  and  N2_9 
REMARK    3  A    between atoms: N2_9  and  C6_11 
REMARK    4  A    between atoms: C7_14  and  S1_15 
REMARK    5  A    between atoms: S1_15  and  N4_18 
REMARK    6  A    between atoms: N5_21  and  C10_22 
REMARK    7  A    between atoms: C10_22  and  C11_23 
REMARK    8  A    between atoms: C11_23  and  O5_24 
REMARK    9  A    between atoms: C11_23  and  C12_26 
REMARK   10  A    between atoms: C12_26  and  N6_27 
REMARK   11  A    between atoms: N6_27  and  C13_29 
REMARK   12  A    between atoms: C14_34  and  N9_35 
REMARK   13  A    between atoms: N9_35  and  C15_37 
REMARK   14  A    between atoms: C15_37  and  C16_38 
REMARK   15  A    between atoms: C16_38  and  O6_39 
REMARK   16  A    between atoms: C18_52  and  O8_53 
ROOT
HETATM    1  C6  UNL     1      18.064  41.014 102.494  1.00  0.00     0.687 A 
HETATM    2  N3  UNL     1      16.752  40.651 102.271  1.00  0.00    -0.164 N 
ATOM      3  H3  UNL     1      16.563  39.690 101.984  1.00  0.00     0.186 HD
HETATM    4  C7  UNL     1      15.715  41.484 102.408  1.00  0.00     0.238 A 
HETATM    5  N11 UNL     1      16.020  42.734 102.787  1.00  0.00    -0.283 N 
ATOM      6  H11 UNL     1      15.264  43.408 102.907  1.00  0.00     0.172 HD
HETATM    7  C17 UNL     1      17.281  43.133 103.014  1.00  0.00     0.340 A 
HETATM    8  O7  UNL     1      17.560  44.304 103.369  1.00  0.00    -0.246 OA
HETATM    9  N12 UNL     1      18.296  42.277 102.868  1.00  0.00    -0.141 N 
ATOM     10  H12 UNL     1      19.252  42.588 103.043  1.00  0.00     0.189 HD
ENDROOT
BRANCH   4  11
HETATM   11  S1  UNL     1      14.075  40.927 102.095  1.00  0.00     0.293 S 
HETATM   12  O3  UNL     1      14.062  39.991 100.932  1.00  0.00    -0.201 OA
HETATM   13  O4  UNL     1      13.244  42.157 101.773  1.00  0.00    -0.201 OA
BRANCH  11  14
HETATM   14  N4  UNL     1      13.421  40.192 103.501  1.00  0.00    -0.110 NA
HETATM   15  C8  UNL     1      11.966  40.275 103.553  1.00  0.00     0.154 A 
HETATM   16  C9  UNL     1      11.898  38.764 103.288  1.00  0.00     0.161 A 
HETATM   17  N5  UNL     1      13.289  38.840 103.359  1.00  0.00    -0.304 N 
BRANCH  17  18
HETATM   18  C10 UNL     1      14.146  37.913 103.923  1.00  0.00     0.139 C 
BRANCH  18  19
HETATM   19  C11 UNL     1      15.105  37.155 103.078  1.00  0.00     0.078 C 
BRANCH  19  20
HETATM   20  O5  UNL     1      15.949  37.910 102.294  1.00  0.00    -0.362 OA
ATOM     21  H5  UNL     1      16.573  38.455 102.757  1.00  0.00     0.217 HD
ENDBRANCH  19  20
BRANCH  19  22
HETATM   22  C12 UNL     1      15.769  35.989 103.770  1.00  0.00     0.203 C 
BRANCH  22  23
HETATM   23  N6  UNL     1      15.981  34.882 102.838  1.00  0.00    -0.218 N 
ATOM     24  H6  UNL     1      15.307  34.118 102.790  1.00  0.00     0.178 HD
BRANCH  23  25
HETATM   25  C13 UNL     1      17.036  34.873 102.067  1.00  0.00     0.708 A 
HETATM   26  N7  UNL     1      18.140  35.645 102.158  1.00  0.00    -0.117 N 
HETATM   27  N8  UNL     1      19.002  35.357 101.201  1.00  0.00    -0.117 N 
ATOM     28  H7  UNL     1      18.288  36.358 102.873  1.00  0.00     0.206 HD
HETATM   29  C14 UNL     1      18.427  34.369 100.480  1.00  0.00     0.707 A 
ATOM     30  H8  UNL     1      19.912  35.788 101.040  1.00  0.00     0.206 HD
HETATM   31  N10 UNL     1      17.226  34.083 101.020  1.00  0.00    -0.020 N 
ATOM     32  H10 UNL     1      16.573  33.377 100.679  1.00  0.00     0.203 HD
BRANCH  29  33
HETATM   33  N9  UNL     1      18.988  33.811  99.433  1.00  0.00    -0.222 N 
ATOM     34  H9  UNL     1      18.417  33.269  98.785  1.00  0.00     0.177 HD
BRANCH  33  35
HETATM   35  C15 UNL     1      20.407  33.957  99.189  1.00  0.00     0.164 C 
BRANCH  35  36
HETATM   36  C16 UNL     1      20.590  34.975  98.088  1.00  0.00     0.184 C 
BRANCH  36  37
HETATM   37  O6  UNL     1      20.641  36.273  98.604  1.00  0.00    -0.399 OA
ATOM     38  H6  UNL     1      19.794  36.699  98.542  1.00  0.00     0.209 HD
ENDBRANCH  36  37
ENDBRANCH  35  36
ENDBRANCH  33  35
ENDBRANCH  29  33
ENDBRANCH  23  25
ENDBRANCH  22  23
ENDBRANCH  19  22
ENDBRANCH  18  19
ENDBRANCH  17  18
ENDBRANCH  11  14
ENDBRANCH   4  11
BRANCH   1  39
HETATM   39  N2  UNL     1      18.955  40.120 102.329  1.00  0.00    -0.174 N 
ATOM     40  H2  UNL     1      19.462  40.216 101.448  1.00  0.00     0.182 HD
BRANCH  39  41
HETATM   41  C5  UNL     1      19.379  39.049 103.089  1.00  0.00     0.448 C 
HETATM   42  O2  UNL     1      18.368  38.399 103.776  1.00  0.00    -0.313 OA
HETATM   43  C4  UNL     1      18.945  37.606 104.754  1.00  0.00     0.292 C 
HETATM   44  C18 UNL     1      20.367  38.111 104.891  1.00  0.00     0.373 C 
HETATM   45  N13 UNL     1      20.374  39.367 104.132  1.00  0.00     0.000 N 
ATOM     46 2H13 UNL     1      21.285  39.676 103.796  1.00  0.00     0.285 HD
ATOM     47 1H13 UNL     1      20.193  40.212 104.674  1.00  0.00     0.285 HD
BRANCH  43  48
HETATM   48  N1  UNL     1      18.256  37.598 106.014  1.00  0.00    -0.278 N 
HETATM   49  C3  UNL     1      17.679  38.691 106.548  1.00  0.00     0.104 A 
HETATM   50  C2  UNL     1      17.034  38.703 107.742  1.00  0.00     0.092 A 
HETATM   51  C1  UNL     1      16.956  37.537 108.455  1.00  0.00     0.250 A 
HETATM   52  O1  UNL     1      16.384  37.470 109.551  1.00  0.00    -0.268 OA
HETATM   53  N14 UNL     1      17.537  36.438 107.915  1.00  0.00    -0.275 N 
HETATM   54  C19 UNL     1      18.168  36.458 106.732  1.00  0.00     0.331 A 
ATOM     55  H14 UNL     1      17.492  35.558 108.430  1.00  0.00     0.173 HD
HETATM   56  O9  UNL     1      18.687  35.378 106.295  1.00  0.00    -0.246 OA
ENDBRANCH  43  48
BRANCH  44  57
HETATM   57  O8  UNL     1      20.645  38.347 106.218  1.00  0.00    -0.366 OA
ATOM     58  H8  UNL     1      21.465  38.821 106.291  1.00  0.00     0.212 HD
ENDBRANCH  44  57
ENDBRANCH  39  41
ENDBRANCH   1  39
TORSDOF 16
ENDMDL
MODEL 4
REMARK VINA RESULT: -8.560776564      2.381      6.857
REMARK  16 active torsions:
REMARK  status: ('A' for Active; 'I' for Inactive)
REMARK    1  A    between atoms: N1_5  and  C4_6 
REMARK    2  A    between atoms: C5_8  and  N2_9 
REMARK    3  A    between atoms: N2_9  and  C6_11 
REMARK    4  A    between atoms: C7_14  and  S1_15 
REMARK    5  A    between atoms: S1_15  and  N4_18 
REMARK    6  A    between atoms: N5_21  and  C10_22 
REMARK    7  A    between atoms: C10_22  and  C11_23 
REMARK    8  A    between atoms: C11_23  and  O5_24 
REMARK    9  A    between atoms: C11_23  and  C12_26 
REMARK   10  A    between atoms: C12_26  and  N6_27 
REMARK   11  A    between atoms: N6_27  and  C13_29 
REMARK   12  A    between atoms: C14_34  and  N9_35 
REMARK   13  A    between atoms: N9_35  and  C15_37 
REMARK   14  A    between atoms: C15_37  and  C16_38 
REMARK   15  A    between atoms: C16_38  and  O6_39 
REMARK   16  A    between atoms: C18_52  and  O8_53 
ROOT
HETATM    1  C6  UNL     1      19.413  41.964  99.252  1.00  0.00     0.687 A 
HETATM    2  N3  UNL     1      19.474  42.265 100.596  1.00  0.00    -0.164 N 
ATOM      3  H3  UNL     1      19.172  41.553 101.262  1.00  0.00     0.186 HD
HETATM    4  C7  UNL     1      19.906  43.436 101.079  1.00  0.00     0.238 A 
HETATM    5  N11 UNL     1      20.291  44.336 100.162  1.00  0.00    -0.283 N 
ATOM      6  H11 UNL     1      20.630  45.244 100.479  1.00  0.00     0.172 HD
HETATM    7  C17 UNL     1      20.248  44.087  98.844  1.00  0.00     0.340 A 
HETATM    8  O7  UNL     1      20.611  44.933  97.991  1.00  0.00    -0.246 OA
HETATM    9  N12 UNL     1      19.812  42.909  98.392  1.00  0.00    -0.141 N 
ATOM     10  H12 UNL     1      19.782  42.728  97.389  1.00  0.00     0.189 HD
ENDROOT
BRANCH   4  11
HETATM   11  S1  UNL     1      19.941  43.727 102.814  1.00  0.00     0.293 S 
HETATM   12  O3  UNL     1      19.980  45.193 103.091  1.00  0.00    -0.201 OA
HETATM   13  O4  UNL     1      21.203  43.070 103.347  1.00  0.00    -0.201 OA
BRANCH  11  14
HETATM   14  N4  UNL     1      18.591  42.981 103.568  1.00  0.00    -0.110 NA
HETATM   15  C8  UNL     1      17.319  43.438 103.021  1.00  0.00     0.154 A 
HETATM   16  C9  UNL     1      17.137  42.060 102.368  1.00  0.00     0.161 A 
HETATM   17  N5  UNL     1      18.322  41.752 103.035  1.00  0.00    -0.304 N 
BRANCH  17  18
HETATM   18  C10 UNL     1      18.647  40.554 103.645  1.00  0.00     0.139 C 
BRANCH  18  19
HETATM   19  C11 UNL     1      19.762  39.718 103.126  1.00  0.00     0.078 C 
BRANCH  19  20
HETATM   20  O5  UNL     1      20.759  40.390 102.454  1.00  0.00    -0.362 OA
ATOM     21  H5  UNL     1      21.516  40.639 102.971  1.00  0.00     0.217 HD
ENDBRANCH  19  20
BRANCH  19  22
HETATM   22  C12 UNL     1      20.254  38.660 104.084  1.00  0.00     0.203 C 
BRANCH  22  23
HETATM   23  N6  UNL     1      19.704  37.349 103.738  1.00  0.00    -0.218 N 
ATOM     24  H6  UNL     1      19.799  36.990 102.789  1.00  0.00     0.178 HD
BRANCH  23  25
HETATM   25  C13 UNL     1      19.090  36.640 104.648  1.00  0.00     0.708 A 
HETATM   26  N7  UNL     1      18.816  36.983 105.925  1.00  0.00    -0.117 N 
HETATM   27  N8  UNL     1      18.182  36.009 106.553  1.00  0.00    -0.117 N 
ATOM     28  H7  UNL     1      19.065  37.876 106.349  1.00  0.00     0.206 HD
HETATM   29  C14 UNL     1      18.050  35.018 105.644  1.00  0.00     0.707 A 
ATOM     30  H8  UNL     1      17.860  36.006 107.520  1.00  0.00     0.206 HD
HETATM   31  N10 UNL     1      18.609  35.416 104.484  1.00  0.00    -0.020 N 
ATOM     32  H10 UNL     1      18.654  34.867 103.626  1.00  0.00     0.203 HD
BRANCH  29  33
HETATM   33  N9  UNL     1      17.463  33.871 105.898  1.00  0.00    -0.222 N 
ATOM     34  H9  UNL     1      16.540  33.863 106.332  1.00  0.00     0.177 HD
BRANCH  33  35
HETATM   35  C15 UNL     1      18.111  32.620 105.568  1.00  0.00     0.164 C 
BRANCH  35  36
HETATM   36  C16 UNL     1      19.053  32.269 106.696  1.00  0.00     0.184 C 
BRANCH  36  37
HETATM   37  O6  UNL     1      19.424  30.923 106.642  1.00  0.00    -0.399 OA
ATOM     38  H6  UNL     1      19.596  30.579 107.510  1.00  0.00     0.209 HD
ENDBRANCH  36  37
ENDBRANCH  35  36
ENDBRANCH  33  35
ENDBRANCH  29  33
ENDBRANCH  23  25
ENDBRANCH  22  23
ENDBRANCH  19  22
ENDBRANCH  18  19
ENDBRANCH  17  18
ENDBRANCH  11  14
ENDBRANCH   4  11
BRANCH   1  39
HETATM   39  N2  UNL     1      18.983  40.811  98.930  1.00  0.00    -0.174 N 
ATOM     40  H2  UNL     1      18.914  40.674  97.921  1.00  0.00     0.182 HD
BRANCH  39  41
HETATM   41  C5  UNL     1      18.590  39.705  99.657  1.00  0.00     0.448 C 
HETATM   42  O2  UNL     1      19.583  38.757  99.838  1.00  0.00    -0.313 OA
HETATM   43  C4  UNL     1      18.988  37.575 100.247  1.00  0.00     0.292 C 
HETATM   44  C18 UNL     1      17.516  37.736  99.925  1.00  0.00     0.373 C 
HETATM   45  N13 UNL     1      17.464  38.939  99.088  1.00  0.00     0.000 N 
ATOM     46 2H13 UNL     1      16.566  39.423  99.064  1.00  0.00     0.285 HD
ATOM     47 1H13 UNL     1      17.501  38.780  98.081  1.00  0.00     0.285 HD
BRANCH  43  48
HETATM   48  N1  UNL     1      19.537  36.385  99.660  1.00  0.00    -0.278 N 
HETATM   49  C3  UNL     1      20.083  36.351  98.430  1.00  0.00     0.104 A 
HETATM   50  C2  UNL     1      20.597  35.232  97.857  1.00  0.00     0.092 A 
HETATM   51  C1  UNL     1      20.565  34.061  98.565  1.00  0.00     0.250 A 
HETATM   52  O1  UNL     1      21.014  33.001  98.109  1.00  0.00    -0.268 OA
HETATM   53  N14 UNL     1      20.015  34.098  99.804  1.00  0.00    -0.275 N 
HETATM   54  C19 UNL     1      19.515  35.220 100.342  1.00  0.00     0.331 A 
ATOM     55  H14 UNL     1      19.979  33.236 100.349  1.00  0.00     0.173 HD
HETATM   56  O9  UNL     1      19.016  35.168 101.516  1.00  0.00    -0.246 OA
ENDBRANCH  43  48
BRANCH  44  57
HETATM   57  O8  UNL     1      17.076  36.638  99.221  1.00  0.00    -0.366 OA
ATOM     58  H8  UNL     1      17.181  35.858  99.753  1.00  0.00     0.212 HD
ENDBRANCH  44  57
ENDBRANCH  39  41
ENDBRANCH   1  39
TORSDOF 16
ENDMDL
MODEL 5
REMARK VINA RESULT: -8.519588459      5.701     10.201
REMARK  16 active torsions:
REMARK  status: ('A' for Active; 'I' for Inactive)
REMARK    1  A    between atoms: N1_5  and  C4_6 
REMARK    2  A    between atoms: C5_8  and  N2_9 
REMARK    3  A    between atoms: N2_9  and  C6_11 
REMARK    4  A    between atoms: C7_14  and  S1_15 
REMARK    5  A    between atoms: S1_15  and  N4_18 
REMARK    6  A    between atoms: N5_21  and  C10_22 
REMARK    7  A    between atoms: C10_22  and  C11_23 
REMARK    8  A    between atoms: C11_23  and  O5_24 
REMARK    9  A    between atoms: C11_23  and  C12_26 
REMARK   10  A    between atoms: C12_26  and  N6_27 
REMARK   11  A    between atoms: N6_27  and  C13_29 
REMARK   12  A    between atoms: C14_34  and  N9_35 
REMARK   13  A    between atoms: N9_35  and  C15_37 
REMARK   14  A    between atoms: C15_37  and  C16_38 
REMARK   15  A    between atoms: C16_38  and  O6_39 
REMARK   16  A    between atoms: C18_52  and  O8_53 
ROOT
HETATM    1  C6  UNL     1      16.264  37.134 107.268  1.00  0.00     0.687 A 
HETATM    2  N3  UNL     1      16.151  36.930 108.627  1.00  0.00    -0.164 N 
ATOM      3  H3  UNL     1      16.978  37.082 109.205  1.00  0.00     0.186 HD
HETATM    4  C7  UNL     1      15.021  36.546 109.232  1.00  0.00     0.238 A 
HETATM    5  N11 UNL     1      13.965  36.362 108.426  1.00  0.00    -0.283 N 
ATOM      6  H11 UNL     1      13.079  36.070 108.839  1.00  0.00     0.172 HD
HETATM    7  C17 UNL     1      14.028  36.546 107.099  1.00  0.00     0.340 A 
HETATM    8  O7  UNL     1      13.035  36.373 106.351  1.00  0.00    -0.246 OA
HETATM    9  N12 UNL     1      15.170  36.930 106.523  1.00  0.00    -0.141 N 
ATOM     10  H12 UNL     1      15.210  37.068 105.513  1.00  0.00     0.189 HD
ENDROOT
BRANCH   4  11
HETATM   11  S1  UNL     1      14.979  36.308 110.975  1.00  0.00     0.293 S 
HETATM   12  O3  UNL     1      15.427  34.926 111.318  1.00  0.00    -0.201 OA
HETATM   13  O4  UNL     1      13.538  36.504 111.413  1.00  0.00    -0.201 OA
BRANCH  11  14
HETATM   14  N4  UNL     1      15.942  37.494 111.758  1.00  0.00    -0.110 NA
HETATM   15  C8  UNL     1      15.299  38.046 112.944  1.00  0.00     0.154 A 
HETATM   16  C9  UNL     1      16.322  37.301 113.812  1.00  0.00     0.161 A 
HETATM   17  N5  UNL     1      16.873  36.933 112.585  1.00  0.00    -0.304 N 
BRANCH  17  18
HETATM   18  C10 UNL     1      18.216  36.817 112.276  1.00  0.00     0.139 C 
BRANCH  18  19
HETATM   19  C11 UNL     1      18.788  35.509 111.862  1.00  0.00     0.078 C 
BRANCH  19  20
HETATM   20  O5  UNL     1      18.163  34.389 112.364  1.00  0.00    -0.362 OA
ATOM     21  H5  UNL     1      17.612  33.911 111.756  1.00  0.00     0.217 HD
ENDBRANCH  19  20
BRANCH  19  22
HETATM   22  C12 UNL     1      19.158  35.419 110.401  1.00  0.00     0.203 C 
BRANCH  22  23
HETATM   23  N6  UNL     1      18.145  34.676 109.652  1.00  0.00    -0.218 N 
ATOM     24  H6  UNL     1      17.163  34.739 109.921  1.00  0.00     0.178 HD
BRANCH  23  25
HETATM   25  C13 UNL     1      18.499  33.931 108.639  1.00  0.00     0.708 A 
HETATM   26  N7  UNL     1      19.538  33.071 108.563  1.00  0.00    -0.117 N 
HETATM   27  N8  UNL     1      19.588  32.491 107.377  1.00  0.00    -0.117 N 
ATOM     28  H7  UNL     1      20.197  32.892 109.320  1.00  0.00     0.206 HD
HETATM   29  C14 UNL     1      18.548  32.999 106.681  1.00  0.00     0.707 A 
ATOM     30  H8  UNL     1      20.269  31.804 107.055  1.00  0.00     0.206 HD
HETATM   31  N10 UNL     1      17.890  33.877 107.463  1.00  0.00    -0.020 N 
ATOM     32  H10 UNL     1      17.063  34.411 107.196  1.00  0.00     0.203 HD
BRANCH  29  33
HETATM   33  N9  UNL     1      18.264  32.659 105.445  1.00  0.00    -0.222 N 
ATOM     34  H9  UNL     1      17.934  31.715 105.245  1.00  0.00     0.177 HD
BRANCH  33  35
HETATM   35  C15 UNL     1      18.413  33.610 104.364  1.00  0.00     0.164 C 
BRANCH  35  36
HETATM   36  C16 UNL     1      17.033  34.038 103.923  1.00  0.00     0.184 C 
BRANCH  36  37
HETATM   37  O6  UNL     1      16.539  35.062 104.736  1.00  0.00    -0.399 OA
ATOM     38  H6  UNL     1      16.863  34.980 105.625  1.00  0.00     0.209 HD
ENDBRANCH  36  37
ENDBRANCH  35  36
ENDBRANCH  33  35
ENDBRANCH  29  33
ENDBRANCH  23  25
ENDBRANCH  22  23
ENDBRANCH  19  22
ENDBRANCH  18  19
ENDBRANCH  17  18
ENDBRANCH  11  14
ENDBRANCH   4  11
BRANCH   1  39
HETATM   39  N2  UNL     1      17.398  37.501 106.823  1.00  0.00    -0.174 N 
ATOM     40  H2  UNL     1      18.181  37.094 107.334  1.00  0.00     0.182 HD
BRANCH  39  41
HETATM   41  C5  UNL     1      17.791  38.333 105.794  1.00  0.00     0.448 C 
HETATM   42  O2  UNL     1      17.048  39.496 105.684  1.00  0.00    -0.313 OA
HETATM   43  C4  UNL     1      17.288  40.051 104.438  1.00  0.00     0.292 C 
HETATM   44  C18 UNL     1      17.927  38.944 103.624  1.00  0.00     0.373 C 
HETATM   45  N13 UNL     1      17.734  37.742 104.443  1.00  0.00     0.000 N 
ATOM     46 2H13 UNL     1      18.384  36.977 104.266  1.00  0.00     0.285 HD
ATOM     47 1H13 UNL     1      16.899  37.194 104.235  1.00  0.00     0.285 HD
BRANCH  43  48
HETATM   48  N1  UNL     1      16.133  40.598 103.784  1.00  0.00    -0.278 N 
HETATM   49  C3  UNL     1      14.873  40.210 104.061  1.00  0.00     0.104 A 
HETATM   50  C2  UNL     1      13.772  40.710 103.445  1.00  0.00     0.092 A 
HETATM   51  C1  UNL     1      13.939  41.668 102.482  1.00  0.00     0.250 A 
HETATM   52  O1  UNL     1      12.982  42.171 101.877  1.00  0.00    -0.268 OA
HETATM   53  N14 UNL     1      15.208  42.058 102.205  1.00  0.00    -0.275 N 
HETATM   54  C19 UNL     1      16.277  41.544 102.832  1.00  0.00     0.331 A 
ATOM     55  H14 UNL     1      15.356  42.770 101.490  1.00  0.00     0.173 HD
HETATM   56  O9  UNL     1      17.437  41.967 102.511  1.00  0.00    -0.246 OA
ENDBRANCH  43  48
BRANCH  44  57
HETATM   57  O8  UNL     1      17.269  38.820 102.421  1.00  0.00    -0.366 OA
ATOM     58  H8  UNL     1      16.344  38.673 102.579  1.00  0.00     0.212 HD
ENDBRANCH  44  57
ENDBRANCH  39  41
ENDBRANCH   1  39
TORSDOF 16
ENDMDL
