MODEL 1
REMARK VINA RESULT: -7.396426185      0.000      0.000
REMARK  0 active torsions:
REMARK  status: ('A' for Active; 'I' for Inactive)
ROOT
HETATM    1  O1  UNL     1      18.759  72.376   2.613  1.00  0.00    -0.274 OA
HETATM    2  C1  UNL     1      17.774  73.142   2.519  1.00  0.00     0.219 C 
HETATM    3  C2  UNL     1      17.169  73.615   3.784  1.00  0.00     0.103 C 
HETATM    4  C3  UNL     1      17.598  72.806   4.964  1.00  0.00     0.009 C 
HETATM    5  C4  UNL     1      16.819  73.324   6.175  1.00  0.00     0.000 C 
HETATM    6  C5  UNL     1      17.457  74.579   6.715  1.00  0.00     0.000 C 
HETATM    7  C6  UNL     1      16.512  75.419   7.516  1.00  0.00     0.000 C 
HETATM    8  C7  UNL     1      15.517  76.174   6.676  1.00  0.00     0.000 C 
HETATM    9  C8  UNL     1      16.132  77.271   5.861  1.00  0.00     0.000 C 
HETATM   10  C9  UNL     1      15.033  78.166   5.337  1.00  0.00     0.000 C 
HETATM   11  C10 UNL     1      14.549  77.718   3.964  1.00  0.00     0.000 C 
HETATM   12  C11 UNL     1      15.233  78.521   2.901  1.00  0.00     0.002 C 
HETATM   13  C12 UNL     1      16.126  77.700   2.014  1.00  0.00     0.032 C 
HETATM   14  C13 UNL     1      15.455  76.475   1.462  1.00  0.00     0.124 C 
HETATM   15  C14 UNL     1      15.505  76.368  -0.022  1.00  0.00     0.036 C 
HETATM   16  C15 UNL     1      16.065  74.994  -0.272  1.00  0.00     0.056 C 
HETATM   17  C16 UNL     1      16.104  74.368   1.080  1.00  0.00     0.223 C 
HETATM   18  N1  UNL     1      17.273  73.529   1.257  1.00  0.00    -0.335 N 
ATOM     19  H1  UNL     1      17.760  73.200   0.424  1.00  0.00     0.165 HD
HETATM   20  O2  UNL     1      16.009  75.367   2.022  1.00  0.00    -0.361 OA
ENDROOT
TORSDOF 0
ENDMDL
MODEL 2
REMARK VINA RESULT: -6.897625382      4.486      6.886
REMARK  0 active torsions:
REMARK  status: ('A' for Active; 'I' for Inactive)
ROOT
HETATM    1  O1  UNL     1      17.209  78.250   5.263  1.00  0.00    -0.274 OA
HETATM    2  C1  UNL     1      16.959  77.399   6.145  1.00  0.00     0.219 C 
HETATM    3  C2  UNL     1      17.997  77.181   7.178  1.00  0.00     0.103 C 
HETATM    4  C3  UNL     1      19.325  77.738   6.786  1.00  0.00     0.009 C 
HETATM    5  C4  UNL     1      20.322  77.347   7.880  1.00  0.00     0.000 C 
HETATM    6  C5  UNL     1      20.201  78.276   9.060  1.00  0.00     0.000 C 
HETATM    7  C6  UNL     1      20.721  77.681  10.331  1.00  0.00     0.000 C 
HETATM    8  C7  UNL     1      19.806  76.648  10.932  1.00  0.00     0.000 C 
HETATM    9  C8  UNL     1      18.532  77.222  11.475  1.00  0.00     0.000 C 
HETATM   10  C9  UNL     1      17.859  76.182  12.343  1.00  0.00     0.000 C 
HETATM   11  C10 UNL     1      16.878  75.333  11.545  1.00  0.00     0.000 C 
HETATM   12  C11 UNL     1      15.491  75.871  11.718  1.00  0.00     0.002 C 
HETATM   13  C12 UNL     1      14.893  76.400  10.444  1.00  0.00     0.032 C 
HETATM   14  C13 UNL     1      14.996  75.440   9.294  1.00  0.00     0.124 C 
HETATM   15  C14 UNL     1      13.695  75.132   8.638  1.00  0.00     0.036 C 
HETATM   16  C15 UNL     1      13.946  75.401   7.179  1.00  0.00     0.056 C 
HETATM   17  C16 UNL     1      15.413  75.653   7.106  1.00  0.00     0.223 C 
HETATM   18  N1  UNL     1      15.740  76.688   6.145  1.00  0.00    -0.335 N 
ATOM     19  H1  UNL     1      15.050  76.915   5.428  1.00  0.00     0.165 HD
HETATM   20  O2  UNL     1      15.868  75.931   8.374  1.00  0.00    -0.361 OA
ENDROOT
TORSDOF 0
ENDMDL
MODEL 3
REMARK VINA RESULT: -6.646473012      1.881      3.128
REMARK  0 active torsions:
REMARK  status: ('A' for Active; 'I' for Inactive)
ROOT
HETATM    1  O1  UNL     1      17.589  73.510   2.084  1.00  0.00    -0.274 OA
HETATM    2  C1  UNL     1      16.694  74.235   2.575  1.00  0.00     0.219 C 
HETATM    3  C2  UNL     1      15.901  73.661   3.685  1.00  0.00     0.103 C 
HETATM    4  C3  UNL     1      16.046  72.178   3.789  1.00  0.00     0.009 C 
HETATM    5  C4  UNL     1      15.095  71.706   4.891  1.00  0.00     0.000 C 
HETATM    6  C5  UNL     1      15.708  71.931   6.249  1.00  0.00     0.000 C 
HETATM    7  C6  UNL     1      14.693  72.003   7.346  1.00  0.00     0.000 C 
HETATM    8  C7  UNL     1      13.925  73.298   7.374  1.00  0.00     0.000 C 
HETATM    9  C8  UNL     1      14.757  74.477   7.781  1.00  0.00     0.000 C 
HETATM   10  C9  UNL     1      13.838  75.633   8.106  1.00  0.00     0.000 C 
HETATM   11  C10 UNL     1      13.587  76.511   6.888  1.00  0.00     0.000 C 
HETATM   12  C11 UNL     1      14.511  77.689   6.916  1.00  0.00     0.002 C 
HETATM   13  C12 UNL     1      15.492  77.706   5.777  1.00  0.00     0.032 C 
HETATM   14  C13 UNL     1      14.850  77.514   4.433  1.00  0.00     0.124 C 
HETATM   15  C14 UNL     1      15.166  78.584   3.448  1.00  0.00     0.036 C 
HETATM   16  C15 UNL     1      15.665  77.836   2.241  1.00  0.00     0.056 C 
HETATM   17  C16 UNL     1      15.409  76.406   2.572  1.00  0.00     0.223 C 
HETATM   18  N1  UNL     1      16.464  75.538   2.084  1.00  0.00    -0.335 N 
ATOM     19  H1  UNL     1      17.073  75.889   1.345  1.00  0.00     0.165 HD
HETATM   20  O2  UNL     1      15.213  76.304   3.930  1.00  0.00    -0.361 OA
ENDROOT
TORSDOF 0
ENDMDL
MODEL 4
REMARK VINA RESULT: -6.534748040      1.913      4.725
REMARK  0 active torsions:
REMARK  status: ('A' for Active; 'I' for Inactive)
ROOT
HETATM    1  O1  UNL     1      17.338  72.549   6.076  1.00  0.00    -0.274 OA
HETATM    2  C1  UNL     1      17.241  73.686   5.564  1.00  0.00     0.219 C 
HETATM    3  C2  UNL     1      17.251  73.758   4.085  1.00  0.00     0.103 C 
HETATM    4  C3  UNL     1      17.752  72.502   3.452  1.00  0.00     0.009 C 
HETATM    5  C4  UNL     1      17.819  72.751   1.943  1.00  0.00     0.000 C 
HETATM    6  C5  UNL     1      16.453  72.602   1.323  1.00  0.00     0.000 C 
HETATM    7  C6  UNL     1      16.320  73.320   0.017  1.00  0.00     0.000 C 
HETATM    8  C7  UNL     1      16.196  74.813   0.159  1.00  0.00     0.000 C 
HETATM    9  C8  UNL     1      14.899  75.249   0.770  1.00  0.00     0.000 C 
HETATM   10  C9  UNL     1      14.733  76.737   0.553  1.00  0.00     0.000 C 
HETATM   11  C10 UNL     1      15.298  77.540   1.717  1.00  0.00     0.000 C 
HETATM   12  C11 UNL     1      14.192  77.907   2.660  1.00  0.00     0.002 C 
HETATM   13  C12 UNL     1      14.333  77.278   4.018  1.00  0.00     0.032 C 
HETATM   14  C13 UNL     1      15.692  77.471   4.626  1.00  0.00     0.124 C 
HETATM   15  C14 UNL     1      15.671  78.088   5.981  1.00  0.00     0.036 C 
HETATM   16  C15 UNL     1      16.491  77.148   6.825  1.00  0.00     0.056 C 
HETATM   17  C16 UNL     1      17.064  76.187   5.840  1.00  0.00     0.223 C 
HETATM   18  N1  UNL     1      17.126  74.839   6.370  1.00  0.00    -0.335 N 
ATOM     19  H1  UNL     1      17.084  74.716   7.382  1.00  0.00     0.165 HD
HETATM   20  O2  UNL     1      16.338  76.276   4.675  1.00  0.00    -0.361 OA
ENDROOT
TORSDOF 0
ENDMDL
MODEL 5
REMARK VINA RESULT: -6.530597726      1.959      4.899
REMARK  0 active torsions:
REMARK  status: ('A' for Active; 'I' for Inactive)
ROOT
HETATM    1  O1  UNL     1      16.844  71.427   5.162  1.00  0.00    -0.274 OA
HETATM    2  C1  UNL     1      17.007  72.656   5.328  1.00  0.00     0.219 C 
HETATM    3  C2  UNL     1      16.791  73.526   4.150  1.00  0.00     0.103 C 
HETATM    4  C3  UNL     1      16.780  72.763   2.866  1.00  0.00     0.009 C 
HETATM    5  C4  UNL     1      16.665  73.785   1.733  1.00  0.00     0.000 C 
HETATM    6  C5  UNL     1      15.234  74.227   1.564  1.00  0.00     0.000 C 
HETATM    7  C6  UNL     1      15.106  75.554   0.886  1.00  0.00     0.000 C 
HETATM    8  C7  UNL     1      15.460  76.720   1.770  1.00  0.00     0.000 C 
HETATM    9  C8  UNL     1      14.473  76.954   2.874  1.00  0.00     0.000 C 
HETATM   10  C9  UNL     1      14.726  78.319   3.474  1.00  0.00     0.000 C 
HETATM   11  C10 UNL     1      15.692  78.245   4.649  1.00  0.00     0.000 C 
HETATM   12  C11 UNL     1      14.920  78.208   5.933  1.00  0.00     0.002 C 
HETATM   13  C12 UNL     1      15.092  76.923   6.695  1.00  0.00     0.032 C 
HETATM   14  C13 UNL     1      16.528  76.525   6.878  1.00  0.00     0.124 C 
HETATM   15  C14 UNL     1      16.920  76.289   8.295  1.00  0.00     0.036 C 
HETATM   16  C15 UNL     1      17.550  74.922   8.279  1.00  0.00     0.056 C 
HETATM   17  C16 UNL     1      17.636  74.582   6.830  1.00  0.00     0.223 C 
HETATM   18  N1  UNL     1      17.379  73.176   6.587  1.00  0.00    -0.335 N 
ATOM     19  H1  UNL     1      17.472  72.527   7.368  1.00  0.00     0.165 HD
HETATM   20  O2  UNL     1      16.785  75.414   6.139  1.00  0.00    -0.361 OA
ENDROOT
TORSDOF 0
ENDMDL
