MODEL 1
REMARK VINA RESULT: -9.244436209      0.000      0.000
REMARK  0 active torsions:
REMARK  status: ('A' for Active; 'I' for Inactive)
ROOT
HETATM    1  C1  UNL     1      19.805  77.723  11.426  1.00  0.00    -0.031 C 
HETATM    2  C2  UNL     1      20.389  78.020  10.276  1.00  0.00    -0.031 C 
HETATM    3  C3  UNL     1      20.898  77.090   9.271  1.00  0.00     0.027 C 
HETATM    4  C4  UNL     1      19.893  76.420   8.402  1.00  0.00     0.004 C 
HETATM    5  C5  UNL     1      18.991  77.309   7.618  1.00  0.00     0.001 C 
HETATM    6  C6  UNL     1      17.656  77.587   8.219  1.00  0.00     0.009 C 
HETATM    7  C7  UNL     1      16.502  76.894   7.573  1.00  0.00     0.037 C 
HETATM    8  C8  UNL     1      15.209  77.416   8.158  1.00  0.00     0.085 C 
HETATM    9  C9  UNL     1      14.141  77.001   7.167  1.00  0.00     0.025 C 
HETATM   10  C10 UNL     1      14.043  75.522   7.135  1.00  0.00     0.004 C 
HETATM   11  C11 UNL     1      15.297  74.752   7.162  1.00  0.00     0.032 C 
HETATM   12  C12 UNL     1      16.463  75.407   7.834  1.00  0.00     0.130 C 
HETATM   13  O1  UNL     1      16.478  75.231   9.192  1.00  0.00    -0.361 OA
HETATM   14  C13 UNL     1      15.439  75.744   9.901  1.00  0.00     0.217 C 
HETATM   15  C14 UNL     1      15.859  75.851  11.359  1.00  0.00     0.053 C 
HETATM   16  C15 UNL     1      17.258  75.317  11.603  1.00  0.00     0.004 C 
HETATM   17  C16 UNL     1      18.104  76.234  12.448  1.00  0.00     0.004 C 
HETATM   18  C17 UNL     1      19.542  76.348  11.936  1.00  0.00     0.027 C 
HETATM   19  N1  UNL     1      14.955  77.016   9.484  1.00  0.00    -0.392 N 
ATOM     20  H1  UNL     1      14.440  77.619  10.127  1.00  0.00     0.156 HD
ENDROOT
TORSDOF 0
ENDMDL
MODEL 2
REMARK VINA RESULT: -8.877706383      1.299      3.370
REMARK  0 active torsions:
REMARK  status: ('A' for Active; 'I' for Inactive)
ROOT
HETATM    1  C1  UNL     1      20.737  75.718  10.328  1.00  0.00    -0.031 C 
HETATM    2  C2  UNL     1      20.094  75.261  11.390  1.00  0.00    -0.031 C 
HETATM    3  C3  UNL     1      19.266  76.022  12.324  1.00  0.00     0.027 C 
HETATM    4  C4  UNL     1      17.903  76.400  11.863  1.00  0.00     0.004 C 
HETATM    5  C5  UNL     1      17.008  75.287  11.442  1.00  0.00     0.001 C 
HETATM    6  C6  UNL     1      16.957  74.998   9.982  1.00  0.00     0.009 C 
HETATM    7  C7  UNL     1      15.710  75.429   9.282  1.00  0.00     0.037 C 
HETATM    8  C8  UNL     1      15.720  74.903   7.864  1.00  0.00     0.085 C 
HETATM    9  C9  UNL     1      14.281  75.003   7.405  1.00  0.00     0.025 C 
HETATM   10  C10 UNL     1      13.879  76.429   7.342  1.00  0.00     0.004 C 
HETATM   11  C11 UNL     1      14.319  77.313   8.433  1.00  0.00     0.032 C 
HETATM   12  C12 UNL     1      15.585  76.926   9.131  1.00  0.00     0.130 C 
HETATM   13  O1  UNL     1      16.715  77.367   8.493  1.00  0.00    -0.361 OA
HETATM   14  C13 UNL     1      16.948  76.901   7.239  1.00  0.00     0.217 C 
HETATM   15  C14 UNL     1      18.415  77.127   6.907  1.00  0.00     0.053 C 
HETATM   16  C15 UNL     1      19.160  77.838   8.020  1.00  0.00     0.004 C 
HETATM   17  C16 UNL     1      20.483  77.197   8.352  1.00  0.00     0.004 C 
HETATM   18  C17 UNL     1      20.744  77.132   9.860  1.00  0.00     0.027 C 
HETATM   19  N1  UNL     1      16.647  75.529   7.007  1.00  0.00    -0.392 N 
ATOM     20  H1  UNL     1      17.089  75.015   6.245  1.00  0.00     0.156 HD
ENDROOT
TORSDOF 0
ENDMDL
MODEL 3
REMARK VINA RESULT: -8.545393120      1.473      1.716
REMARK  0 active torsions:
REMARK  status: ('A' for Active; 'I' for Inactive)
ROOT
HETATM    1  C1  UNL     1      18.673  77.247  11.483  1.00  0.00    -0.031 C 
HETATM    2  C2  UNL     1      19.710  77.662  10.773  1.00  0.00    -0.031 C 
HETATM    3  C3  UNL     1      20.590  76.856   9.929  1.00  0.00     0.027 C 
HETATM    4  C4  UNL     1      20.056  76.438   8.605  1.00  0.00     0.004 C 
HETATM    5  C5  UNL     1      19.611  77.526   7.691  1.00  0.00     0.001 C 
HETATM    6  C6  UNL     1      18.154  77.839   7.701  1.00  0.00     0.009 C 
HETATM    7  C7  UNL     1      17.388  77.377   6.506  1.00  0.00     0.037 C 
HETATM    8  C8  UNL     1      15.981  77.928   6.565  1.00  0.00     0.085 C 
HETATM    9  C9  UNL     1      15.450  77.785   5.154  1.00  0.00     0.025 C 
HETATM   10  C10 UNL     1      15.344  76.348   4.808  1.00  0.00     0.004 C 
HETATM   11  C11 UNL     1      16.441  75.460   5.226  1.00  0.00     0.032 C 
HETATM   12  C12 UNL     1      17.206  75.879   6.443  1.00  0.00     0.130 C 
HETATM   13  O1  UNL     1      16.618  75.490   7.617  1.00  0.00    -0.361 OA
HETATM   14  C13 UNL     1      15.384  75.987   7.893  1.00  0.00     0.217 C 
HETATM   15  C14 UNL     1      15.121  75.818   9.381  1.00  0.00     0.053 C 
HETATM   16  C15 UNL     1      16.258  75.114  10.097  1.00  0.00     0.004 C 
HETATM   17  C16 UNL     1      16.665  75.795  11.379  1.00  0.00     0.004 C 
HETATM   18  C17 UNL     1      18.183  75.843  11.564  1.00  0.00     0.027 C 
HETATM   19  N1  UNL     1      15.160  77.351   7.554  1.00  0.00    -0.392 N 
ATOM     20  H1  UNL     1      14.428  77.893   8.013  1.00  0.00     0.156 HD
ENDROOT
TORSDOF 0
ENDMDL
MODEL 4
REMARK VINA RESULT: -8.478972612      1.656      5.490
REMARK  0 active torsions:
REMARK  status: ('A' for Active; 'I' for Inactive)
ROOT
HETATM    1  C1  UNL     1      14.843  77.947   6.943  1.00  0.00    -0.031 C 
HETATM    2  C2  UNL     1      13.992  77.350   7.762  1.00  0.00    -0.031 C 
HETATM    3  C3  UNL     1      13.783  75.913   7.933  1.00  0.00     0.027 C 
HETATM    4  C4  UNL     1      14.807  75.171   8.715  1.00  0.00     0.004 C 
HETATM    5  C5  UNL     1      15.061  75.647  10.104  1.00  0.00     0.001 C 
HETATM    6  C6  UNL     1      16.213  76.573  10.283  1.00  0.00     0.009 C 
HETATM    7  C7  UNL     1      17.419  75.983  10.936  1.00  0.00     0.037 C 
HETATM    8  C8  UNL     1      18.423  77.077  11.223  1.00  0.00     0.085 C 
HETATM    9  C9  UNL     1      19.368  76.477  12.243  1.00  0.00     0.025 C 
HETATM   10  C10 UNL     1      20.110  75.350  11.629  1.00  0.00     0.004 C 
HETATM   11  C11 UNL     1      19.359  74.431  10.757  1.00  0.00     0.032 C 
HETATM   12  C12 UNL     1      18.165  75.003  10.061  1.00  0.00     0.130 C 
HETATM   13  O1  UNL     1      18.473  75.651   8.894  1.00  0.00    -0.361 OA
HETATM   14  C13 UNL     1      19.281  76.740   8.978  1.00  0.00     0.217 C 
HETATM   15  C14 UNL     1      19.126  77.552   7.701  1.00  0.00     0.053 C 
HETATM   16  C15 UNL     1      18.182  76.901   6.708  1.00  0.00     0.004 C 
HETATM   17  C16 UNL     1      17.182  77.863   6.121  1.00  0.00     0.004 C 
HETATM   18  C17 UNL     1      15.779  77.260   6.011  1.00  0.00     0.027 C 
HETATM   19  N1  UNL     1      19.062  77.608  10.085  1.00  0.00    -0.392 N 
ATOM     20  H1  UNL     1      19.358  78.584  10.055  1.00  0.00     0.156 HD
ENDROOT
TORSDOF 0
ENDMDL
MODEL 5
REMARK VINA RESULT: -8.461662364      1.775      5.178
REMARK  0 active torsions:
REMARK  status: ('A' for Active; 'I' for Inactive)
ROOT
HETATM    1  C1  UNL     1      13.920  75.412   6.381  1.00  0.00    -0.031 C 
HETATM    2  C2  UNL     1      14.436  76.009   5.319  1.00  0.00    -0.031 C 
HETATM    3  C3  UNL     1      14.630  77.442   5.111  1.00  0.00     0.027 C 
HETATM    4  C4  UNL     1      15.772  78.078   5.822  1.00  0.00     0.004 C 
HETATM    5  C5  UNL     1      17.123  77.509   5.558  1.00  0.00     0.001 C 
HETATM    6  C6  UNL     1      17.620  76.509   6.544  1.00  0.00     0.009 C 
HETATM    7  C7  UNL     1      18.692  76.990   7.465  1.00  0.00     0.037 C 
HETATM    8  C8  UNL     1      19.227  75.825   8.268  1.00  0.00     0.085 C 
HETATM    9  C9  UNL     1      20.553  76.310   8.816  1.00  0.00     0.025 C 
HETATM   10  C10 UNL     1      20.319  77.427   9.763  1.00  0.00     0.004 C 
HETATM   11  C11 UNL     1      19.312  78.436   9.396  1.00  0.00     0.032 C 
HETATM   12  C12 UNL     1      18.205  77.974   8.502  1.00  0.00     0.130 C 
HETATM   13  O1  UNL     1      17.172  77.379   9.176  1.00  0.00    -0.361 OA
HETATM   14  C13 UNL     1      17.449  76.242   9.867  1.00  0.00     0.217 C 
HETATM   15  C14 UNL     1      16.141  75.517  10.140  1.00  0.00     0.053 C 
HETATM   16  C15 UNL     1      14.934  76.278   9.625  1.00  0.00     0.004 C 
HETATM   17  C16 UNL     1      13.967  75.410   8.861  1.00  0.00     0.004 C 
HETATM   18  C17 UNL     1      13.424  76.098   7.606  1.00  0.00     0.027 C 
HETATM   19  N1  UNL     1      18.344  75.326   9.246  1.00  0.00    -0.392 N 
ATOM     20  H1  UNL     1      18.345  74.338   9.501  1.00  0.00     0.156 HD
ENDROOT
TORSDOF 0
ENDMDL
