MODEL 1
REMARK VINA RESULT: -9.684369728      0.000      0.000
REMARK  10 active torsions:
REMARK  status: ('A' for Active; 'I' for Inactive)
REMARK    1  A    between atoms: C7_7  and  O1_8 
REMARK    2  A    between atoms: C12_14  and  O2_15 
REMARK    3  A    between atoms: C17_21  and  C18_22 
REMARK    4  A    between atoms: C19_23  and  C20_24 
REMARK    5  A    between atoms: C22_26  and  C23_27 
REMARK    6  A    between atoms: C23_27  and  C24_28 
REMARK       I    between atoms: C24_28  and  N1_30 
REMARK       I    between atoms: N1_30  and  C25_32 
REMARK    7  A    between atoms: C25_32  and  C26_34 
REMARK    8  A    between atoms: C26_34  and  C27_35 
REMARK    9  A    between atoms: C27_35  and  C28_36 
REMARK   10  A    between atoms: C28_36  and  N2_37 
ROOT
HETATM    1  C18 UNL     1       4.125  -3.299  15.313  1.00  0.00    -0.024 C 
HETATM    2  C19 UNL     1       4.425  -2.561  14.262  1.00  0.00    -0.025 C 
ENDROOT
BRANCH   2   3
HETATM    3  C20 UNL     1       4.316  -1.141  14.049  1.00  0.00     0.016 C 
HETATM    4  C21 UNL     1       5.671  -0.598  13.586  1.00  0.00     0.014 C 
HETATM    5  C22 UNL     1       5.336   0.750  13.045  1.00  0.00    -0.004 C 
HETATM    6  C30 UNL     1       3.828   0.890  13.047  1.00  0.00     0.014 C 
HETATM    7  C31 UNL     1       3.335  -0.571  13.135  1.00  0.00    -0.041 C 
HETATM    8  C32 UNL     1       3.300  -1.057  11.733  1.00  0.00     0.015 C 
HETATM    9  C33 UNL     1       1.963  -0.516  13.776  1.00  0.00     0.015 C 
BRANCH   5  10
HETATM   10  C23 UNL     1       5.920   0.925  11.662  1.00  0.00     0.108 C 
BRANCH  10  11
HETATM   11  C24 UNL     1       5.653   2.293  11.203  1.00  0.00     0.224 C 
HETATM   12  O3  UNL     1       5.942   3.329  11.850  1.00  0.00    -0.273 OA
HETATM   13  N1  UNL     1       5.015   2.462   9.917  1.00  0.00    -0.298 N 
HETATM   14  C25 UNL     1       4.731   3.751   9.404  1.00  0.00     0.224 C 
ATOM     15  H1  UNL     1       4.766   1.638   9.369  1.00  0.00     0.171 HD
HETATM   16  O4  UNL     1       5.027   4.787  10.067  1.00  0.00    -0.273 OA
BRANCH  14  17
HETATM   17  C26 UNL     1       4.082   3.865   8.078  1.00  0.00     0.105 C 
BRANCH  17  18
HETATM   18  C27 UNL     1       2.704   4.452   8.275  1.00  0.00     0.029 C 
BRANCH  18  19
HETATM   19  C28 UNL     1       1.704   3.385   8.668  1.00  0.00     0.122 C 
BRANCH  19  20
HETATM   20  N2  UNL     1       1.258   3.621  10.019  1.00  0.00    -0.367 N 
HETATM   21  C29 UNL     1       0.882   2.638  10.759  1.00  0.00     0.196 C 
HETATM   22  N3  UNL     1       0.440   2.838  12.088  1.00  0.00    -0.067 NA
HETATM   23  N4  UNL     1       0.904   1.314  10.246  1.00  0.00    -0.067 NA
ATOM     24  H2  UNL     1       1.241   4.571  10.389  1.00  0.00     0.161 HD
ENDBRANCH  19  20
ENDBRANCH  18  19
ENDBRANCH  17  18
ENDBRANCH  14  17
ENDBRANCH  10  11
ENDBRANCH   5  10
ENDBRANCH   2   3
BRANCH   1  25
HETATM   25  C17 UNL     1       4.316  -4.762  15.323  1.00  0.00     0.028 C 
HETATM   26  C2  UNL     1       3.259  -5.308  16.302  1.00  0.00    -0.022 C 
HETATM   27  C1  UNL     1       2.699  -6.619  15.805  1.00  0.00     0.020 C 
HETATM   28  C3  UNL     1       2.116  -4.357  16.499  1.00  0.00     0.020 C 
HETATM   29  C4  UNL     1       4.002  -5.429  17.565  1.00  0.00    -0.014 C 
HETATM   30  C5  UNL     1       5.310  -5.427  17.371  1.00  0.00    -0.075 C 
HETATM   31  C6  UNL     1       6.491  -5.519  18.257  1.00  0.00     0.066 C 
HETATM   32  C16 UNL     1       5.531  -5.306  15.919  1.00  0.00     0.027 C 
HETATM   33  C7  UNL     1       7.743  -5.932  17.611  1.00  0.00     0.127 C 
HETATM   34  C8  UNL     1       7.838  -5.829  16.134  1.00  0.00     0.030 C 
HETATM   35  C9  UNL     1       6.856  -4.797  15.547  1.00  0.00     0.002 C 
HETATM   36  C13 UNL     1       9.219  -5.607  15.597  1.00  0.00    -0.015 C 
HETATM   37  C10 UNL     1       7.314  -3.477  15.977  1.00  0.00     0.008 C 
HETATM   38  C11 UNL     1       8.648  -3.206  15.253  1.00  0.00     0.033 C 
HETATM   39  C12 UNL     1       9.693  -4.200  15.635  1.00  0.00     0.126 C 
HETATM   40  C14 UNL     1      10.192  -6.480  16.322  1.00  0.00     0.018 C 
HETATM   41  C15 UNL     1       9.186  -6.029  14.121  1.00  0.00     0.018 C 
BRANCH  33  42
HETATM   42  O1  UNL     1       8.795  -5.188  18.183  1.00  0.00    -0.395 OA
ATOM     43  H1  UNL     1       8.437  -4.367  18.500  1.00  0.00     0.210 HD
ENDBRANCH  33  42
BRANCH  39  44
HETATM   44  O2  UNL     1      10.726  -4.088  14.672  1.00  0.00    -0.395 OA
ATOM     45  H2  UNL     1      11.088  -3.215  14.764  1.00  0.00     0.210 HD
ENDBRANCH  39  44
ENDBRANCH   1  25
TORSDOF 10
ENDMDL
MODEL 2
REMARK VINA RESULT: -9.641089381      2.241      4.151
REMARK  10 active torsions:
REMARK  status: ('A' for Active; 'I' for Inactive)
REMARK    1  A    between atoms: C7_7  and  O1_8 
REMARK    2  A    between atoms: C12_14  and  O2_15 
REMARK    3  A    between atoms: C17_21  and  C18_22 
REMARK    4  A    between atoms: C19_23  and  C20_24 
REMARK    5  A    between atoms: C22_26  and  C23_27 
REMARK    6  A    between atoms: C23_27  and  C24_28 
REMARK       I    between atoms: C24_28  and  N1_30 
REMARK       I    between atoms: N1_30  and  C25_32 
REMARK    7  A    between atoms: C25_32  and  C26_34 
REMARK    8  A    between atoms: C26_34  and  C27_35 
REMARK    9  A    between atoms: C27_35  and  C28_36 
REMARK   10  A    between atoms: C28_36  and  N2_37 
ROOT
HETATM    1  C18 UNL     1       4.736  -4.231  15.114  1.00  0.00    -0.024 C 
HETATM    2  C19 UNL     1       5.873  -4.397  14.466  1.00  0.00    -0.025 C 
ENDROOT
BRANCH   2   3
HETATM    3  C20 UNL     1       6.990  -3.507  14.288  1.00  0.00     0.016 C 
HETATM    4  C21 UNL     1       6.553  -2.319  13.426  1.00  0.00     0.014 C 
HETATM    5  C22 UNL     1       7.640  -1.320  13.637  1.00  0.00    -0.004 C 
HETATM    6  C30 UNL     1       8.563  -1.858  14.709  1.00  0.00     0.014 C 
HETATM    7  C31 UNL     1       7.701  -2.926  15.419  1.00  0.00    -0.041 C 
HETATM    8  C32 UNL     1       6.926  -2.184  16.444  1.00  0.00     0.015 C 
HETATM    9  C33 UNL     1       8.673  -3.922  16.019  1.00  0.00     0.015 C 
BRANCH   5  10
HETATM   10  C23 UNL     1       7.057   0.023  14.013  1.00  0.00     0.108 C 
BRANCH  10  11
HETATM   11  C24 UNL     1       6.098   0.431  12.978  1.00  0.00     0.224 C 
HETATM   12  O3  UNL     1       6.419   0.902  11.859  1.00  0.00    -0.273 OA
HETATM   13  N1  UNL     1       4.690   0.281  13.264  1.00  0.00    -0.298 N 
HETATM   14  C25 UNL     1       3.707   0.646  12.314  1.00  0.00     0.224 C 
ATOM     15  H1  UNL     1       4.400  -0.096  14.167  1.00  0.00     0.171 HD
HETATM   16  O4  UNL     1       4.043   1.119  11.189  1.00  0.00    -0.273 OA
BRANCH  14  17
HETATM   17  C26 UNL     1       2.278   0.464  12.658  1.00  0.00     0.105 C 
BRANCH  17  18
HETATM   18  C27 UNL     1       1.546   0.015  11.415  1.00  0.00     0.029 C 
BRANCH  18  19
HETATM   19  C28 UNL     1       0.606   1.091  10.913  1.00  0.00     0.122 C 
BRANCH  19  20
HETATM   20  N2  UNL     1       1.242   1.822   9.845  1.00  0.00    -0.367 N 
HETATM   21  C29 UNL     1       1.602   3.045  10.020  1.00  0.00     0.196 C 
HETATM   22  N3  UNL     1       2.229   3.788   8.992  1.00  0.00    -0.067 NA
HETATM   23  N4  UNL     1       1.374   3.680  11.269  1.00  0.00    -0.067 NA
ATOM     24  H2  UNL     1       1.407   1.368   8.947  1.00  0.00     0.161 HD
ENDBRANCH  19  20
ENDBRANCH  18  19
ENDBRANCH  17  18
ENDBRANCH  14  17
ENDBRANCH  10  11
ENDBRANCH   5  10
ENDBRANCH   2   3
BRANCH   1  25
HETATM   25  C17 UNL     1       3.707  -5.287  15.174  1.00  0.00     0.028 C 
HETATM   26  C2  UNL     1       2.372  -4.549  15.387  1.00  0.00    -0.022 C 
HETATM   27  C1  UNL     1       1.262  -5.223  14.616  1.00  0.00     0.020 C 
HETATM   28  C3  UNL     1       2.437  -3.114  14.956  1.00  0.00     0.020 C 
HETATM   29  C4  UNL     1       2.189  -4.602  16.845  1.00  0.00    -0.014 C 
HETATM   30  C5  UNL     1       2.941  -5.534  17.405  1.00  0.00    -0.075 C 
HETATM   31  C6  UNL     1       3.148  -6.007  18.791  1.00  0.00     0.066 C 
HETATM   32  C16 UNL     1       3.695  -6.189  16.321  1.00  0.00     0.027 C 
HETATM   33  C7  UNL     1       3.723  -7.350  18.928  1.00  0.00     0.127 C 
HETATM   34  C8  UNL     1       4.408  -7.944  17.754  1.00  0.00     0.030 C 
HETATM   35  C9  UNL     1       4.912  -6.880  16.760  1.00  0.00     0.002 C 
HETATM   36  C13 UNL     1       5.495  -8.923  18.076  1.00  0.00    -0.015 C 
HETATM   37  C10 UNL     1       6.002  -6.161  17.420  1.00  0.00     0.008 C 
HETATM   38  C11 UNL     1       7.173  -7.153  17.562  1.00  0.00     0.033 C 
HETATM   39  C12 UNL     1       6.807  -8.318  18.420  1.00  0.00     0.126 C 
HETATM   40  C14 UNL     1       5.056  -9.824  19.185  1.00  0.00     0.018 C 
HETATM   41  C15 UNL     1       5.710  -9.768  16.812  1.00  0.00     0.018 C 
BRANCH  33  42
HETATM   42  O1  UNL     1       4.623  -7.331  20.012  1.00  0.00    -0.395 OA
ATOM     43  H1  UNL     1       4.381  -8.030  20.608  1.00  0.00     0.210 HD
ENDBRANCH  33  42
BRANCH  39  44
HETATM   44  O2  UNL     1       7.791  -9.311  18.192  1.00  0.00    -0.395 OA
ATOM     45  H2  UNL     1       7.679  -9.600  17.293  1.00  0.00     0.210 HD
ENDBRANCH  39  44
ENDBRANCH   1  25
TORSDOF 10
ENDMDL
MODEL 3
REMARK VINA RESULT: -9.517974959      2.242      3.679
REMARK  10 active torsions:
REMARK  status: ('A' for Active; 'I' for Inactive)
REMARK    1  A    between atoms: C7_7  and  O1_8 
REMARK    2  A    between atoms: C12_14  and  O2_15 
REMARK    3  A    between atoms: C17_21  and  C18_22 
REMARK    4  A    between atoms: C19_23  and  C20_24 
REMARK    5  A    between atoms: C22_26  and  C23_27 
REMARK    6  A    between atoms: C23_27  and  C24_28 
REMARK       I    between atoms: C24_28  and  N1_30 
REMARK       I    between atoms: N1_30  and  C25_32 
REMARK    7  A    between atoms: C25_32  and  C26_34 
REMARK    8  A    between atoms: C26_34  and  C27_35 
REMARK    9  A    between atoms: C27_35  and  C28_36 
REMARK   10  A    between atoms: C28_36  and  N2_37 
ROOT
HETATM    1  C18 UNL     1       4.727  -4.085  15.118  1.00  0.00    -0.024 C 
HETATM    2  C19 UNL     1       5.736  -4.065  14.268  1.00  0.00    -0.025 C 
ENDROOT
BRANCH   2   3
HETATM    3  C20 UNL     1       6.776  -3.091  14.067  1.00  0.00     0.016 C 
HETATM    4  C21 UNL     1       6.207  -1.906  13.282  1.00  0.00     0.014 C 
HETATM    5  C22 UNL     1       7.231  -0.840  13.475  1.00  0.00    -0.004 C 
HETATM    6  C30 UNL     1       8.250  -1.350  14.470  1.00  0.00     0.014 C 
HETATM    7  C31 UNL     1       7.509  -2.503  15.181  1.00  0.00    -0.041 C 
HETATM    8  C32 UNL     1       6.744  -1.860  16.278  1.00  0.00     0.015 C 
HETATM    9  C33 UNL     1       8.581  -3.449  15.684  1.00  0.00     0.015 C 
BRANCH   5  10
HETATM   10  C23 UNL     1       6.578   0.443  13.939  1.00  0.00     0.108 C 
BRANCH  10  11
HETATM   11  C24 UNL     1       6.990   1.535  13.048  1.00  0.00     0.224 C 
HETATM   12  O3  UNL     1       8.175   1.917  12.895  1.00  0.00    -0.273 OA
HETATM   13  N1  UNL     1       5.962   2.216  12.294  1.00  0.00    -0.298 N 
HETATM   14  C25 UNL     1       6.283   3.274  11.410  1.00  0.00     0.224 C 
ATOM     15  H1  UNL     1       4.989   1.930  12.401  1.00  0.00     0.171 HD
HETATM   16  O4  UNL     1       7.482   3.651  11.265  1.00  0.00    -0.273 OA
BRANCH  14  17
HETATM   17  C26 UNL     1       5.191   3.933  10.658  1.00  0.00     0.105 C 
BRANCH  17  18
HETATM   18  C27 UNL     1       3.903   3.735  11.423  1.00  0.00     0.029 C 
BRANCH  18  19
HETATM   19  C28 UNL     1       2.747   3.449  10.487  1.00  0.00     0.122 C 
BRANCH  19  20
HETATM   20  N2  UNL     1       2.299   2.092  10.683  1.00  0.00    -0.367 N 
HETATM   21  C29 UNL     1       1.208   1.855  11.322  1.00  0.00     0.196 C 
HETATM   22  N3  UNL     1       0.742   0.535  11.529  1.00  0.00    -0.067 NA
HETATM   23  N4  UNL     1       0.439   2.932  11.838  1.00  0.00    -0.067 NA
ATOM     24  H2  UNL     1       2.850   1.318  10.313  1.00  0.00     0.161 HD
ENDBRANCH  19  20
ENDBRANCH  18  19
ENDBRANCH  17  18
ENDBRANCH  14  17
ENDBRANCH  10  11
ENDBRANCH   5  10
ENDBRANCH   2   3
BRANCH   1  25
HETATM   25  C17 UNL     1       3.759  -5.197  15.161  1.00  0.00     0.028 C 
HETATM   26  C2  UNL     1       2.383  -4.537  15.370  1.00  0.00    -0.022 C 
HETATM   27  C1  UNL     1       1.318  -5.264  14.584  1.00  0.00     0.020 C 
HETATM   28  C3  UNL     1       2.370  -3.096  14.953  1.00  0.00     0.020 C 
HETATM   29  C4  UNL     1       2.192  -4.614  16.826  1.00  0.00    -0.014 C 
HETATM   30  C5  UNL     1       2.992  -5.508  17.383  1.00  0.00    -0.075 C 
HETATM   31  C6  UNL     1       3.215  -5.982  18.766  1.00  0.00     0.066 C 
HETATM   32  C16 UNL     1       3.789  -6.109  16.299  1.00  0.00     0.027 C 
HETATM   33  C7  UNL     1       3.864  -7.292  18.895  1.00  0.00     0.127 C 
HETATM   34  C8  UNL     1       4.589  -7.836  17.720  1.00  0.00     0.030 C 
HETATM   35  C9  UNL     1       5.040  -6.735  16.741  1.00  0.00     0.002 C 
HETATM   36  C13 UNL     1       5.727  -8.755  18.042  1.00  0.00    -0.015 C 
HETATM   37  C10 UNL     1       6.083  -5.963  17.416  1.00  0.00     0.008 C 
HETATM   38  C11 UNL     1       7.307  -6.888  17.558  1.00  0.00     0.033 C 
HETATM   39  C12 UNL     1       7.001  -8.080  18.402  1.00  0.00     0.126 C 
HETATM   40  C14 UNL     1       5.331  -9.689  19.139  1.00  0.00     0.018 C 
HETATM   41  C15 UNL     1       5.999  -9.574  16.771  1.00  0.00     0.018 C 
BRANCH  33  42
HETATM   42  O1  UNL     1       4.754  -7.233  19.986  1.00  0.00    -0.395 OA
ATOM     43  H1  UNL     1       5.201  -8.069  20.047  1.00  0.00     0.210 HD
ENDBRANCH  33  42
BRANCH  39  44
HETATM   44  O2  UNL     1       8.040  -9.015  18.171  1.00  0.00    -0.395 OA
ATOM     45  H2  UNL     1       7.726  -9.608  17.498  1.00  0.00     0.210 HD
ENDBRANCH  39  44
ENDBRANCH   1  25
TORSDOF 10
ENDMDL
MODEL 4
REMARK VINA RESULT: -9.386441655      2.652      4.329
REMARK  10 active torsions:
REMARK  status: ('A' for Active; 'I' for Inactive)
REMARK    1  A    between atoms: C7_7  and  O1_8 
REMARK    2  A    between atoms: C12_14  and  O2_15 
REMARK    3  A    between atoms: C17_21  and  C18_22 
REMARK    4  A    between atoms: C19_23  and  C20_24 
REMARK    5  A    between atoms: C22_26  and  C23_27 
REMARK    6  A    between atoms: C23_27  and  C24_28 
REMARK       I    between atoms: C24_28  and  N1_30 
REMARK       I    between atoms: N1_30  and  C25_32 
REMARK    7  A    between atoms: C25_32  and  C26_34 
REMARK    8  A    between atoms: C26_34  and  C27_35 
REMARK    9  A    between atoms: C27_35  and  C28_36 
REMARK   10  A    between atoms: C28_36  and  N2_37 
ROOT
HETATM    1  C18 UNL     1       4.724  -4.101  15.113  1.00  0.00    -0.024 C 
HETATM    2  C19 UNL     1       5.729  -4.138  14.259  1.00  0.00    -0.025 C 
ENDROOT
BRANCH   2   3
HETATM    3  C20 UNL     1       6.803  -3.207  14.033  1.00  0.00     0.016 C 
HETATM    4  C21 UNL     1       6.243  -1.946  13.369  1.00  0.00     0.014 C 
HETATM    5  C22 UNL     1       7.338  -0.949  13.543  1.00  0.00    -0.004 C 
HETATM    6  C30 UNL     1       8.401  -1.574  14.421  1.00  0.00     0.014 C 
HETATM    7  C31 UNL     1       7.652  -2.731  15.118  1.00  0.00    -0.041 C 
HETATM    8  C32 UNL     1       7.012  -2.120  16.310  1.00  0.00     0.015 C 
HETATM    9  C33 UNL     1       8.705  -3.761  15.475  1.00  0.00     0.015 C 
BRANCH   5  10
HETATM   10  C23 UNL     1       6.796   0.334  14.134  1.00  0.00     0.108 C 
BRANCH  10  11
HETATM   11  C24 UNL     1       5.337   0.355  13.965  1.00  0.00     0.224 C 
HETATM   12  O3  UNL     1       4.520  -0.127  14.786  1.00  0.00    -0.273 OA
HETATM   13  N1  UNL     1       4.804   0.976  12.773  1.00  0.00    -0.298 N 
HETATM   14  C25 UNL     1       3.409   1.041  12.543  1.00  0.00     0.224 C 
ATOM     15  H1  UNL     1       5.445   1.374  12.086  1.00  0.00     0.171 HD
HETATM   16  O4  UNL     1       2.596   0.550  13.379  1.00  0.00    -0.273 OA
BRANCH  14  17
HETATM   17  C26 UNL     1       2.918   1.694  11.308  1.00  0.00     0.105 C 
BRANCH  17  18
HETATM   18  C27 UNL     1       2.979   3.190  11.508  1.00  0.00     0.029 C 
BRANCH  18  19
HETATM   19  C28 UNL     1       3.980   3.829  10.568  1.00  0.00     0.122 C 
BRANCH  19  20
HETATM   20  N2  UNL     1       4.857   4.693  11.320  1.00  0.00    -0.367 N 
HETATM   21  C29 UNL     1       6.076   4.345  11.541  1.00  0.00     0.196 C 
HETATM   22  N3  UNL     1       6.961   5.171  12.275  1.00  0.00    -0.067 NA
HETATM   23  N4  UNL     1       6.562   3.106  11.046  1.00  0.00    -0.067 NA
ATOM     24  H2  UNL     1       4.510   5.583  11.677  1.00  0.00     0.161 HD
ENDBRANCH  19  20
ENDBRANCH  18  19
ENDBRANCH  17  18
ENDBRANCH  14  17
ENDBRANCH  10  11
ENDBRANCH   5  10
ENDBRANCH   2   3
BRANCH   1  25
HETATM   25  C17 UNL     1       3.715  -5.176  15.182  1.00  0.00     0.028 C 
HETATM   26  C2  UNL     1       2.369  -4.462  15.412  1.00  0.00    -0.022 C 
HETATM   27  C1  UNL     1       1.263  -5.154  14.653  1.00  0.00     0.020 C 
HETATM   28  C3  UNL     1       2.403  -3.025  14.984  1.00  0.00     0.020 C 
HETATM   29  C4  UNL     1       2.204  -4.521  16.872  1.00  0.00    -0.014 C 
HETATM   30  C5  UNL     1       2.979  -5.441  17.421  1.00  0.00    -0.075 C 
HETATM   31  C6  UNL     1       3.211  -5.913  18.803  1.00  0.00     0.066 C 
HETATM   32  C16 UNL     1       3.732  -6.080  16.327  1.00  0.00     0.027 C 
HETATM   33  C7  UNL     1       3.811  -7.246  18.931  1.00  0.00     0.127 C 
HETATM   34  C8  UNL     1       4.493  -7.825  17.747  1.00  0.00     0.030 C 
HETATM   35  C9  UNL     1       4.967  -6.750  16.751  1.00  0.00     0.002 C 
HETATM   36  C13 UNL     1       5.601  -8.784  18.054  1.00  0.00    -0.015 C 
HETATM   37  C10 UNL     1       6.051  -6.013  17.400  1.00  0.00     0.008 C 
HETATM   38  C11 UNL     1       7.241  -6.984  17.526  1.00  0.00     0.033 C 
HETATM   39  C12 UNL     1       6.906  -8.157  18.385  1.00  0.00     0.126 C 
HETATM   40  C14 UNL     1       5.191  -9.696  19.166  1.00  0.00     0.018 C 
HETATM   41  C15 UNL     1       5.817  -9.623  16.786  1.00  0.00     0.018 C 
BRANCH  33  42
HETATM   42  O1  UNL     1       4.724  -7.213  20.005  1.00  0.00    -0.395 OA
ATOM     43  H1  UNL     1       5.111  -6.347  20.035  1.00  0.00     0.210 HD
ENDBRANCH  33  42
BRANCH  39  44
HETATM   44  O2  UNL     1       7.905  -9.132  18.143  1.00  0.00    -0.395 OA
ATOM     45  H2  UNL     1       7.529  -9.970  18.386  1.00  0.00     0.210 HD
ENDBRANCH  39  44
ENDBRANCH   1  25
TORSDOF 10
ENDMDL
MODEL 5
REMARK VINA RESULT: -9.378845512      1.233      1.635
REMARK  10 active torsions:
REMARK  status: ('A' for Active; 'I' for Inactive)
REMARK    1  A    between atoms: C7_7  and  O1_8 
REMARK    2  A    between atoms: C12_14  and  O2_15 
REMARK    3  A    between atoms: C17_21  and  C18_22 
REMARK    4  A    between atoms: C19_23  and  C20_24 
REMARK    5  A    between atoms: C22_26  and  C23_27 
REMARK    6  A    between atoms: C23_27  and  C24_28 
REMARK       I    between atoms: C24_28  and  N1_30 
REMARK       I    between atoms: N1_30  and  C25_32 
REMARK    7  A    between atoms: C25_32  and  C26_34 
REMARK    8  A    between atoms: C26_34  and  C27_35 
REMARK    9  A    between atoms: C27_35  and  C28_36 
REMARK   10  A    between atoms: C28_36  and  N2_37 
ROOT
HETATM    1  C18 UNL     1       4.103  -3.405  15.395  1.00  0.00    -0.024 C 
HETATM    2  C19 UNL     1       4.420  -2.648  14.363  1.00  0.00    -0.025 C 
ENDROOT
BRANCH   2   3
HETATM    3  C20 UNL     1       4.296  -1.228  14.166  1.00  0.00     0.016 C 
HETATM    4  C21 UNL     1       5.629  -0.674  13.658  1.00  0.00     0.014 C 
HETATM    5  C22 UNL     1       5.267   0.677  13.140  1.00  0.00    -0.004 C 
HETATM    6  C30 UNL     1       3.760   0.808  13.197  1.00  0.00     0.014 C 
HETATM    7  C31 UNL     1       3.279  -0.657  13.292  1.00  0.00    -0.041 C 
HETATM    8  C32 UNL     1       3.196  -1.132  11.888  1.00  0.00     0.015 C 
HETATM    9  C33 UNL     1       1.930  -0.615  13.983  1.00  0.00     0.015 C 
BRANCH   5  10
HETATM   10  C23 UNL     1       5.801   0.866  11.738  1.00  0.00     0.108 C 
BRANCH  10  11
HETATM   11  C24 UNL     1       5.615   2.268  11.344  1.00  0.00     0.224 C 
HETATM   12  O3  UNL     1       6.234   3.236  11.851  1.00  0.00    -0.273 OA
HETATM   13  N1  UNL     1       4.656   2.557  10.302  1.00  0.00    -0.298 N 
HETATM   14  C25 UNL     1       4.428   3.883   9.864  1.00  0.00     0.224 C 
ATOM     15  H1  UNL     1       4.136   1.790   9.874  1.00  0.00     0.171 HD
HETATM   16  O4  UNL     1       5.058   4.850  10.383  1.00  0.00    -0.273 OA
BRANCH  14  17
HETATM   17  C26 UNL     1       3.438   4.120   8.789  1.00  0.00     0.105 C 
BRANCH  17  18
HETATM   18  C27 UNL     1       2.069   3.768   9.320  1.00  0.00     0.029 C 
BRANCH  18  19
HETATM   19  C28 UNL     1       1.228   3.086   8.261  1.00  0.00     0.122 C 
BRANCH  19  20
HETATM   20  N2  UNL     1       0.467   4.078   7.542  1.00  0.00    -0.367 N 
HETATM   21  C29 UNL     1       0.609   4.207   6.269  1.00  0.00     0.196 C 
HETATM   22  N3  UNL     1      -0.123   5.172   5.536  1.00  0.00    -0.067 NA
HETATM   23  N4  UNL     1       1.517   3.371   5.567  1.00  0.00    -0.067 NA
ATOM     24  H2  UNL     1      -0.185   4.680   8.044  1.00  0.00     0.161 HD
ENDBRANCH  19  20
ENDBRANCH  18  19
ENDBRANCH  17  18
ENDBRANCH  14  17
ENDBRANCH  10  11
ENDBRANCH   5  10
ENDBRANCH   2   3
BRANCH   1  25
HETATM   25  C17 UNL     1       4.316  -4.865  15.393  1.00  0.00     0.028 C 
HETATM   26  C2  UNL     1       3.271  -5.435  16.371  1.00  0.00    -0.022 C 
HETATM   27  C1  UNL     1       2.729  -6.751  15.865  1.00  0.00     0.020 C 
HETATM   28  C3  UNL     1       2.115  -4.503  16.581  1.00  0.00     0.020 C 
HETATM   29  C4  UNL     1       4.021  -5.556  17.630  1.00  0.00    -0.014 C 
HETATM   30  C5  UNL     1       5.328  -5.532  17.430  1.00  0.00    -0.075 C 
HETATM   31  C6  UNL     1       6.514  -5.615  18.311  1.00  0.00     0.066 C 
HETATM   32  C16 UNL     1       5.542  -5.396  15.978  1.00  0.00     0.027 C 
HETATM   33  C7  UNL     1       7.769  -6.003  17.657  1.00  0.00     0.127 C 
HETATM   34  C8  UNL     1       7.857  -5.886  16.180  1.00  0.00     0.030 C 
HETATM   35  C9  UNL     1       6.857  -4.864  15.606  1.00  0.00     0.002 C 
HETATM   36  C13 UNL     1       9.232  -5.639  15.640  1.00  0.00    -0.015 C 
HETATM   37  C10 UNL     1       7.297  -3.540  16.046  1.00  0.00     0.008 C 
HETATM   38  C11 UNL     1       8.624  -3.243  15.319  1.00  0.00     0.033 C 
HETATM   39  C12 UNL     1       9.685  -4.225  15.688  1.00  0.00     0.126 C 
HETATM   40  C14 UNL     1      10.221  -6.503  16.354  1.00  0.00     0.018 C 
HETATM   41  C15 UNL     1       9.199  -6.048  14.160  1.00  0.00     0.018 C 
BRANCH  33  42
HETATM   42  O1  UNL     1       8.813  -5.248  18.231  1.00  0.00    -0.395 OA
ATOM     43  H1  UNL     1       9.534  -5.228  17.615  1.00  0.00     0.210 HD
ENDBRANCH  33  42
BRANCH  39  44
HETATM   44  O2  UNL     1      10.712  -4.089  14.722  1.00  0.00    -0.395 OA
ATOM     45  H2  UNL     1      11.501  -4.447  15.114  1.00  0.00     0.210 HD
ENDBRANCH  39  44
ENDBRANCH   1  25
TORSDOF 10
ENDMDL
