MODEL 1
REMARK VINA RESULT: -6.841029625      0.000      0.000
REMARK  0 active torsions:
REMARK  status: ('A' for Active; 'I' for Inactive)
REMARK       I    between atoms: C1_4  and  N3_6 
ROOT
HETATM    1  N1  UNL     1       0.560  12.490  10.284  1.00  0.00    -0.372 N 
ATOM      2  H11 UNL     1      -0.245  12.498  10.912  1.00  0.00     0.158 HD
ATOM      3  H12 UNL     1       1.395  13.040  10.487  1.00  0.00     0.158 HD
HETATM    4  C1  UNL     1       0.530  11.784   9.223  1.00  0.00     0.211 C 
HETATM    5  N2  UNL     1       1.642  11.773   8.355  1.00  0.00    -0.062 NA
HETATM    6  N3  UNL     1      -0.628  11.022   8.941  1.00  0.00    -0.172 N 
HETATM    7  N4  UNL     1      -1.492  10.500   9.818  1.00  0.00    -0.238 N 
ATOM      8  H4  UNL     1      -1.423  10.589  10.831  1.00  0.00     0.192 HD
HETATM    9  C2  UNL     1      -2.466   9.841   9.164  1.00  0.00     0.343 A 
HETATM   10  O1  UNL     1      -3.438   9.234   9.677  1.00  0.00    -0.245 OA
HETATM   11  N5  UNL     1      -2.222   9.942   7.848  1.00  0.00    -0.258 N 
ATOM     12  H5  UNL     1      -2.784   9.546   7.095  1.00  0.00     0.175 HD
HETATM   13  C3  UNL     1      -1.099  10.662   7.711  1.00  0.00     0.352 A 
HETATM   14  O2  UNL     1      -0.558  10.964   6.607  1.00  0.00    -0.244 OA
ENDROOT
TORSDOF 0
ENDMDL
MODEL 2
REMARK VINA RESULT: -6.259779103      1.479      1.583
REMARK  0 active torsions:
REMARK  status: ('A' for Active; 'I' for Inactive)
REMARK       I    between atoms: C1_4  and  N3_6 
ROOT
HETATM    1  N1  UNL     1       0.799  12.498  10.155  1.00  0.00    -0.372 N 
ATOM      2  H11 UNL     1       0.577  12.366  11.143  1.00  0.00     0.158 HD
ATOM      3  H12 UNL     1       1.460  13.215   9.854  1.00  0.00     0.158 HD
HETATM    4  C1  UNL     1       0.246  11.761   9.275  1.00  0.00     0.211 C 
HETATM    5  N2  UNL     1       0.554  11.944   7.911  1.00  0.00    -0.062 NA
HETATM    6  N3  UNL     1      -0.670  10.767   9.694  1.00  0.00    -0.172 N 
HETATM    7  N4  UNL     1      -0.686  10.114  10.860  1.00  0.00    -0.238 N 
ATOM      8  H4  UNL     1      -0.019  10.254  11.619  1.00  0.00     0.192 HD
HETATM    9  C2  UNL     1      -1.712   9.245  10.884  1.00  0.00     0.343 A 
HETATM   10  O1  UNL     1      -2.021   8.472  11.825  1.00  0.00    -0.245 OA
HETATM   11  N5  UNL     1      -2.365   9.343   9.715  1.00  0.00    -0.258 N 
ATOM     12  H5  UNL     1      -3.189   8.811   9.435  1.00  0.00     0.175 HD
HETATM   13  C3  UNL     1      -1.728  10.272   8.987  1.00  0.00     0.352 A 
HETATM   14  O2  UNL     1      -2.060  10.635   7.821  1.00  0.00    -0.244 OA
ENDROOT
TORSDOF 0
ENDMDL
MODEL 3
REMARK VINA RESULT: -6.195380647      1.630      3.515
REMARK  0 active torsions:
REMARK  status: ('A' for Active; 'I' for Inactive)
REMARK       I    between atoms: C1_4  and  N3_6 
ROOT
HETATM    1  N1  UNL     1      -2.528   9.237  10.057  1.00  0.00    -0.372 N 
ATOM      2  H11 UNL     1      -1.780   9.245  10.751  1.00  0.00     0.158 HD
ATOM      3  H12 UNL     1      -3.359   8.658  10.181  1.00  0.00     0.158 HD
HETATM    4  C1  UNL     1      -2.433   9.960   9.012  1.00  0.00     0.211 C 
HETATM    5  N2  UNL     1      -3.467   9.950   8.052  1.00  0.00    -0.062 NA
HETATM    6  N3  UNL     1      -1.281  10.764   8.840  1.00  0.00    -0.172 N 
HETATM    7  N4  UNL     1      -0.513  11.300   9.794  1.00  0.00    -0.238 N 
ATOM      8  H4  UNL     1      -0.664  11.192  10.797  1.00  0.00     0.192 HD
HETATM    9  C2  UNL     1       0.491  12.000   9.235  1.00  0.00     0.343 A 
HETATM   10  O1  UNL     1       1.395  12.630   9.836  1.00  0.00    -0.245 OA
HETATM   11  N5  UNL     1       0.363  11.912   7.901  1.00  0.00    -0.258 N 
ATOM     12  H5  UNL     1       0.974  12.338   7.204  1.00  0.00     0.175 HD
HETATM   13  C3  UNL     1      -0.719  11.158   7.659  1.00  0.00     0.352 A 
HETATM   14  O2  UNL     1      -1.154  10.857   6.509  1.00  0.00    -0.244 OA
ENDROOT
TORSDOF 0
ENDMDL
MODEL 4
REMARK VINA RESULT: -5.978907769      2.102      2.197
REMARK  0 active torsions:
REMARK  status: ('A' for Active; 'I' for Inactive)
REMARK       I    between atoms: C1_4  and  N3_6 
ROOT
HETATM    1  N1  UNL     1      -0.349  12.883   8.852  1.00  0.00    -0.372 N 
ATOM      2  H11 UNL     1      -1.203  12.929   9.407  1.00  0.00     0.158 HD
ATOM      3  H12 UNL     1      -0.040  13.676   8.290  1.00  0.00     0.158 HD
HETATM    4  C1  UNL     1       0.353  11.819   8.851  1.00  0.00     0.211 C 
HETATM    5  N2  UNL     1       1.534  11.756   8.083  1.00  0.00    -0.062 NA
HETATM    6  N3  UNL     1      -0.074  10.718   9.631  1.00  0.00    -0.172 N 
HETATM    7  N4  UNL     1      -0.791  10.749  10.759  1.00  0.00    -0.238 N 
ATOM      8  H4  UNL     1      -1.131  11.597  11.213  1.00  0.00     0.192 HD
HETATM    9  C2  UNL     1      -0.998   9.497  11.205  1.00  0.00     0.343 A 
HETATM   10  O1  UNL     1      -1.632   9.161  12.235  1.00  0.00    -0.245 OA
HETATM   11  N5  UNL     1      -0.404   8.650  10.349  1.00  0.00    -0.258 N 
ATOM     12  H5  UNL     1      -0.387   7.633  10.417  1.00  0.00     0.175 HD
HETATM   13  C3  UNL     1       0.161   9.395   9.388  1.00  0.00     0.352 A 
HETATM   14  O2  UNL     1       0.813   8.940   8.403  1.00  0.00    -0.244 OA
ENDROOT
TORSDOF 0
ENDMDL
MODEL 5
REMARK VINA RESULT: -5.967051871      1.839      2.287
REMARK  0 active torsions:
REMARK  status: ('A' for Active; 'I' for Inactive)
REMARK       I    between atoms: C1_4  and  N3_6 
ROOT
HETATM    1  N1  UNL     1       0.083  12.534   8.909  1.00  0.00    -0.372 N 
ATOM      2  H11 UNL     1       0.126  12.742   9.908  1.00  0.00     0.158 HD
ATOM      3  H12 UNL     1       0.474  13.175   8.219  1.00  0.00     0.158 HD
HETATM    4  C1  UNL     1      -0.469  11.458   8.507  1.00  0.00     0.211 C 
HETATM    5  N2  UNL     1      -0.529  11.171   7.127  1.00  0.00    -0.062 NA
HETATM    6  N3  UNL     1      -1.012  10.569   9.465  1.00  0.00    -0.172 N 
HETATM    7  N4  UNL     1      -0.612  10.391  10.728  1.00  0.00    -0.238 N 
ATOM      8  H4  UNL     1       0.159  10.888  11.174  1.00  0.00     0.192 HD
HETATM    9  C2  UNL     1      -1.376   9.457  11.323  1.00  0.00     0.343 A 
HETATM   10  O1  UNL     1      -1.277   9.046  12.505  1.00  0.00    -0.245 OA
HETATM   11  N5  UNL     1      -2.281   9.031  10.427  1.00  0.00    -0.258 N 
ATOM     12  H5  UNL     1      -3.001   8.326  10.581  1.00  0.00     0.175 HD
HETATM   13  C3  UNL     1      -2.058   9.709   9.292  1.00  0.00     0.352 A 
HETATM   14  O2  UNL     1      -2.720   9.573   8.221  1.00  0.00    -0.244 OA
ENDROOT
TORSDOF 0
ENDMDL
