MODEL 1
REMARK VINA RESULT: -5.559599446      0.000      0.000
REMARK  5 active torsions:
REMARK  status: ('A' for Active; 'I' for Inactive)
REMARK    1  A    between atoms: N1_1  and  N2_4 
REMARK    2  A    between atoms: N2_4  and  N3_6 
REMARK    3  A    between atoms: C1_8  and  C2_9 
REMARK    4  A    between atoms: C3_12  and  N5_13 
REMARK    5  A    between atoms: N7_18  and  O1_19 
ROOT
HETATM    1  C2  UNL     1      -0.426   8.810  10.230  1.00  0.00     0.184 A 
HETATM    2  N4  UNL     1       0.164   7.754  10.804  1.00  0.00    -0.170 N 
ATOM      3  H4  UNL     1       0.201   7.563  11.805  1.00  0.00     0.186 HD
HETATM    4  C3  UNL     1       0.704   6.983   9.830  1.00  0.00     0.694 A 
HETATM    5  N6  UNL     1       0.436   7.581   8.663  1.00  0.00    -0.104 N 
ATOM      6  H6  UNL     1       0.716   7.232   7.747  1.00  0.00     0.208 HD
HETATM    7  N7  UNL     1      -0.245   8.686   8.879  1.00  0.00    -0.130 N 
ENDROOT
BRANCH   1   8
HETATM    8  C1  UNL     1      -1.137   9.909  10.845  1.00  0.00     0.161 C 
HETATM    9  N3  UNL     1      -0.818  11.120  10.748  1.00  0.00    -0.294 N 
ATOM     10  H3  UNL     1      -1.440  11.754  11.250  1.00  0.00     0.187 HD
BRANCH   9  11
HETATM   11  N2  UNL     1       0.210  11.749  10.093  1.00  0.00    -0.250 N 
ATOM     12  H2  UNL     1       1.154  11.654  10.466  1.00  0.00     0.207 HD
BRANCH  11  13
HETATM   13  N1  UNL     1       0.038  12.457   9.028  1.00  0.00    -0.331 N 
ATOM     14  H12 UNL     1      -0.026  11.960   8.140  1.00  0.00     0.178 HD
ATOM     15  H11 UNL     1      -0.036  13.473   9.041  1.00  0.00     0.178 HD
ENDBRANCH  11  13
ENDBRANCH   9  11
ENDBRANCH   1   8
BRANCH   7  16
HETATM   16  O1  UNL     1      -0.711   9.583   7.929  1.00  0.00    -0.266 OA
ATOM     17  H1  UNL     1      -0.376  10.462   7.800  1.00  0.00     0.247 HD
ENDBRANCH   7  16
BRANCH   4  18
HETATM   18  N5  UNL     1       1.364   5.866   9.995  1.00  0.00    -0.233 N 
ATOM     19  H52 UNL     1       2.299   5.769  10.390  1.00  0.00     0.174 HD
ATOM     20  H51 UNL     1       1.042   4.929   9.754  1.00  0.00     0.174 HD
ENDBRANCH   4  18
TORSDOF 5
ENDMDL
MODEL 2
REMARK VINA RESULT: -5.521288459      1.680      2.141
REMARK  5 active torsions:
REMARK  status: ('A' for Active; 'I' for Inactive)
REMARK    1  A    between atoms: N1_1  and  N2_4 
REMARK    2  A    between atoms: N2_4  and  N3_6 
REMARK    3  A    between atoms: C1_8  and  C2_9 
REMARK    4  A    between atoms: C3_12  and  N5_13 
REMARK    5  A    between atoms: N7_18  and  O1_19 
ROOT
HETATM    1  C2  UNL     1      -0.431   9.277   8.990  1.00  0.00     0.184 A 
HETATM    2  N4  UNL     1       0.192   8.096   8.893  1.00  0.00    -0.170 N 
ATOM      3  H4  UNL     1       0.238   7.513   8.058  1.00  0.00     0.186 HD
HETATM    4  C3  UNL     1       0.752   7.808  10.093  1.00  0.00     0.694 A 
HETATM    5  N6  UNL     1       0.462   8.823  10.915  1.00  0.00    -0.104 N 
ATOM      6  H6  UNL     1       0.750   8.890  11.891  1.00  0.00     0.208 HD
HETATM    7  N7  UNL     1      -0.252   9.722  10.273  1.00  0.00    -0.130 N 
ENDROOT
BRANCH   1   8
HETATM    8  C1  UNL     1      -1.171  10.008   7.985  1.00  0.00     0.161 C 
HETATM    9  N3  UNL     1      -0.872  11.150   7.556  1.00  0.00    -0.294 N 
ATOM     10  H3  UNL     1      -1.511  11.507   6.846  1.00  0.00     0.187 HD
BRANCH   9  11
HETATM   11  N2  UNL     1       0.153  12.008   7.866  1.00  0.00    -0.250 N 
ATOM     12  H2  UNL     1       1.037  11.909   7.367  1.00  0.00     0.207 HD
BRANCH  11  13
HETATM   13  N1  UNL     1       0.051  12.934   8.758  1.00  0.00    -0.331 N 
ATOM     14  H12 UNL     1       0.574  12.810   9.625  1.00  0.00     0.178 HD
ATOM     15  H11 UNL     1      -0.520  13.769   8.631  1.00  0.00     0.178 HD
ENDBRANCH  11  13
ENDBRANCH   9  11
ENDBRANCH   1   8
BRANCH   7  16
HETATM   16  O1  UNL     1      -0.747  10.916  10.776  1.00  0.00    -0.266 OA
ATOM     17  H1  UNL     1      -1.329  10.993  11.522  1.00  0.00     0.247 HD
ENDBRANCH   7  16
BRANCH   4  18
HETATM   18  N5  UNL     1       1.444   6.740  10.394  1.00  0.00    -0.233 N 
ATOM     19  H52 UNL     1       1.070   5.811  10.583  1.00  0.00     0.174 HD
ATOM     20  H51 UNL     1       2.459   6.679  10.484  1.00  0.00     0.174 HD
ENDBRANCH   4  18
TORSDOF 5
ENDMDL
MODEL 3
REMARK VINA RESULT: -5.481514947      1.640      2.089
REMARK  5 active torsions:
REMARK  status: ('A' for Active; 'I' for Inactive)
REMARK    1  A    between atoms: N1_1  and  N2_4 
REMARK    2  A    between atoms: N2_4  and  N3_6 
REMARK    3  A    between atoms: C1_8  and  C2_9 
REMARK    4  A    between atoms: C3_12  and  N5_13 
REMARK    5  A    between atoms: N7_18  and  O1_19 
ROOT
HETATM    1  C2  UNL     1      -0.855   9.735   9.100  1.00  0.00     0.184 A 
HETATM    2  N4  UNL     1      -0.344   8.796   8.294  1.00  0.00    -0.170 N 
ATOM      3  H4  UNL     1      -0.417   8.779   7.277  1.00  0.00     0.186 HD
HETATM    4  C3  UNL     1       0.286   7.872   9.058  1.00  0.00     0.694 A 
HETATM    5  N6  UNL     1       0.152   8.260  10.332  1.00  0.00    -0.104 N 
ATOM      6  H6  UNL     1       0.525   7.762  11.140  1.00  0.00     0.208 HD
HETATM    7  N7  UNL     1      -0.533   9.382  10.383  1.00  0.00    -0.130 N 
ENDROOT
BRANCH   1   8
HETATM    8  C1  UNL     1      -1.610  10.921   8.761  1.00  0.00     0.161 C 
HETATM    9  N3  UNL     1      -1.151  12.090   8.746  1.00  0.00    -0.294 N 
ATOM     10  H3  UNL     1      -1.834  12.800   8.482  1.00  0.00     0.187 HD
BRANCH   9  11
HETATM   11  N2  UNL     1       0.097  12.590   9.019  1.00  0.00    -0.250 N 
ATOM     12  H2  UNL     1       0.616  13.041   8.265  1.00  0.00     0.207 HD
BRANCH  11  13
HETATM   13  N1  UNL     1       0.646  12.517  10.184  1.00  0.00    -0.331 N 
ATOM     14  H12 UNL     1       0.206  13.036  10.944  1.00  0.00     0.178 HD
ATOM     15  H11 UNL     1       1.486  11.970  10.370  1.00  0.00     0.178 HD
ENDBRANCH  11  13
ENDBRANCH   9  11
ENDBRANCH   1   8
BRANCH   7  16
HETATM   16  O1  UNL     1      -0.882  10.101  11.516  1.00  0.00    -0.266 OA
ATOM     17  H1  UNL     1      -1.543   9.838  12.146  1.00  0.00     0.247 HD
ENDBRANCH   7  16
BRANCH   4  18
HETATM   18  N5  UNL     1       0.908   6.803   8.635  1.00  0.00    -0.233 N 
ATOM     19  H52 UNL     1       1.591   6.255   9.157  1.00  0.00     0.174 HD
ATOM     20  H51 UNL     1       0.804   6.359   7.722  1.00  0.00     0.174 HD
ENDBRANCH   4  18
TORSDOF 5
ENDMDL
MODEL 4
REMARK VINA RESULT: -5.346350714      2.200      4.023
REMARK  5 active torsions:
REMARK  status: ('A' for Active; 'I' for Inactive)
REMARK    1  A    between atoms: N1_1  and  N2_4 
REMARK    2  A    between atoms: N2_4  and  N3_6 
REMARK    3  A    between atoms: C1_8  and  C2_9 
REMARK    4  A    between atoms: C3_12  and  N5_13 
REMARK    5  A    between atoms: N7_18  and  O1_19 
ROOT
HETATM    1  C2  UNL     1      -0.619   9.384   9.499  1.00  0.00     0.184 A 
HETATM    2  N4  UNL     1      -1.590   8.951   8.686  1.00  0.00    -0.170 N 
ATOM      3  H4  UNL     1      -1.670   8.011   8.300  1.00  0.00     0.186 HD
HETATM    4  C3  UNL     1      -2.449   9.975   8.463  1.00  0.00     0.694 A 
HETATM    5  N6  UNL     1      -1.989  11.029   9.147  1.00  0.00    -0.104 N 
ATOM      6  H6  UNL     1      -2.428  11.949   9.173  1.00  0.00     0.208 HD
HETATM    7  N7  UNL     1      -0.885  10.697   9.780  1.00  0.00    -0.130 N 
ENDROOT
BRANCH   1   8
HETATM    8  C1  UNL     1       0.523   8.668  10.024  1.00  0.00     0.161 C 
HETATM    9  N3  UNL     1       0.714   8.404  11.237  1.00  0.00    -0.294 N 
ATOM     10  H3  UNL     1       1.577   7.890  11.418  1.00  0.00     0.187 HD
BRANCH   9  11
HETATM   11  N2  UNL     1      -0.019   8.678  12.364  1.00  0.00    -0.250 N 
ATOM     12  H2  UNL     1      -0.897   9.186  12.260  1.00  0.00     0.207 HD
BRANCH  11  13
HETATM   13  N1  UNL     1       0.350   8.322  13.548  1.00  0.00    -0.331 N 
ATOM     14  H12 UNL     1       0.412   7.323  13.740  1.00  0.00     0.178 HD
ATOM     15  H11 UNL     1       0.577   8.990  14.284  1.00  0.00     0.178 HD
ENDBRANCH  11  13
ENDBRANCH   9  11
ENDBRANCH   1   8
BRANCH   7  16
HETATM   16  O1  UNL     1      -0.108  11.509  10.595  1.00  0.00    -0.266 OA
ATOM     17  H1  UNL     1      -0.181  12.454  10.649  1.00  0.00     0.247 HD
ENDBRANCH   7  16
BRANCH   4  18
HETATM   18  N5  UNL     1      -3.525   9.943   7.720  1.00  0.00    -0.233 N 
ATOM     19  H52 UNL     1      -4.211  10.690   7.617  1.00  0.00     0.174 HD
ATOM     20  H51 UNL     1      -3.837   9.168   7.134  1.00  0.00     0.174 HD
ENDBRANCH   4  18
TORSDOF 5
ENDMDL
MODEL 5
REMARK VINA RESULT: -5.343869361      1.741      2.185
REMARK  5 active torsions:
REMARK  status: ('A' for Active; 'I' for Inactive)
REMARK    1  A    between atoms: N1_1  and  N2_4 
REMARK    2  A    between atoms: N2_4  and  N3_6 
REMARK    3  A    between atoms: C1_8  and  C2_9 
REMARK    4  A    between atoms: C3_12  and  N5_13 
REMARK    5  A    between atoms: N7_18  and  O1_19 
ROOT
HETATM    1  C2  UNL     1      -1.124   9.689  10.301  1.00  0.00     0.184 A 
HETATM    2  N4  UNL     1      -1.203   9.400  11.606  1.00  0.00    -0.170 N 
ATOM      3  H4  UNL     1      -1.963   9.668  12.231  1.00  0.00     0.186 HD
HETATM    4  C3  UNL     1      -0.103   8.691  11.955  1.00  0.00     0.694 A 
HETATM    5  N6  UNL     1       0.642   8.554  10.852  1.00  0.00    -0.104 N 
ATOM      6  H6  UNL     1       1.534   8.063  10.803  1.00  0.00     0.208 HD
HETATM    7  N7  UNL     1       0.046   9.148   9.840  1.00  0.00    -0.130 N 
ENDROOT
BRANCH   1   8
HETATM    8  C1  UNL     1      -2.051  10.422   9.467  1.00  0.00     0.161 C 
HETATM    9  N3  UNL     1      -1.782  11.479   8.846  1.00  0.00    -0.294 N 
ATOM     10  H3  UNL     1      -2.563  11.854   8.307  1.00  0.00     0.187 HD
BRANCH   9  11
HETATM   11  N2  UNL     1      -0.634  12.225   8.756  1.00  0.00    -0.250 N 
ATOM     12  H2  UNL     1      -0.442  12.911   9.486  1.00  0.00     0.207 HD
BRANCH  11  13
HETATM   13  N1  UNL     1       0.213  12.101   7.791  1.00  0.00    -0.331 N 
ATOM     14  H12 UNL     1       0.476  11.155   7.516  1.00  0.00     0.178 HD
ATOM     15  H11 UNL     1       0.620  12.897   7.302  1.00  0.00     0.178 HD
ENDBRANCH  11  13
ENDBRANCH   9  11
ENDBRANCH   1   8
BRANCH   7  16
HETATM   16  O1  UNL     1       0.497   9.228   8.531  1.00  0.00    -0.266 OA
ATOM     17  H1  UNL     1       0.944   8.531   8.065  1.00  0.00     0.247 HD
ENDBRANCH   7  16
BRANCH   4  18
HETATM   18  N5  UNL     1       0.182   8.228  13.145  1.00  0.00    -0.233 N 
ATOM     19  H52 UNL     1      -0.295   8.463  14.015  1.00  0.00     0.174 HD
ATOM     20  H51 UNL     1       0.921   7.565  13.378  1.00  0.00     0.174 HD
ENDBRANCH   4  18
TORSDOF 5
ENDMDL
