MODEL 1
REMARK VINA RESULT: -7.850346047      0.000      0.000
REMARK  3 active torsions:
REMARK  status: ('A' for Active; 'I' for Inactive)
REMARK    1  A    between atoms: C1_2  and  C2_3 
REMARK       I    between atoms: C1_2  and  N1_11 
REMARK    2  A    between atoms: C5_7  and  C6_8 
REMARK    3  A    between atoms: C6_8  and  O3_9 
ROOT
HETATM    1  O1  UNL     1      -4.900  -0.102  15.501  1.00  0.00    -0.270 OA
HETATM    2  C1  UNL     1      -4.654   1.034  15.022  1.00  0.00     0.249 C 
HETATM    3  N1  UNL     1      -4.150   1.128  13.713  1.00  0.00    -0.349 N 
HETATM    4  C7  UNL     1      -3.947  -0.158  13.037  1.00  0.00     0.130 C 
HETATM    5  C8  UNL     1      -3.533   0.004  11.613  1.00  0.00     0.004 C 
HETATM    6  C9  UNL     1      -2.345   0.905  11.432  1.00  0.00     0.007 C 
HETATM    7  C10 UNL     1      -2.846   2.238  10.953  1.00  0.00     0.007 C 
HETATM    8  C11 UNL     1      -4.125   2.539  11.707  1.00  0.00     0.004 C 
HETATM    9  C12 UNL     1      -5.275   1.689  11.247  1.00  0.00     0.007 C 
HETATM   10  C13 UNL     1      -4.689   0.392  10.714  1.00  0.00     0.007 C 
HETATM   11  C14 UNL     1      -3.910   2.437  13.205  1.00  0.00     0.130 C 
ENDROOT
BRANCH   2  12
HETATM   12  C2  UNL     1      -4.920   2.202  15.890  1.00  0.00     0.219 C 
HETATM   13  O2  UNL     1      -5.929   3.012  15.368  1.00  0.00    -0.376 OA
HETATM   14  C3  UNL     1      -6.489   3.727  16.389  1.00  0.00     0.169 C 
HETATM   15  C4  UNL     1      -5.962   3.222  17.692  1.00  0.00     0.036 C 
HETATM   16  C5  UNL     1      -5.420   1.843  17.269  1.00  0.00     0.049 C 
BRANCH  16  17
HETATM   17  C6  UNL     1      -6.619   0.938  17.239  1.00  0.00     0.172 C 
BRANCH  17  18
HETATM   18  O3  UNL     1      -6.400  -0.330  17.719  1.00  0.00    -0.400 OA
ATOM     19  H3  UNL     1      -7.168  -0.889  17.740  1.00  0.00     0.209 HD
ENDBRANCH  17  18
ENDBRANCH  16  17
ENDBRANCH   2  12
TORSDOF 3
ENDMDL
MODEL 2
REMARK VINA RESULT: -6.868213240      1.466      2.859
REMARK  3 active torsions:
REMARK  status: ('A' for Active; 'I' for Inactive)
REMARK    1  A    between atoms: C1_2  and  C2_3 
REMARK       I    between atoms: C1_2  and  N1_11 
REMARK    2  A    between atoms: C5_7  and  C6_8 
REMARK    3  A    between atoms: C6_8  and  O3_9 
ROOT
HETATM    1  O1  UNL     1      -3.417   3.048  16.104  1.00  0.00    -0.270 OA
HETATM    2  C1  UNL     1      -4.204   2.522  15.275  1.00  0.00     0.249 C 
HETATM    3  N1  UNL     1      -4.032   2.791  13.906  1.00  0.00    -0.349 N 
HETATM    4  C7  UNL     1      -2.923   3.698  13.591  1.00  0.00     0.130 C 
HETATM    5  C8  UNL     1      -2.705   3.847  12.122  1.00  0.00     0.004 C 
HETATM    6  C9  UNL     1      -3.947   4.227  11.368  1.00  0.00     0.007 C 
HETATM    7  C10 UNL     1      -4.475   2.991  10.695  1.00  0.00     0.007 C 
HETATM    8  C11 UNL     1      -4.299   1.839  11.662  1.00  0.00     0.004 C 
HETATM    9  C12 UNL     1      -2.863   1.422  11.804  1.00  0.00     0.007 C 
HETATM   10  C13 UNL     1      -2.010   2.646  11.515  1.00  0.00     0.007 C 
HETATM   11  C14 UNL     1      -4.932   2.154  13.004  1.00  0.00     0.130 C 
ENDROOT
BRANCH   2  12
HETATM   12  C2  UNL     1      -5.267   1.649  15.817  1.00  0.00     0.219 C 
HETATM   13  O2  UNL     1      -4.819   0.913  16.915  1.00  0.00    -0.376 OA
HETATM   14  C3  UNL     1      -5.898   0.557  17.674  1.00  0.00     0.169 C 
HETATM   15  C4  UNL     1      -7.113   1.259  17.165  1.00  0.00     0.036 C 
HETATM   16  C5  UNL     1      -6.468   2.395  16.347  1.00  0.00     0.049 C 
BRANCH  16  17
HETATM   17  C6  UNL     1      -6.103   3.449  17.353  1.00  0.00     0.172 C 
BRANCH  17  18
HETATM   18  O3  UNL     1      -6.807   4.624  17.244  1.00  0.00    -0.400 OA
ATOM     19  H3  UNL     1      -6.276   5.412  17.243  1.00  0.00     0.209 HD
ENDBRANCH  17  18
ENDBRANCH  16  17
ENDBRANCH   2  12
TORSDOF 3
ENDMDL
MODEL 3
REMARK VINA RESULT: -6.728544930      3.808      5.942
REMARK  3 active torsions:
REMARK  status: ('A' for Active; 'I' for Inactive)
REMARK    1  A    between atoms: C1_2  and  C2_3 
REMARK       I    between atoms: C1_2  and  N1_11 
REMARK    2  A    between atoms: C5_7  and  C6_8 
REMARK    3  A    between atoms: C6_8  and  O3_9 
ROOT
HETATM    1  O1  UNL     1      -3.623   3.585   9.720  1.00  0.00    -0.270 OA
HETATM    2  C1  UNL     1      -3.927   3.507  10.938  1.00  0.00     0.249 C 
HETATM    3  N1  UNL     1      -3.746   4.633  11.759  1.00  0.00    -0.349 N 
HETATM    4  C7  UNL     1      -3.189   5.808  11.081  1.00  0.00     0.130 C 
HETATM    5  C8  UNL     1      -3.137   7.008  11.966  1.00  0.00     0.004 C 
HETATM    6  C9  UNL     1      -2.444   6.759  13.275  1.00  0.00     0.007 C 
HETATM    7  C10 UNL     1      -3.500   6.599  14.333  1.00  0.00     0.007 C 
HETATM    8  C11 UNL     1      -4.634   5.802  13.723  1.00  0.00     0.004 C 
HETATM    9  C12 UNL     1      -5.430   6.603  12.732  1.00  0.00     0.007 C 
HETATM   10  C13 UNL     1      -4.496   7.651  12.150  1.00  0.00     0.007 C 
HETATM   11  C14 UNL     1      -4.128   4.504  13.126  1.00  0.00     0.130 C 
ENDROOT
BRANCH   2  12
HETATM   12  C2  UNL     1      -4.461   2.214  11.415  1.00  0.00     0.219 C 
HETATM   13  O2  UNL     1      -4.787   1.367  10.355  1.00  0.00    -0.376 OA
HETATM   14  C3  UNL     1      -4.761   0.076  10.800  1.00  0.00     0.169 C 
HETATM   15  C4  UNL     1      -4.193   0.041  12.181  1.00  0.00     0.036 C 
HETATM   16  C5  UNL     1      -3.480   1.407  12.234  1.00  0.00     0.049 C 
BRANCH  16  17
HETATM   17  C6  UNL     1      -2.169   1.197  11.533  1.00  0.00     0.172 C 
BRANCH  17  18
HETATM   18  O3  UNL     1      -1.156   2.034  11.935  1.00  0.00    -0.400 OA
ATOM     19  H3  UNL     1      -0.288   1.650  11.919  1.00  0.00     0.209 HD
ENDBRANCH  17  18
ENDBRANCH  16  17
ENDBRANCH   2  12
TORSDOF 3
ENDMDL
MODEL 4
REMARK VINA RESULT: -6.679399909      2.320      3.267
REMARK  3 active torsions:
REMARK  status: ('A' for Active; 'I' for Inactive)
REMARK    1  A    between atoms: C1_2  and  C2_3 
REMARK       I    between atoms: C1_2  and  N1_11 
REMARK    2  A    between atoms: C5_7  and  C6_8 
REMARK    3  A    between atoms: C6_8  and  O3_9 
ROOT
HETATM    1  O1  UNL     1      -5.246   2.470  12.630  1.00  0.00    -0.270 OA
HETATM    2  C1  UNL     1      -4.468   3.239  13.250  1.00  0.00     0.249 C 
HETATM    3  N1  UNL     1      -3.270   3.639  12.634  1.00  0.00    -0.349 N 
HETATM    4  C7  UNL     1      -3.048   3.082  11.296  1.00  0.00     0.130 C 
HETATM    5  C8  UNL     1      -1.829   3.637  10.639  1.00  0.00     0.004 C 
HETATM    6  C9  UNL     1      -0.591   3.528  11.483  1.00  0.00     0.007 C 
HETATM    7  C10 UNL     1      -0.320   4.881  12.080  1.00  0.00     0.007 C 
HETATM    8  C11 UNL     1      -1.655   5.478  12.474  1.00  0.00     0.004 C 
HETATM    9  C12 UNL     1      -2.461   5.915  11.284  1.00  0.00     0.007 C 
HETATM   10  C13 UNL     1      -2.043   5.041  10.113  1.00  0.00     0.007 C 
HETATM   11  C14 UNL     1      -2.433   4.530  13.366  1.00  0.00     0.130 C 
ENDROOT
BRANCH   2  12
HETATM   12  C2  UNL     1      -4.885   3.669  14.602  1.00  0.00     0.219 C 
HETATM   13  O2  UNL     1      -6.258   3.507  14.794  1.00  0.00    -0.376 OA
HETATM   14  C3  UNL     1      -6.504   3.403  16.134  1.00  0.00     0.169 C 
HETATM   15  C4  UNL     1      -5.208   3.288  16.867  1.00  0.00     0.036 C 
HETATM   16  C5  UNL     1      -4.266   2.866  15.722  1.00  0.00     0.049 C 
BRANCH  16  17
HETATM   17  C6  UNL     1      -4.473   1.387  15.564  1.00  0.00     0.172 C 
BRANCH  17  18
HETATM   18  O3  UNL     1      -3.698   0.602  16.383  1.00  0.00    -0.400 OA
ATOM     19  H3  UNL     1      -4.113  -0.199  16.681  1.00  0.00     0.209 HD
ENDBRANCH  17  18
ENDBRANCH  16  17
ENDBRANCH   2  12
TORSDOF 3
ENDMDL
MODEL 5
REMARK VINA RESULT: -6.587759380      2.347      3.635
REMARK  3 active torsions:
REMARK  status: ('A' for Active; 'I' for Inactive)
REMARK    1  A    between atoms: C1_2  and  C2_3 
REMARK       I    between atoms: C1_2  and  N1_11 
REMARK    2  A    between atoms: C5_7  and  C6_8 
REMARK    3  A    between atoms: C6_8  and  O3_9 
ROOT
HETATM    1  O1  UNL     1      -3.063   2.105  16.576  1.00  0.00    -0.270 OA
HETATM    2  C1  UNL     1      -4.072   2.434  15.901  1.00  0.00     0.249 C 
HETATM    3  N1  UNL     1      -3.970   3.509  15.002  1.00  0.00    -0.349 N 
HETATM    4  C7  UNL     1      -2.655   4.158  14.963  1.00  0.00     0.130 C 
HETATM    5  C8  UNL     1      -2.565   5.205  13.905  1.00  0.00     0.004 C 
HETATM    6  C9  UNL     1      -3.669   6.222  13.972  1.00  0.00     0.007 C 
HETATM    7  C10 UNL     1      -4.670   5.887  12.903  1.00  0.00     0.007 C 
HETATM    8  C11 UNL     1      -4.807   4.379  12.867  1.00  0.00     0.004 C 
HETATM    9  C12 UNL     1      -3.604   3.709  12.266  1.00  0.00     0.007 C 
HETATM   10  C13 UNL     1      -2.412   4.616  12.518  1.00  0.00     0.007 C 
HETATM   11  C14 UNL     1      -5.133   3.830  14.242  1.00  0.00     0.130 C 
ENDROOT
BRANCH   2  12
HETATM   12  C2  UNL     1      -5.307   1.649  16.112  1.00  0.00     0.219 C 
HETATM   13  O2  UNL     1      -5.142   0.685  17.108  1.00  0.00    -0.376 OA
HETATM   14  C3  UNL     1      -6.368   0.371  17.622  1.00  0.00     0.169 C 
HETATM   15  C4  UNL     1      -7.388   1.318  17.081  1.00  0.00     0.036 C 
HETATM   16  C5  UNL     1      -6.484   2.466  16.591  1.00  0.00     0.049 C 
BRANCH  16  17
HETATM   17  C6  UNL     1      -6.171   3.276  17.817  1.00  0.00     0.172 C 
BRANCH  17  18
HETATM   18  O3  UNL     1      -6.777   4.508  17.868  1.00  0.00    -0.400 OA
ATOM     19  H3  UNL     1      -7.523   4.564  18.454  1.00  0.00     0.209 HD
ENDBRANCH  17  18
ENDBRANCH  16  17
ENDBRANCH   2  12
TORSDOF 3
ENDMDL
