MODEL 1
REMARK VINA RESULT: -5.986495828      0.000      0.000
REMARK  2 active torsions:
REMARK  status: ('A' for Active; 'I' for Inactive)
REMARK    1  A    between atoms: O1_2  and  C2_3 
REMARK    2  A    between atoms: C2_3  and  C3_4 
ROOT
HETATM    1  C3  UNL     1      -3.970   4.274  11.723  1.00  0.00     0.020 A 
HETATM    2  C4  UNL     1      -3.887   5.609  12.261  1.00  0.00     0.006 A 
HETATM    3  C5  UNL     1      -4.971   6.265  13.028  1.00  0.00     0.011 C 
HETATM    4  C6  UNL     1      -4.131   6.144  14.281  1.00  0.00    -0.007 C 
HETATM    5  C7  UNL     1      -4.860   5.603  15.381  1.00  0.00     0.014 C 
HETATM    6  C8  UNL     1      -5.319   4.219  15.643  1.00  0.00     0.037 C 
HETATM    7  C9  UNL     1      -3.982   3.375  15.802  1.00  0.00     0.086 C 
HETATM    8  C10 UNL     1      -4.855   2.240  15.268  1.00  0.00     0.057 C 
HETATM    9  C11 UNL     1      -5.781   3.279  14.607  1.00  0.00     0.130 C 
HETATM   10  O2  UNL     1      -5.599   3.453  13.285  1.00  0.00    -0.379 OA
HETATM   11  C12 UNL     1      -4.541   3.093  12.582  1.00  0.00     0.140 A 
HETATM   12  C13 UNL     1      -3.173   3.413  12.595  1.00  0.00     0.052 A 
HETATM   13  C14 UNL     1      -2.540   4.213  13.727  1.00  0.00     0.089 A 
HETATM   14  N1  UNL     1      -3.013   3.801  14.945  1.00  0.00    -0.412 N 
ATOM     15  H1  UNL     1      -2.181   3.829  15.535  1.00  0.00     0.154 HD
HETATM   16  C15 UNL     1      -2.998   5.680  13.490  1.00  0.00     0.017 A 
ENDROOT
BRANCH   1  17
HETATM   17  C2  UNL     1      -3.922   4.038  10.237  1.00  0.00     0.180 C 
BRANCH  17  18
HETATM   18  O1  UNL     1      -2.763   3.725   9.706  1.00  0.00    -0.395 OA
HETATM   19  C1  UNL     1      -2.001   4.506   8.924  1.00  0.00     0.201 C 
ENDBRANCH  17  18
ENDBRANCH   1  17
TORSDOF 2
ENDMDL
MODEL 2
REMARK VINA RESULT: -5.889317986      1.064      1.169
REMARK  2 active torsions:
REMARK  status: ('A' for Active; 'I' for Inactive)
REMARK    1  A    between atoms: O1_2  and  C2_3 
REMARK    2  A    between atoms: C2_3  and  C3_4 
ROOT
HETATM    1  C3  UNL     1      -4.155   4.590  12.149  1.00  0.00     0.020 A 
HETATM    2  C4  UNL     1      -4.305   5.798  12.922  1.00  0.00     0.006 A 
HETATM    3  C5  UNL     1      -5.492   6.111  13.752  1.00  0.00     0.011 C 
HETATM    4  C6  UNL     1      -4.653   5.905  14.994  1.00  0.00    -0.007 C 
HETATM    5  C7  UNL     1      -5.287   5.056  15.949  1.00  0.00     0.014 C 
HETATM    6  C8  UNL     1      -5.505   3.591  15.940  1.00  0.00     0.037 C 
HETATM    7  C9  UNL     1      -4.044   2.968  15.996  1.00  0.00     0.086 C 
HETATM    8  C10 UNL     1      -4.705   1.820  15.234  1.00  0.00     0.057 C 
HETATM    9  C11 UNL     1      -5.790   2.794  14.735  1.00  0.00     0.130 C 
HETATM   10  O2  UNL     1      -5.631   3.235  13.474  1.00  0.00    -0.379 OA
HETATM   11  C12 UNL     1      -4.521   3.193  12.759  1.00  0.00     0.140 A 
HETATM   12  C13 UNL     1      -3.228   3.729  12.883  1.00  0.00     0.052 A 
HETATM   13  C14 UNL     1      -2.750   4.401  14.164  1.00  0.00     0.089 A 
HETATM   14  N1  UNL     1      -3.156   3.699  15.269  1.00  0.00    -0.412 N 
ATOM     15  H1  UNL     1      -2.345   3.757  15.886  1.00  0.00     0.154 HD
HETATM   16  C15 UNL     1      -3.451   5.789  14.177  1.00  0.00     0.017 A 
ENDROOT
BRANCH   1  17
HETATM   17  C2  UNL     1      -4.055   4.642  10.648  1.00  0.00     0.180 C 
BRANCH  17  18
HETATM   18  O1  UNL     1      -4.960   5.338  10.001  1.00  0.00    -0.395 OA
HETATM   19  C1  UNL     1      -4.738   6.240   9.032  1.00  0.00     0.201 C 
ENDBRANCH  17  18
ENDBRANCH   1  17
TORSDOF 2
ENDMDL
MODEL 3
REMARK VINA RESULT: -5.602054822      2.813      4.325
REMARK  2 active torsions:
REMARK  status: ('A' for Active; 'I' for Inactive)
REMARK    1  A    between atoms: O1_2  and  C2_3 
REMARK    2  A    between atoms: C2_3  and  C3_4 
ROOT
HETATM    1  C3  UNL     1      -3.014   1.082  11.716  1.00  0.00     0.020 A 
HETATM    2  C4  UNL     1      -4.180   1.225  12.553  1.00  0.00     0.006 A 
HETATM    3  C5  UNL     1      -4.171   1.867  13.888  1.00  0.00     0.011 C 
HETATM    4  C6  UNL     1      -4.944   3.032  13.311  1.00  0.00    -0.007 C 
HETATM    5  C7  UNL     1      -4.376   4.294  13.658  1.00  0.00     0.014 C 
HETATM    6  C8  UNL     1      -3.148   4.962  13.172  1.00  0.00     0.037 C 
HETATM    7  C9  UNL     1      -3.423   5.238  11.631  1.00  0.00     0.086 C 
HETATM    8  C10 UNL     1      -1.904   5.109  11.527  1.00  0.00     0.057 C 
HETATM    9  C11 UNL     1      -1.900   4.266  12.817  1.00  0.00     0.130 C 
HETATM   10  O2  UNL     1      -1.794   2.937  12.633  1.00  0.00    -0.379 OA
HETATM   11  C12 UNL     1      -2.019   2.276  11.512  1.00  0.00     0.140 A 
HETATM   12  C13 UNL     1      -3.122   2.090  10.663  1.00  0.00     0.052 A 
HETATM   13  C14 UNL     1      -4.402   2.903  10.809  1.00  0.00     0.089 A 
HETATM   14  N1  UNL     1      -4.122   4.222  11.055  1.00  0.00    -0.412 N 
ATOM     15  H1  UNL     1      -4.825   4.712  10.500  1.00  0.00     0.154 HD
HETATM   16  C15 UNL     1      -5.117   2.310  12.056  1.00  0.00     0.017 A 
ENDROOT
BRANCH   1  17
HETATM   17  C2  UNL     1      -2.483  -0.281  11.359  1.00  0.00     0.180 C 
BRANCH  17  18
HETATM   18  O1  UNL     1      -3.246  -1.317  11.610  1.00  0.00    -0.395 OA
HETATM   19  C1  UNL     1      -2.895  -2.611  11.535  1.00  0.00     0.201 C 
ENDBRANCH  17  18
ENDBRANCH   1  17
TORSDOF 2
ENDMDL
MODEL 4
REMARK VINA RESULT: -5.593413089      2.078      4.637
REMARK  2 active torsions:
REMARK  status: ('A' for Active; 'I' for Inactive)
REMARK    1  A    between atoms: O1_2  and  C2_3 
REMARK    2  A    between atoms: C2_3  and  C3_4 
ROOT
HETATM    1  C3  UNL     1      -4.850   2.898  15.743  1.00  0.00     0.020 A 
HETATM    2  C4  UNL     1      -5.698   4.062  15.677  1.00  0.00     0.006 A 
HETATM    3  C5  UNL     1      -5.218   5.452  15.858  1.00  0.00     0.011 C 
HETATM    4  C6  UNL     1      -5.448   5.703  14.384  1.00  0.00    -0.007 C 
HETATM    5  C7  UNL     1      -4.329   6.318  13.750  1.00  0.00     0.014 C 
HETATM    6  C8  UNL     1      -3.009   5.761  13.375  1.00  0.00     0.037 C 
HETATM    7  C9  UNL     1      -3.335   4.663  12.273  1.00  0.00     0.086 C 
HETATM    8  C10 UNL     1      -2.070   4.004  12.821  1.00  0.00     0.057 C 
HETATM    9  C11 UNL     1      -2.274   4.750  14.154  1.00  0.00     0.130 C 
HETATM   10  O2  UNL     1      -2.809   4.016  15.147  1.00  0.00    -0.379 OA
HETATM   11  C12 UNL     1      -3.459   2.873  15.019  1.00  0.00     0.140 A 
HETATM   12  C13 UNL     1      -4.631   2.455  14.367  1.00  0.00     0.052 A 
HETATM   13  C14 UNL     1      -5.369   3.347  13.377  1.00  0.00     0.089 A 
HETATM   14  N1  UNL     1      -4.491   3.998  12.551  1.00  0.00    -0.412 N 
ATOM     15  H1  UNL     1      -4.962   3.969  11.647  1.00  0.00     0.154 HD
HETATM   16  C15 UNL     1      -6.098   4.405  14.254  1.00  0.00     0.017 A 
ENDROOT
BRANCH   1  17
HETATM   17  C2  UNL     1      -5.049   1.858  16.813  1.00  0.00     0.180 C 
BRANCH  17  18
HETATM   18  O1  UNL     1      -6.052   1.024  16.673  1.00  0.00    -0.395 OA
HETATM   19  C1  UNL     1      -7.263   1.120  17.245  1.00  0.00     0.201 C 
ENDBRANCH  17  18
ENDBRANCH   1  17
TORSDOF 2
ENDMDL
MODEL 5
REMARK VINA RESULT: -5.544648448      1.777      3.713
REMARK  2 active torsions:
REMARK  status: ('A' for Active; 'I' for Inactive)
REMARK    1  A    between atoms: O1_2  and  C2_3 
REMARK    2  A    between atoms: C2_3  and  C3_4 
ROOT
HETATM    1  C3  UNL     1      -4.606   5.566  12.825  1.00  0.00     0.020 A 
HETATM    2  C4  UNL     1      -4.830   4.835  14.047  1.00  0.00     0.006 A 
HETATM    3  C5  UNL     1      -5.621   3.584  14.135  1.00  0.00     0.011 C 
HETATM    4  C6  UNL     1      -4.342   2.817  14.388  1.00  0.00    -0.007 C 
HETATM    5  C7  UNL     1      -4.223   1.661  13.562  1.00  0.00     0.014 C 
HETATM    6  C8  UNL     1      -3.925   1.537  12.116  1.00  0.00     0.037 C 
HETATM    7  C9  UNL     1      -2.446   2.096  11.962  1.00  0.00     0.086 C 
HETATM    8  C10 UNL     1      -2.932   2.472  10.563  1.00  0.00     0.057 C 
HETATM    9  C11 UNL     1      -4.382   2.483  11.083  1.00  0.00     0.130 C 
HETATM   10  O2  UNL     1      -4.893   3.702  11.338  1.00  0.00    -0.379 OA
HETATM   11  C12 UNL     1      -4.212   4.821  11.502  1.00  0.00     0.140 A 
HETATM   12  C13 UNL     1      -3.236   5.278  12.403  1.00  0.00     0.052 A 
HETATM   13  C14 UNL     1      -2.543   4.343  13.387  1.00  0.00     0.089 A 
HETATM   14  N1  UNL     1      -2.218   3.153  12.790  1.00  0.00    -0.412 N 
ATOM     15  H1  UNL     1      -1.299   2.944  13.181  1.00  0.00     0.154 HD
HETATM   16  C15 UNL     1      -3.599   4.067  14.494  1.00  0.00     0.017 A 
ENDROOT
BRANCH   1  17
HETATM   17  C2  UNL     1      -5.133   6.966  12.656  1.00  0.00     0.180 C 
BRANCH  17  18
HETATM   18  O1  UNL     1      -6.434   7.125  12.603  1.00  0.00    -0.395 OA
HETATM   19  C1  UNL     1      -7.098   8.124  12.000  1.00  0.00     0.201 C 
ENDBRANCH  17  18
ENDBRANCH   1  17
TORSDOF 2
ENDMDL
