MODEL 1
REMARK VINA RESULT: -6.128013190      0.000      0.000
REMARK  2 active torsions:
REMARK  status: ('A' for Active; 'I' for Inactive)
REMARK    1  A    between atoms: C15_17  and  C16_18 
REMARK    2  A    between atoms: C16_18  and  O1_19 
ROOT
HETATM    1  N1  UNL     1      -2.944   1.262  10.483  1.00  0.00    -0.196 NA
HETATM    2  C1  UNL     1      -3.091   2.264  11.070  1.00  0.00     0.069 C 
HETATM    3  C2  UNL     1      -3.259   3.552  11.793  1.00  0.00     0.056 C 
HETATM    4  C3  UNL     1      -4.266   4.340  11.109  1.00  0.00     0.027 C 
HETATM    5  C4  UNL     1      -3.955   5.754  10.699  1.00  0.00     0.023 C 
HETATM    6  C5  UNL     1      -4.622   6.793  11.541  1.00  0.00     0.082 A 
HETATM    7  C6  UNL     1      -4.190   7.214  12.800  1.00  0.00     0.089 A 
HETATM    8  C7  UNL     1      -3.250   6.661  13.732  1.00  0.00     0.035 C 
HETATM    9  C8  UNL     1      -1.870   6.257  13.272  1.00  0.00     0.016 C 
HETATM   10  C9  UNL     1      -1.790   4.763  13.315  1.00  0.00    -0.003 C 
HETATM   11  C10 UNL     1      -1.882   4.111  11.960  1.00  0.00     0.030 C 
HETATM   12  C11 UNL     1      -3.009   4.268  14.123  1.00  0.00     0.027 C 
HETATM   13  C12 UNL     1      -3.672   5.469  14.574  1.00  0.00    -0.068 C 
HETATM   14  C13 UNL     1      -5.102   5.483  14.904  1.00  0.00     0.015 C 
HETATM   15  C14 UNL     1      -5.928   5.895  13.958  1.00  0.00     0.061 C 
HETATM   16  N2  UNL     1      -5.366   6.274  12.739  1.00  0.00    -0.280 NA
HETATM   17  C15 UNL     1      -3.534   3.222  13.263  1.00  0.00     0.040 C 
ENDROOT
BRANCH  17  18
HETATM   18  C16 UNL     1      -4.780   2.511  13.540  1.00  0.00     0.171 C 
BRANCH  18  19
HETATM   19  O1  UNL     1      -4.453   1.279  14.170  1.00  0.00    -0.400 OA
ATOM     20  H1  UNL     1      -5.203   0.701  14.094  1.00  0.00     0.209 HD
ENDBRANCH  18  19
ENDBRANCH  17  18
TORSDOF 2
ENDMDL
MODEL 2
REMARK VINA RESULT: -5.642504985      2.371      3.913
REMARK  2 active torsions:
REMARK  status: ('A' for Active; 'I' for Inactive)
REMARK    1  A    between atoms: C15_17  and  C16_18 
REMARK    2  A    between atoms: C16_18  and  O1_19 
ROOT
HETATM    1  N1  UNL     1      -5.528   1.777  11.192  1.00  0.00    -0.196 NA
HETATM    2  C1  UNL     1      -4.638   2.514  11.384  1.00  0.00     0.069 C 
HETATM    3  C2  UNL     1      -3.495   3.428  11.651  1.00  0.00     0.056 C 
HETATM    4  C3  UNL     1      -2.337   2.947  10.924  1.00  0.00     0.027 C 
HETATM    5  C4  UNL     1      -1.039   2.724  11.651  1.00  0.00     0.023 C 
HETATM    6  C5  UNL     1       0.002   3.758  11.370  1.00  0.00     0.082 A 
HETATM    7  C6  UNL     1       0.061   5.027  11.949  1.00  0.00     0.089 A 
HETATM    8  C7  UNL     1      -0.898   5.791  12.694  1.00  0.00     0.035 C 
HETATM    9  C8  UNL     1      -1.624   5.170  13.863  1.00  0.00     0.016 C 
HETATM   10  C9  UNL     1      -3.056   4.990  13.470  1.00  0.00    -0.003 C 
HETATM   11  C10 UNL     1      -3.420   3.566  13.139  1.00  0.00     0.030 C 
HETATM   12  C11 UNL     1      -3.280   5.810  12.181  1.00  0.00     0.027 C 
HETATM   13  C12 UNL     1      -2.024   6.481  11.943  1.00  0.00    -0.068 C 
HETATM   14  C13 UNL     1      -1.627   6.921  10.600  1.00  0.00     0.015 C 
HETATM   15  C14 UNL     1      -0.834   6.113   9.918  1.00  0.00     0.061 C 
HETATM   16  N2  UNL     1      -0.452   4.922  10.536  1.00  0.00    -0.280 NA
HETATM   17  C15 UNL     1      -3.960   4.851  11.329  1.00  0.00     0.040 C 
ENDROOT
BRANCH  17  18
HETATM   18  C16 UNL     1      -4.292   5.119   9.932  1.00  0.00     0.171 C 
BRANCH  18  19
HETATM   19  O1  UNL     1      -5.635   5.580   9.878  1.00  0.00    -0.400 OA
ATOM     20  H1  UNL     1      -6.030   5.246   9.081  1.00  0.00     0.209 HD
ENDBRANCH  18  19
ENDBRANCH  17  18
TORSDOF 2
ENDMDL
MODEL 3
REMARK VINA RESULT: -5.586666635      1.657      2.100
REMARK  2 active torsions:
REMARK  status: ('A' for Active; 'I' for Inactive)
REMARK    1  A    between atoms: C15_17  and  C16_18 
REMARK    2  A    between atoms: C16_18  and  O1_19 
ROOT
HETATM    1  N1  UNL     1      -2.088   4.280   8.242  1.00  0.00    -0.196 NA
HETATM    2  C1  UNL     1      -2.352   4.566   9.346  1.00  0.00     0.069 C 
HETATM    3  C2  UNL     1      -2.688   4.961  10.741  1.00  0.00     0.056 C 
HETATM    4  C3  UNL     1      -4.103   5.269  10.808  1.00  0.00     0.027 C 
HETATM    5  C4  UNL     1      -4.554   6.583  11.384  1.00  0.00     0.023 C 
HETATM    6  C5  UNL     1      -5.158   6.476  12.746  1.00  0.00     0.082 A 
HETATM    7  C6  UNL     1      -4.446   6.360  13.941  1.00  0.00     0.089 A 
HETATM    8  C7  UNL     1      -3.073   6.046  14.218  1.00  0.00     0.035 C 
HETATM    9  C8  UNL     1      -1.965   6.776  13.500  1.00  0.00     0.016 C 
HETATM   10  C9  UNL     1      -1.310   5.810  12.563  1.00  0.00    -0.003 C 
HETATM   11  C10 UNL     1      -1.692   6.011  11.120  1.00  0.00     0.030 C 
HETATM   12  C11 UNL     1      -1.799   4.399  12.953  1.00  0.00     0.027 C 
HETATM   13  C12 UNL     1      -2.622   4.599  14.123  1.00  0.00    -0.068 C 
HETATM   14  C13 UNL     1      -3.677   3.648  14.495  1.00  0.00     0.015 C 
HETATM   15  C14 UNL     1      -4.907   3.939  14.107  1.00  0.00     0.061 C 
HETATM   16  N2  UNL     1      -5.085   5.116  13.380  1.00  0.00    -0.280 NA
HETATM   17  C15 UNL     1      -2.187   3.849  11.667  1.00  0.00     0.040 C 
ENDROOT
BRANCH  17  18
HETATM   18  C16 UNL     1      -2.833   2.547  11.516  1.00  0.00     0.171 C 
BRANCH  18  19
HETATM   19  O1  UNL     1      -1.837   1.542  11.657  1.00  0.00    -0.400 OA
ATOM     20  H1  UNL     1      -1.759   1.332  12.580  1.00  0.00     0.209 HD
ENDBRANCH  18  19
ENDBRANCH  17  18
TORSDOF 2
ENDMDL
MODEL 4
REMARK VINA RESULT: -5.456586365      1.683      2.283
REMARK  2 active torsions:
REMARK  status: ('A' for Active; 'I' for Inactive)
REMARK    1  A    between atoms: C15_17  and  C16_18 
REMARK    2  A    between atoms: C16_18  and  O1_19 
ROOT
HETATM    1  N1  UNL     1      -3.407   4.625   8.200  1.00  0.00    -0.196 NA
HETATM    2  C1  UNL     1      -3.458   4.647   9.369  1.00  0.00     0.069 C 
HETATM    3  C2  UNL     1      -3.507   4.704  10.855  1.00  0.00     0.056 C 
HETATM    4  C3  UNL     1      -4.573   5.604  11.250  1.00  0.00     0.027 C 
HETATM    5  C4  UNL     1      -4.284   6.727  12.208  1.00  0.00     0.023 C 
HETATM    6  C5  UNL     1      -4.818   6.505  13.585  1.00  0.00     0.082 A 
HETATM    7  C6  UNL     1      -4.225   5.707  14.565  1.00  0.00     0.089 A 
HETATM    8  C7  UNL     1      -3.189   4.716  14.504  1.00  0.00     0.035 C 
HETATM    9  C8  UNL     1      -1.886   5.019  13.805  1.00  0.00     0.016 C 
HETATM   10  C9  UNL     1      -1.835   4.198  12.555  1.00  0.00    -0.003 C 
HETATM   11  C10 UNL     1      -2.107   4.987  11.300  1.00  0.00     0.030 C 
HETATM   12  C11 UNL     1      -2.956   3.142  12.659  1.00  0.00     0.027 C 
HETATM   13  C12 UNL     1      -3.531   3.336  13.970  1.00  0.00    -0.068 C 
HETATM   14  C13 UNL     1      -4.908   2.932  14.274  1.00  0.00     0.015 C 
HETATM   15  C14 UNL     1      -5.836   3.871  14.198  1.00  0.00     0.061 C 
HETATM   16  N2  UNL     1      -5.420   5.151  13.834  1.00  0.00    -0.280 NA
HETATM   17  C15 UNL     1      -3.606   3.264  11.367  1.00  0.00     0.040 C 
ENDROOT
BRANCH  17  18
HETATM   18  C16 UNL     1      -4.823   2.537  11.013  1.00  0.00     0.171 C 
BRANCH  18  19
HETATM   19  O1  UNL     1      -4.466   1.483  10.130  1.00  0.00    -0.400 OA
ATOM     20  H1  UNL     1      -3.603   1.173  10.375  1.00  0.00     0.209 HD
ENDBRANCH  18  19
ENDBRANCH  17  18
TORSDOF 2
ENDMDL
MODEL 5
REMARK VINA RESULT: -5.336117343      1.862      3.143
REMARK  2 active torsions:
REMARK  status: ('A' for Active; 'I' for Inactive)
REMARK    1  A    between atoms: C15_17  and  C16_18 
REMARK    2  A    between atoms: C16_18  and  O1_19 
ROOT
HETATM    1  N1  UNL     1      -3.025   1.526  10.498  1.00  0.00    -0.196 NA
HETATM    2  C1  UNL     1      -3.079   2.506  11.137  1.00  0.00     0.069 C 
HETATM    3  C2  UNL     1      -3.133   3.734  11.974  1.00  0.00     0.056 C 
HETATM    4  C3  UNL     1      -1.823   4.355  11.972  1.00  0.00     0.027 C 
HETATM    5  C4  UNL     1      -1.156   4.694  13.277  1.00  0.00     0.023 C 
HETATM    6  C5  UNL     1      -1.150   6.154  13.596  1.00  0.00     0.082 A 
HETATM    7  C6  UNL     1      -2.225   6.872  14.124  1.00  0.00     0.089 A 
HETATM    8  C7  UNL     1      -3.621   6.564  14.249  1.00  0.00     0.035 C 
HETATM    9  C8  UNL     1      -4.060   5.250  14.850  1.00  0.00     0.016 C 
HETATM   10  C9  UNL     1      -4.650   4.419  13.755  1.00  0.00    -0.003 C 
HETATM   11  C10 UNL     1      -3.742   3.316  13.275  1.00  0.00     0.030 C 
HETATM   12  C11 UNL     1      -4.879   5.354  12.548  1.00  0.00     0.027 C 
HETATM   13  C12 UNL     1      -4.505   6.667  13.018  1.00  0.00    -0.068 C 
HETATM   14  C13 UNL     1      -4.072   7.722  12.093  1.00  0.00     0.015 C 
HETATM   15  C14 UNL     1      -2.768   7.877  11.933  1.00  0.00     0.061 C 
HETATM   16  N2  UNL     1      -1.931   7.025  12.653  1.00  0.00    -0.280 NA
HETATM   17  C15 UNL     1      -4.295   4.589  11.461  1.00  0.00     0.040 C 
ENDROOT
BRANCH  17  18
HETATM   18  C16 UNL     1      -4.160   5.109  10.102  1.00  0.00     0.171 C 
BRANCH  18  19
HETATM   19  O1  UNL     1      -5.457   5.438   9.625  1.00  0.00    -0.400 OA
ATOM     20  H1  UNL     1      -5.476   5.281   8.689  1.00  0.00     0.209 HD
ENDBRANCH  18  19
ENDBRANCH  17  18
TORSDOF 2
ENDMDL
