MODEL 1
REMARK VINA RESULT: -6.331062382      0.000      0.000
REMARK  2 active torsions:
REMARK  status: ('A' for Active; 'I' for Inactive)
REMARK    1  A    between atoms: C4_4  and  N1_5 
REMARK    2  A    between atoms: C7_8  and  N2_9 
ROOT
HETATM    1  N1  UNL     1      -4.953   3.837  16.036  1.00  0.00     0.093 N 
HETATM    2  C5  UNL     1      -6.080   4.275  15.201  1.00  0.00     0.275 C 
HETATM    3  C6  UNL     1      -5.683   5.617  14.642  1.00  0.00     0.055 C 
HETATM    4  C7  UNL     1      -4.207   5.854  14.577  1.00  0.00     0.086 C 
HETATM    5  C13 UNL     1      -3.410   4.591  14.349  1.00  0.00     0.055 C 
HETATM    6  C14 UNL     1      -3.951   3.408  15.081  1.00  0.00     0.275 C 
ENDROOT
BRANCH   4   7
HETATM    7  N2  UNL     1      -3.840   6.781  13.537  1.00  0.00    -0.387 N 
HETATM    8  C8  UNL     1      -4.078   6.331  12.215  1.00  0.00     0.124 C 
HETATM    9  C9  UNL     1      -4.748   7.450  11.443  1.00  0.00     0.039 C 
HETATM   10  C10 UNL     1      -3.946   8.706  11.698  1.00  0.00     0.115 C 
HETATM   11  N3  UNL     1      -2.567   8.411  11.471  1.00  0.00    -0.417 N 
HETATM   12  C11 UNL     1      -1.858   7.877  12.575  1.00  0.00     0.158 C 
ATOM     13  H3  UNL     1      -2.121   8.575  10.569  1.00  0.00     0.153 HD
HETATM   14  C12 UNL     1      -2.679   7.546  13.773  1.00  0.00     0.077 C 
ENDBRANCH   4   7
BRANCH   1  15
HETATM   15  C4  UNL     1      -5.424   2.792  16.884  1.00  0.00     0.223 C 
HETATM   16  C3  UNL     1      -6.874   2.765  17.184  1.00  0.00     0.036 C 
HETATM   17  C2  UNL     1      -7.214   1.282  17.395  1.00  0.00     0.002 C 
HETATM   18  C1  UNL     1      -5.868   0.580  17.492  1.00  0.00     0.002 C 
HETATM   19  C15 UNL     1      -5.053   1.405  16.486  1.00  0.00     0.036 C 
ENDBRANCH   1  15
TORSDOF 2
ENDMDL
MODEL 2
REMARK VINA RESULT: -6.249087278      0.494      1.473
REMARK  2 active torsions:
REMARK  status: ('A' for Active; 'I' for Inactive)
REMARK    1  A    between atoms: C4_4  and  N1_5 
REMARK    2  A    between atoms: C7_8  and  N2_9 
ROOT
HETATM    1  N1  UNL     1      -4.839   3.628  16.072  1.00  0.00     0.093 N 
HETATM    2  C5  UNL     1      -5.931   4.466  15.556  1.00  0.00     0.275 C 
HETATM    3  C6  UNL     1      -5.276   5.712  15.019  1.00  0.00     0.055 C 
HETATM    4  C7  UNL     1      -3.841   5.546  14.629  1.00  0.00     0.086 C 
HETATM    5  C13 UNL     1      -3.516   4.157  14.131  1.00  0.00     0.055 C 
HETATM    6  C14 UNL     1      -4.223   3.076  14.882  1.00  0.00     0.275 C 
ENDROOT
BRANCH   4   7
HETATM    7  N2  UNL     1      -3.434   6.471  13.602  1.00  0.00    -0.387 N 
HETATM    8  C8  UNL     1      -2.680   7.581  14.054  1.00  0.00     0.124 C 
HETATM    9  C9  UNL     1      -1.491   7.757  13.133  1.00  0.00     0.039 C 
HETATM   10  C10 UNL     1      -2.016   7.707  11.716  1.00  0.00     0.115 C 
HETATM   11  N3  UNL     1      -3.129   8.597  11.620  1.00  0.00    -0.417 N 
HETATM   12  C11 UNL     1      -4.388   8.055  11.979  1.00  0.00     0.158 C 
ATOM     13  H3  UNL     1      -3.024   9.563  11.311  1.00  0.00     0.153 HD
HETATM   14  C12 UNL     1      -4.360   6.684  12.561  1.00  0.00     0.077 C 
ENDBRANCH   4   7
BRANCH   1  15
HETATM   15  C4  UNL     1      -5.415   2.645  16.929  1.00  0.00     0.223 C 
HETATM   16  C3  UNL     1      -6.885   2.684  17.110  1.00  0.00     0.036 C 
HETATM   17  C2  UNL     1      -7.297   1.226  17.365  1.00  0.00     0.002 C 
HETATM   18  C1  UNL     1      -5.992   0.484  17.606  1.00  0.00     0.002 C 
HETATM   19  C15 UNL     1      -5.068   1.228  16.630  1.00  0.00     0.036 C 
ENDBRANCH   1  15
TORSDOF 2
ENDMDL
MODEL 3
REMARK VINA RESULT: -6.154339177      1.019      1.511
REMARK  2 active torsions:
REMARK  status: ('A' for Active; 'I' for Inactive)
REMARK    1  A    between atoms: C4_4  and  N1_5 
REMARK    2  A    between atoms: C7_8  and  N2_9 
ROOT
HETATM    1  N1  UNL     1      -4.591   3.448  15.787  1.00  0.00     0.093 N 
HETATM    2  C5  UNL     1      -5.385   4.680  15.670  1.00  0.00     0.275 C 
HETATM    3  C6  UNL     1      -4.485   5.688  15.003  1.00  0.00     0.055 C 
HETATM    4  C7  UNL     1      -3.386   5.096  14.179  1.00  0.00     0.086 C 
HETATM    5  C13 UNL     1      -3.757   3.773  13.552  1.00  0.00     0.055 C 
HETATM    6  C14 UNL     1      -4.581   2.904  14.444  1.00  0.00     0.275 C 
ENDROOT
BRANCH   4   7
HETATM    7  N2  UNL     1      -2.961   5.967  13.112  1.00  0.00    -0.387 N 
HETATM    8  C8  UNL     1      -3.658   7.196  13.023  1.00  0.00     0.124 C 
HETATM    9  C9  UNL     1      -2.644   8.307  12.839  1.00  0.00     0.039 C 
HETATM   10  C10 UNL     1      -1.704   7.872  11.739  1.00  0.00     0.115 C 
HETATM   11  N3  UNL     1      -2.488   7.432  10.628  1.00  0.00    -0.417 N 
HETATM   12  C11 UNL     1      -2.894   6.076  10.655  1.00  0.00     0.158 C 
ATOM     13  H3  UNL     1      -2.739   8.057   9.863  1.00  0.00     0.153 HD
HETATM   14  C12 UNL     1      -2.587   5.333  11.910  1.00  0.00     0.077 C 
ENDBRANCH   4   7
BRANCH   1  15
HETATM   15  C4  UNL     1      -5.235   2.609  16.743  1.00  0.00     0.223 C 
HETATM   16  C3  UNL     1      -6.679   2.836  16.980  1.00  0.00     0.036 C 
HETATM   17  C2  UNL     1      -7.244   1.461  17.367  1.00  0.00     0.002 C 
HETATM   18  C1  UNL     1      -6.022   0.589  17.615  1.00  0.00     0.002 C 
HETATM   19  C15 UNL     1      -5.068   1.141  16.547  1.00  0.00     0.036 C 
ENDBRANCH   1  15
TORSDOF 2
ENDMDL
MODEL 4
REMARK VINA RESULT: -6.087032302      1.397      6.837
REMARK  2 active torsions:
REMARK  status: ('A' for Active; 'I' for Inactive)
REMARK    1  A    between atoms: C4_4  and  N1_5 
REMARK    2  A    between atoms: C7_8  and  N2_9 
ROOT
HETATM    1  N1  UNL     1      -4.843   5.898  12.855  1.00  0.00     0.093 N 
HETATM    2  C5  UNL     1      -4.403   6.254  14.211  1.00  0.00     0.275 C 
HETATM    3  C6  UNL     1      -5.122   5.309  15.139  1.00  0.00     0.055 C 
HETATM    4  C7  UNL     1      -5.557   4.024  14.509  1.00  0.00     0.086 C 
HETATM    5  C13 UNL     1      -4.638   3.562  13.402  1.00  0.00     0.055 C 
HETATM    6  C14 UNL     1      -4.119   4.678  12.556  1.00  0.00     0.275 C 
ENDROOT
BRANCH   4   7
HETATM    7  N2  UNL     1      -5.654   2.945  15.458  1.00  0.00    -0.387 N 
HETATM    8  C8  UNL     1      -5.789   3.342  16.811  1.00  0.00     0.124 C 
HETATM    9  C9  UNL     1      -6.895   2.519  17.441  1.00  0.00     0.039 C 
HETATM   10  C10 UNL     1      -6.632   1.074  17.083  1.00  0.00     0.115 C 
HETATM   11  N3  UNL     1      -5.266   0.781  17.384  1.00  0.00    -0.417 N 
HETATM   12  C11 UNL     1      -4.329   1.080  16.365  1.00  0.00     0.158 C 
ATOM     13  H3  UNL     1      -4.983   0.380  18.278  1.00  0.00     0.153 HD
HETATM   14  C12 UNL     1      -4.870   1.806  15.181  1.00  0.00     0.077 C 
ENDBRANCH   4   7
BRANCH   1  15
HETATM   15  C4  UNL     1      -4.515   6.986  11.994  1.00  0.00     0.223 C 
HETATM   16  C3  UNL     1      -5.633   7.833  11.518  1.00  0.00     0.036 C 
HETATM   17  C2  UNL     1      -5.024   9.230  11.322  1.00  0.00     0.002 C 
HETATM   18  C1  UNL     1      -3.521   9.021  11.419  1.00  0.00     0.002 C 
HETATM   19  C15 UNL     1      -3.463   7.919  12.487  1.00  0.00     0.036 C 
ENDBRANCH   1  15
TORSDOF 2
ENDMDL
MODEL 5
REMARK VINA RESULT: -6.081136770      1.083      1.566
REMARK  2 active torsions:
REMARK  status: ('A' for Active; 'I' for Inactive)
REMARK    1  A    between atoms: C4_4  and  N1_5 
REMARK    2  A    between atoms: C7_8  and  N2_9 
ROOT
HETATM    1  N1  UNL     1      -4.585   3.449  15.799  1.00  0.00     0.093 N 
HETATM    2  C5  UNL     1      -5.379   4.678  15.661  1.00  0.00     0.275 C 
HETATM    3  C6  UNL     1      -4.467   5.687  15.012  1.00  0.00     0.055 C 
HETATM    4  C7  UNL     1      -3.349   5.096  14.213  1.00  0.00     0.086 C 
HETATM    5  C13 UNL     1      -3.703   3.770  13.582  1.00  0.00     0.055 C 
HETATM    6  C14 UNL     1      -4.544   2.901  14.458  1.00  0.00     0.275 C 
ENDROOT
BRANCH   4   7
HETATM    7  N2  UNL     1      -2.903   5.965  13.154  1.00  0.00    -0.387 N 
HETATM    8  C8  UNL     1      -1.506   6.190  13.105  1.00  0.00     0.124 C 
HETATM    9  C9  UNL     1      -1.047   6.037  11.669  1.00  0.00     0.039 C 
HETATM   10  C10 UNL     1      -1.990   6.853  10.814  1.00  0.00     0.115 C 
HETATM   11  N3  UNL     1      -2.105   8.155  11.391  1.00  0.00    -0.417 N 
HETATM   12  C11 UNL     1      -3.086   8.300  12.402  1.00  0.00     0.158 C 
ATOM     13  H3  UNL     1      -1.516   8.932  11.092  1.00  0.00     0.153 HD
HETATM   14  C12 UNL     1      -3.755   7.043  12.840  1.00  0.00     0.077 C 
ENDBRANCH   4   7
BRANCH   1  15
HETATM   15  C4  UNL     1      -5.246   2.611  16.743  1.00  0.00     0.223 C 
HETATM   16  C3  UNL     1      -6.695   2.839  16.954  1.00  0.00     0.036 C 
HETATM   17  C2  UNL     1      -7.268   1.465  17.331  1.00  0.00     0.002 C 
HETATM   18  C1  UNL     1      -6.053   0.592  17.601  1.00  0.00     0.002 C 
HETATM   19  C15 UNL     1      -5.079   1.143  16.550  1.00  0.00     0.036 C 
ENDBRANCH   1  15
TORSDOF 2
ENDMDL
