MODEL 1
REMARK VINA RESULT: -6.040926368      0.000      0.000
REMARK  2 active torsions:
REMARK  status: ('A' for Active; 'I' for Inactive)
REMARK    1  A    between atoms: C1_2  and  C2_3 
REMARK       I    between atoms: C1_2  and  N1_11 
REMARK    2  A    between atoms: C5_6  and  C6_7 
ROOT
HETATM    1  C2  UNL     1      -5.311   5.029  15.042  1.00  0.00     0.078 C 
HETATM    2  C3  UNL     1      -5.804   3.647  14.696  1.00  0.00     0.014 C 
HETATM    3  C4  UNL     1      -5.561   2.655  15.806  1.00  0.00     0.006 C 
HETATM    4  C5  UNL     1      -5.689   3.319  17.173  1.00  0.00    -0.004 C 
HETATM    5  C7  UNL     1      -6.688   4.440  16.985  1.00  0.00     0.006 C 
HETATM    6  C8  UNL     1      -5.932   5.566  16.307  1.00  0.00     0.014 C 
ENDROOT
BRANCH   1   7
HETATM    7  C1  UNL     1      -5.665   5.968  13.939  1.00  0.00     0.224 C 
HETATM    8  O1  UNL     1      -6.869   6.247  13.724  1.00  0.00    -0.273 OA
HETATM    9  N1  UNL     1      -4.675   6.560  13.121  1.00  0.00    -0.348 N 
HETATM   10  C9  UNL     1      -5.077   7.467  12.069  1.00  0.00     0.152 C 
HETATM   11  C12 UNL     1      -3.251   6.328  13.248  1.00  0.00     0.152 C 
HETATM   12  C10 UNL     1      -3.881   8.357  11.784  1.00  0.00     0.187 C 
HETATM   13  O2  UNL     1      -2.799   7.651  11.283  1.00  0.00    -0.388 OA
HETATM   14  C11 UNL     1      -2.573   6.456  11.905  1.00  0.00     0.187 C 
ENDBRANCH   1   7
BRANCH   4  15
HETATM   15  C6  UNL     1      -6.116   2.332  18.228  1.00  0.00     0.090 C 
HETATM   16  S1  UNL     1      -6.360   0.727  17.436  1.00  0.00    -0.097 SA
ENDBRANCH   4  15
TORSDOF 2
ENDMDL
MODEL 2
REMARK VINA RESULT: -5.802060638      2.171      2.395
REMARK  2 active torsions:
REMARK  status: ('A' for Active; 'I' for Inactive)
REMARK    1  A    between atoms: C1_2  and  C2_3 
REMARK       I    between atoms: C1_2  and  N1_11 
REMARK    2  A    between atoms: C5_6  and  C6_7 
ROOT
HETATM    1  C2  UNL     1      -4.460   4.241  14.459  1.00  0.00     0.078 C 
HETATM    2  C3  UNL     1      -5.038   2.852  14.359  1.00  0.00     0.014 C 
HETATM    3  C4  UNL     1      -5.067   2.145  15.692  1.00  0.00     0.006 C 
HETATM    4  C5  UNL     1      -5.326   3.127  16.828  1.00  0.00    -0.004 C 
HETATM    5  C7  UNL     1      -6.163   4.233  16.224  1.00  0.00     0.006 C 
HETATM    6  C8  UNL     1      -5.203   5.108  15.445  1.00  0.00     0.014 C 
ENDROOT
BRANCH   1   7
HETATM    7  C1  UNL     1      -4.547   4.907  13.127  1.00  0.00     0.224 C 
HETATM    8  O1  UNL     1      -5.301   5.898  12.976  1.00  0.00    -0.273 OA
HETATM    9  N1  UNL     1      -3.797   4.451  12.019  1.00  0.00    -0.348 N 
HETATM   10  C9  UNL     1      -3.918   5.139  10.753  1.00  0.00     0.152 C 
HETATM   11  C12 UNL     1      -2.893   3.319  12.041  1.00  0.00     0.152 C 
HETATM   12  C10 UNL     1      -2.644   4.850   9.979  1.00  0.00     0.187 C 
HETATM   13  O2  UNL     1      -2.501   3.507   9.669  1.00  0.00    -0.388 OA
HETATM   14  C11 UNL     1      -2.840   2.658  10.685  1.00  0.00     0.187 C 
ENDBRANCH   1   7
BRANCH   4  15
HETATM   15  C6  UNL     1      -6.005   2.455  17.994  1.00  0.00     0.090 C 
HETATM   16  S1  UNL     1      -7.141   1.209  17.346  1.00  0.00    -0.097 SA
ENDBRANCH   4  15
TORSDOF 2
ENDMDL
MODEL 3
REMARK VINA RESULT: -5.796893739      1.593      1.812
REMARK  2 active torsions:
REMARK  status: ('A' for Active; 'I' for Inactive)
REMARK    1  A    between atoms: C1_2  and  C2_3 
REMARK       I    between atoms: C1_2  and  N1_11 
REMARK    2  A    between atoms: C5_6  and  C6_7 
ROOT
HETATM    1  C2  UNL     1      -4.361   4.486  14.856  1.00  0.00     0.078 C 
HETATM    2  C3  UNL     1      -4.811   3.060  14.660  1.00  0.00     0.014 C 
HETATM    3  C4  UNL     1      -4.983   2.327  15.968  1.00  0.00     0.006 C 
HETATM    4  C5  UNL     1      -5.481   3.265  17.061  1.00  0.00    -0.004 C 
HETATM    5  C7  UNL     1      -6.301   4.318  16.348  1.00  0.00     0.006 C 
HETATM    6  C8  UNL     1      -5.305   5.277  15.728  1.00  0.00     0.014 C 
ENDROOT
BRANCH   1   7
HETATM    7  C1  UNL     1      -4.300   5.169  13.532  1.00  0.00     0.224 C 
HETATM    8  O1  UNL     1      -5.336   5.691  13.055  1.00  0.00    -0.273 OA
HETATM    9  N1  UNL     1      -3.098   5.247  12.791  1.00  0.00    -0.348 N 
HETATM   10  C9  UNL     1      -3.099   5.926  11.514  1.00  0.00     0.152 C 
HETATM   11  C12 UNL     1      -1.830   4.688  13.211  1.00  0.00     0.152 C 
HETATM   12  C10 UNL     1      -1.668   6.364  11.257  1.00  0.00     0.187 C 
HETATM   13  O2  UNL     1      -0.800   5.293  11.117  1.00  0.00    -0.388 OA
HETATM   14  C11 UNL     1      -1.008   4.282  12.011  1.00  0.00     0.187 C 
ENDBRANCH   1   7
BRANCH   4  15
HETATM   15  C6  UNL     1      -6.271   2.523  18.108  1.00  0.00     0.090 C 
HETATM   16  S1  UNL     1      -7.064   1.105  17.318  1.00  0.00    -0.097 SA
ENDBRANCH   4  15
TORSDOF 2
ENDMDL
MODEL 4
REMARK VINA RESULT: -5.758774350      3.662      4.558
REMARK  2 active torsions:
REMARK  status: ('A' for Active; 'I' for Inactive)
REMARK    1  A    between atoms: C1_2  and  C2_3 
REMARK       I    between atoms: C1_2  and  N1_11 
REMARK    2  A    between atoms: C5_6  and  C6_7 
ROOT
HETATM    1  C2  UNL     1      -4.719   3.456  14.132  1.00  0.00     0.078 C 
HETATM    2  C3  UNL     1      -4.520   4.786  14.814  1.00  0.00     0.014 C 
HETATM    3  C4  UNL     1      -5.643   5.116  15.767  1.00  0.00     0.006 C 
HETATM    4  C5  UNL     1      -6.184   3.857  16.434  1.00  0.00    -0.004 C 
HETATM    5  C7  UNL     1      -5.013   2.901  16.503  1.00  0.00     0.006 C 
HETATM    6  C8  UNL     1      -4.865   2.319  15.112  1.00  0.00     0.014 C 
ENDROOT
BRANCH   1   7
HETATM    7  C1  UNL     1      -3.533   3.160  13.278  1.00  0.00     0.224 C 
HETATM    8  O1  UNL     1      -2.496   3.856  13.393  1.00  0.00    -0.273 OA
HETATM    9  N1  UNL     1      -3.541   2.106  12.336  1.00  0.00    -0.348 N 
HETATM   10  C9  UNL     1      -2.360   1.862  11.538  1.00  0.00     0.152 C 
HETATM   11  C12 UNL     1      -4.665   1.225  12.090  1.00  0.00     0.152 C 
HETATM   12  C10 UNL     1      -2.426   0.410  11.099  1.00  0.00     0.187 C 
HETATM   13  O2  UNL     1      -3.504   0.154  10.267  1.00  0.00    -0.388 OA
HETATM   14  C11 UNL     1      -4.667   0.760  10.653  1.00  0.00     0.187 C 
ENDBRANCH   1   7
BRANCH   4  15
HETATM   15  C6  UNL     1      -6.769   4.158  17.790  1.00  0.00     0.090 C 
HETATM   16  S1  UNL     1      -6.389   2.776  18.889  1.00  0.00    -0.097 SA
ENDBRANCH   4  15
TORSDOF 2
ENDMDL
MODEL 5
REMARK VINA RESULT: -5.710276799      2.702      3.054
REMARK  2 active torsions:
REMARK  status: ('A' for Active; 'I' for Inactive)
REMARK    1  A    between atoms: C1_2  and  C2_3 
REMARK       I    between atoms: C1_2  and  N1_11 
REMARK    2  A    between atoms: C5_6  and  C6_7 
ROOT
HETATM    1  C2  UNL     1      -4.032   3.227  13.975  1.00  0.00     0.078 C 
HETATM    2  C3  UNL     1      -4.495   1.845  14.360  1.00  0.00     0.014 C 
HETATM    3  C4  UNL     1      -4.694   1.699  15.849  1.00  0.00     0.006 C 
HETATM    4  C5  UNL     1      -5.196   2.999  16.465  1.00  0.00    -0.004 C 
HETATM    5  C7  UNL     1      -5.995   3.681  15.375  1.00  0.00     0.006 C 
HETATM    6  C8  UNL     1      -4.979   4.305  14.440  1.00  0.00     0.014 C 
ENDROOT
BRANCH   1   7
HETATM    7  C1  UNL     1      -3.945   3.320  12.489  1.00  0.00     0.224 C 
HETATM    8  O1  UNL     1      -4.948   3.039  11.790  1.00  0.00    -0.273 OA
HETATM    9  N1  UNL     1      -2.756   3.722  11.839  1.00  0.00    -0.348 N 
HETATM   10  C9  UNL     1      -2.732   3.798  10.395  1.00  0.00     0.152 C 
HETATM   11  C12 UNL     1      -1.522   4.070  12.513  1.00  0.00     0.152 C 
HETATM   12  C10 UNL     1      -1.624   4.771  10.031  1.00  0.00     0.187 C 
HETATM   13  O2  UNL     1      -0.371   4.315  10.408  1.00  0.00    -0.388 OA
HETATM   14  C11 UNL     1      -0.333   3.735  11.645  1.00  0.00     0.187 C 
ENDBRANCH   1   7
BRANCH   4  15
HETATM   15  C6  UNL     1      -6.010   2.744  17.707  1.00  0.00     0.090 C 
HETATM   16  S1  UNL     1      -6.990   1.249  17.443  1.00  0.00    -0.097 SA
ENDBRANCH   4  15
TORSDOF 2
ENDMDL
