MODEL 1
REMARK VINA RESULT: -7.230131207      0.000      0.000
REMARK  3 active torsions:
REMARK  status: ('A' for Active; 'I' for Inactive)
REMARK    1  A    between atoms: C1_2  and  C2_3 
REMARK       I    between atoms: C1_2  and  N1_10 
REMARK    2  A    between atoms: C2_3  and  C3_4 
REMARK    3  A    between atoms: N1_10  and  C9_12 
ROOT
HETATM    1  O1  UNL     1      -5.304   4.455  13.482  1.00  0.00    -0.274 OA
HETATM    2  C1  UNL     1      -4.747   3.651  14.256  1.00  0.00     0.220 C 
HETATM    3  N1  UNL     1      -3.919   2.610  13.760  1.00  0.00    -0.332 N 
ATOM      4  H1  UNL     1      -3.478   1.971  14.420  1.00  0.00     0.165 HD
ENDROOT
BRANCH   3   5
HETATM    5  C9  UNL     1      -3.684   2.429  12.343  1.00  0.00     0.255 C 
HETATM    6  O2  UNL     1      -2.496   1.772  12.030  1.00  0.00    -0.356 OA
HETATM    7  C10 UNL     1      -3.168   1.160  10.969  1.00  0.00     0.157 C 
HETATM    8  C11 UNL     1      -2.706  -0.202  10.613  1.00  0.00     0.037 C 
HETATM    9  C14 UNL     1      -4.429   1.231  11.751  1.00  0.00     0.199 C 
HETATM   10  C12 UNL     1      -3.195  -1.300  11.486  1.00  0.00     0.029 C 
HETATM   11  C13 UNL     1      -4.483  -1.029  12.185  1.00  0.00     0.168 C 
HETATM   12  O3  UNL     1      -4.568   0.257  12.708  1.00  0.00    -0.379 OA
ENDBRANCH   3   5
BRANCH   2  13
HETATM   13  C2  UNL     1      -4.950   3.787  15.716  1.00  0.00     0.107 C 
BRANCH  13  14
HETATM   14  C3  UNL     1      -6.232   3.136  16.179  1.00  0.00    -0.006 C 
HETATM   15  C4  UNL     1      -6.821   3.939  17.311  1.00  0.00     0.005 C 
HETATM   16  C5  UNL     1      -6.059   3.600  18.566  1.00  0.00     0.000 C 
HETATM   17  C6  UNL     1      -6.400   2.198  18.968  1.00  0.00     0.000 C 
HETATM   18  C7  UNL     1      -6.565   1.258  17.826  1.00  0.00     0.000 C 
HETATM   19  C8  UNL     1      -5.961   1.720  16.530  1.00  0.00     0.005 C 
ENDBRANCH  13  14
ENDBRANCH   2  13
TORSDOF 3
ENDMDL
MODEL 2
REMARK VINA RESULT: -7.217100838      0.819      1.431
REMARK  3 active torsions:
REMARK  status: ('A' for Active; 'I' for Inactive)
REMARK    1  A    between atoms: C1_2  and  C2_3 
REMARK       I    between atoms: C1_2  and  N1_10 
REMARK    2  A    between atoms: C2_3  and  C3_4 
REMARK    3  A    between atoms: N1_10  and  C9_12 
ROOT
HETATM    1  O1  UNL     1      -3.966   4.517  13.978  1.00  0.00    -0.274 OA
HETATM    2  C1  UNL     1      -4.878   3.669  14.060  1.00  0.00     0.220 C 
HETATM    3  N1  UNL     1      -4.956   2.586  13.146  1.00  0.00    -0.332 N 
ATOM      4  H1  UNL     1      -5.713   1.910  13.243  1.00  0.00     0.165 HD
ENDROOT
BRANCH   3   5
HETATM    5  C9  UNL     1      -3.991   2.413  12.081  1.00  0.00     0.255 C 
HETATM    6  O2  UNL     1      -2.803   1.795  12.466  1.00  0.00    -0.356 OA
HETATM    7  C10 UNL     1      -2.783   1.162  11.222  1.00  0.00     0.157 C 
HETATM    8  C11 UNL     1      -2.165  -0.185  11.193  1.00  0.00     0.037 C 
HETATM    9  C14 UNL     1      -4.267   1.191  11.202  1.00  0.00     0.199 C 
HETATM   10  C12 UNL     1      -3.016  -1.298  11.685  1.00  0.00     0.029 C 
HETATM   11  C13 UNL     1      -4.484  -1.069  11.579  1.00  0.00     0.168 C 
HETATM   12  O3  UNL     1      -4.872   0.213  11.951  1.00  0.00    -0.379 OA
ENDBRANCH   3   5
BRANCH   2  13
HETATM   13  C2  UNL     1      -5.894   3.794  15.130  1.00  0.00     0.107 C 
BRANCH  13  14
HETATM   14  C3  UNL     1      -5.318   3.522  16.500  1.00  0.00    -0.006 C 
HETATM   15  C4  UNL     1      -4.540   2.231  16.470  1.00  0.00     0.005 C 
HETATM   16  C5  UNL     1      -5.527   1.094  16.530  1.00  0.00     0.000 C 
HETATM   17  C6  UNL     1      -6.135   1.059  17.899  1.00  0.00     0.000 C 
HETATM   18  C7  UNL     1      -6.389   2.402  18.488  1.00  0.00     0.000 C 
HETATM   19  C8  UNL     1      -6.414   3.535  17.500  1.00  0.00     0.005 C 
ENDBRANCH  13  14
ENDBRANCH   2  13
TORSDOF 3
ENDMDL
MODEL 3
REMARK VINA RESULT: -6.869267684      1.754      3.039
REMARK  3 active torsions:
REMARK  status: ('A' for Active; 'I' for Inactive)
REMARK    1  A    between atoms: C1_2  and  C2_3 
REMARK       I    between atoms: C1_2  and  N1_10 
REMARK    2  A    between atoms: C2_3  and  C3_4 
REMARK    3  A    between atoms: N1_10  and  C9_12 
ROOT
HETATM    1  O1  UNL     1      -4.555  -0.053  14.059  1.00  0.00    -0.274 OA
HETATM    2  C1  UNL     1      -4.388   1.082  14.550  1.00  0.00     0.220 C 
HETATM    3  N1  UNL     1      -4.219   2.221  13.720  1.00  0.00    -0.332 N 
ATOM      4  H1  UNL     1      -4.086   3.134  14.154  1.00  0.00     0.165 HD
ENDROOT
BRANCH   3   5
HETATM    5  C9  UNL     1      -4.231   2.124  12.275  1.00  0.00     0.255 C 
HETATM    6  O2  UNL     1      -4.448   3.331  11.613  1.00  0.00    -0.356 OA
HETATM    7  C10 UNL     1      -3.559   2.897  10.628  1.00  0.00     0.157 C 
HETATM    8  C11 UNL     1      -2.773   3.958   9.955  1.00  0.00     0.037 C 
HETATM    9  C14 UNL     1      -2.832   2.109  11.656  1.00  0.00     0.199 C 
HETATM   10  C12 UNL     1      -1.602   4.472  10.709  1.00  0.00     0.029 C 
HETATM   11  C13 UNL     1      -1.016   3.523  11.698  1.00  0.00     0.168 C 
HETATM   12  O3  UNL     1      -1.973   2.838  12.439  1.00  0.00    -0.379 OA
ENDBRANCH   3   5
BRANCH   2  13
HETATM   13  C2  UNL     1      -4.368   1.243  16.021  1.00  0.00     0.107 C 
BRANCH  13  14
HETATM   14  C3  UNL     1      -5.758   1.328  16.607  1.00  0.00    -0.006 C 
HETATM   15  C4  UNL     1      -6.431   2.585  16.118  1.00  0.00     0.005 C 
HETATM   16  C5  UNL     1      -5.894   3.741  16.922  1.00  0.00     0.000 C 
HETATM   17  C6  UNL     1      -6.415   3.633  18.322  1.00  0.00     0.000 C 
HETATM   18  C7  UNL     1      -6.496   2.239  18.838  1.00  0.00     0.000 C 
HETATM   19  C8  UNL     1      -5.670   1.234  18.085  1.00  0.00     0.005 C 
ENDBRANCH  13  14
ENDBRANCH   2  13
TORSDOF 3
ENDMDL
MODEL 4
REMARK VINA RESULT: -6.745791181      2.754      5.971
REMARK  3 active torsions:
REMARK  status: ('A' for Active; 'I' for Inactive)
REMARK    1  A    between atoms: C1_2  and  C2_3 
REMARK       I    between atoms: C1_2  and  N1_10 
REMARK    2  A    between atoms: C2_3  and  C3_4 
REMARK    3  A    between atoms: N1_10  and  C9_12 
ROOT
HETATM    1  O1  UNL     1      -4.963   2.771  12.755  1.00  0.00    -0.274 OA
HETATM    2  C1  UNL     1      -4.024   3.163  13.476  1.00  0.00     0.220 C 
HETATM    3  N1  UNL     1      -3.811   2.612  14.766  1.00  0.00    -0.332 N 
ATOM      4  H1  UNL     1      -3.033   2.954  15.329  1.00  0.00     0.165 HD
ENDROOT
BRANCH   3   5
HETATM    5  C9  UNL     1      -4.667   1.577  15.307  1.00  0.00     0.255 C 
HETATM    6  O2  UNL     1      -4.303   1.124  16.573  1.00  0.00    -0.356 OA
HETATM    7  C10 UNL     1      -5.663   0.995  16.866  1.00  0.00     0.157 C 
HETATM    8  C11 UNL     1      -6.041   1.216  18.282  1.00  0.00     0.037 C 
HETATM    9  C14 UNL     1      -5.951   2.117  15.938  1.00  0.00     0.199 C 
HETATM   10  C12 UNL     1      -6.138   2.634  18.712  1.00  0.00     0.029 C 
HETATM   11  C13 UNL     1      -6.434   3.608  17.624  1.00  0.00     0.168 C 
HETATM   12  O3  UNL     1      -5.719   3.367  16.456  1.00  0.00    -0.379 OA
ENDBRANCH   3   5
BRANCH   2  13
HETATM   13  C2  UNL     1      -3.115   4.220  12.976  1.00  0.00     0.107 C 
BRANCH  13  14
HETATM   14  C3  UNL     1      -2.777   5.235  14.042  1.00  0.00    -0.006 C 
HETATM   15  C4  UNL     1      -3.900   6.234  14.156  1.00  0.00     0.005 C 
HETATM   16  C5  UNL     1      -3.769   7.212  13.017  1.00  0.00     0.000 C 
HETATM   17  C6  UNL     1      -2.564   8.069  13.259  1.00  0.00     0.000 C 
HETATM   18  C7  UNL     1      -1.411   7.345  13.860  1.00  0.00     0.000 C 
HETATM   19  C8  UNL     1      -1.462   5.849  13.730  1.00  0.00     0.005 C 
ENDBRANCH  13  14
ENDBRANCH   2  13
TORSDOF 3
ENDMDL
MODEL 5
REMARK VINA RESULT: -6.718493602      1.578      2.051
REMARK  3 active torsions:
REMARK  status: ('A' for Active; 'I' for Inactive)
REMARK    1  A    between atoms: C1_2  and  C2_3 
REMARK       I    between atoms: C1_2  and  N1_10 
REMARK    2  A    between atoms: C2_3  and  C3_4 
REMARK    3  A    between atoms: N1_10  and  C9_12 
ROOT
HETATM    1  O1  UNL     1      -1.844   4.256  14.103  1.00  0.00    -0.274 OA
HETATM    2  C1  UNL     1      -3.056   4.306  13.811  1.00  0.00     0.220 C 
HETATM    3  N1  UNL     1      -3.568   3.614  12.683  1.00  0.00    -0.332 N 
ATOM      4  H1  UNL     1      -4.564   3.676  12.474  1.00  0.00     0.165 HD
ENDROOT
BRANCH   3   5
HETATM    5  C9  UNL     1      -2.717   2.823  11.820  1.00  0.00     0.255 C 
HETATM    6  O2  UNL     1      -2.256   1.636  12.386  1.00  0.00    -0.356 OA
HETATM    7  C10 UNL     1      -2.375   1.043  11.127  1.00  0.00     0.157 C 
HETATM    8  C11 UNL     1      -2.711  -0.400  11.124  1.00  0.00     0.037 C 
HETATM    9  C14 UNL     1      -3.495   1.968  10.817  1.00  0.00     0.199 C 
HETATM   10  C12 UNL     1      -4.140  -0.732  11.355  1.00  0.00     0.029 C 
HETATM   11  C13 UNL     1      -5.109   0.335  10.977  1.00  0.00     0.168 C 
HETATM   12  O3  UNL     1      -4.704   1.609  11.358  1.00  0.00    -0.379 OA
ENDBRANCH   3   5
BRANCH   2  13
HETATM   13  C2  UNL     1      -3.975   5.100  14.658  1.00  0.00     0.107 C 
BRANCH  13  14
HETATM   14  C3  UNL     1      -5.300   4.405  14.872  1.00  0.00    -0.006 C 
HETATM   15  C4  UNL     1      -6.378   5.437  15.084  1.00  0.00     0.005 C 
HETATM   16  C5  UNL     1      -6.275   5.932  16.504  1.00  0.00     0.000 C 
HETATM   17  C6  UNL     1      -6.709   4.834  17.425  1.00  0.00     0.000 C 
HETATM   18  C7  UNL     1      -6.288   3.473  16.995  1.00  0.00     0.000 C 
HETATM   19  C8  UNL     1      -5.169   3.441  15.992  1.00  0.00     0.005 C 
ENDBRANCH  13  14
ENDBRANCH   2  13
TORSDOF 3
ENDMDL
