MODEL 1
REMARK VINA RESULT: -6.871429177      0.000      0.000
REMARK  5 active torsions:
REMARK  status: ('A' for Active; 'I' for Inactive)
REMARK    1  A    between atoms: O1_1  and  C1_3 
REMARK    2  A    between atoms: C1_3  and  C2_4 
REMARK    3  A    between atoms: C3_5  and  C4_6 
REMARK    4  A    between atoms: C4_6  and  C5_7 
REMARK    5  A    between atoms: C5_7  and  N1_8 
ROOT
HETATM    1  C2  UNL     1      -4.695   2.626  12.972  1.00  0.00    -0.066 C 
HETATM    2  C3  UNL     1      -4.771   3.409  13.894  1.00  0.00    -0.102 C 
ENDROOT
BRANCH   2   3
HETATM    3  C4  UNL     1      -4.871   4.337  15.022  1.00  0.00     0.124 C 
BRANCH   3   4
HETATM    4  C5  UNL     1      -4.863   3.652  16.342  1.00  0.00     0.285 C 
BRANCH   4   5
HETATM    5  N1  UNL     1      -5.698   2.490  16.417  1.00  0.00     0.098 N 
HETATM    6  C6  UNL     1      -7.054   2.793  16.834  1.00  0.00     0.223 C 
HETATM    7  C7  UNL     1      -7.631   1.395  16.959  1.00  0.00     0.038 C 
HETATM    8  C11 UNL     1      -6.831   3.298  18.237  1.00  0.00     0.038 C 
HETATM    9  C8  UNL     1      -6.419   0.526  17.326  1.00  0.00     0.038 C 
HETATM   10  C9  UNL     1      -5.337   1.583  17.488  1.00  0.00     0.223 C 
HETATM   11  C10 UNL     1      -5.696   2.393  18.705  1.00  0.00     0.038 C 
ENDBRANCH   4   5
ENDBRANCH   3   4
ENDBRANCH   2   3
BRANCH   1  12
HETATM   12  C1  UNL     1      -4.617   1.655  11.866  1.00  0.00     0.142 C 
HETATM   13  C12 UNL     1      -4.483   0.299  12.463  1.00  0.00     0.056 C 
HETATM   14  C13 UNL     1      -3.890  -0.723  11.538  1.00  0.00     0.030 C 
HETATM   15  C14 UNL     1      -3.645  -0.112  10.176  1.00  0.00     0.168 C 
HETATM   16  O2  UNL     1      -2.850   1.002  10.357  1.00  0.00    -0.387 OA
HETATM   17  C15 UNL     1      -3.496   2.055  10.961  1.00  0.00     0.219 C 
BRANCH  12  18
HETATM   18  O1  UNL     1      -5.817   1.741  11.124  1.00  0.00    -0.375 OA
ATOM     19  H1  UNL     1      -5.985   2.658  10.942  1.00  0.00     0.211 HD
ENDBRANCH  12  18
ENDBRANCH   1  12
TORSDOF 5
ENDMDL
MODEL 2
REMARK VINA RESULT: -6.034940826      2.876      6.439
REMARK  5 active torsions:
REMARK  status: ('A' for Active; 'I' for Inactive)
REMARK    1  A    between atoms: O1_1  and  C1_3 
REMARK    2  A    between atoms: C1_3  and  C2_4 
REMARK    3  A    between atoms: C3_5  and  C4_6 
REMARK    4  A    between atoms: C4_6  and  C5_7 
REMARK    5  A    between atoms: C5_7  and  N1_8 
ROOT
HETATM    1  C2  UNL     1      -4.492   1.086  14.573  1.00  0.00    -0.066 C 
HETATM    2  C3  UNL     1      -4.330   0.767  13.415  1.00  0.00    -0.102 C 
ENDROOT
BRANCH   2   3
HETATM    3  C4  UNL     1      -4.152   0.399  12.009  1.00  0.00     0.124 C 
BRANCH   3   4
HETATM    4  C5  UNL     1      -3.627   1.513  11.176  1.00  0.00     0.285 C 
BRANCH   4   5
HETATM    5  N1  UNL     1      -2.975   2.554  11.914  1.00  0.00     0.098 N 
HETATM    6  C6  UNL     1      -3.726   3.794  11.931  1.00  0.00     0.223 C 
HETATM    7  C7  UNL     1      -2.744   4.711  12.636  1.00  0.00     0.038 C 
HETATM    8  C11 UNL     1      -3.708   4.176  10.473  1.00  0.00     0.038 C 
HETATM    9  C8  UNL     1      -1.369   4.136  12.264  1.00  0.00     0.038 C 
HETATM   10  C9  UNL     1      -1.763   3.039  11.286  1.00  0.00     0.223 C 
HETATM   11  C10 UNL     1      -2.311   3.724  10.061  1.00  0.00     0.038 C 
ENDBRANCH   4   5
ENDBRANCH   3   4
ENDBRANCH   2   3
BRANCH   1  12
HETATM   12  C1  UNL     1      -4.711   1.486  15.975  1.00  0.00     0.142 C 
HETATM   13  C12 UNL     1      -5.830   0.663  16.509  1.00  0.00     0.056 C 
HETATM   14  C13 UNL     1      -6.515   1.262  17.702  1.00  0.00     0.030 C 
HETATM   15  C14 UNL     1      -5.824   2.544  18.111  1.00  0.00     0.168 C 
HETATM   16  O2  UNL     1      -5.802   3.374  17.007  1.00  0.00    -0.387 OA
HETATM   17  C15 UNL     1      -4.942   2.962  16.017  1.00  0.00     0.219 C 
BRANCH  12  18
HETATM   18  O1  UNL     1      -3.526   1.217  16.696  1.00  0.00    -0.375 OA
ATOM     19  H1  UNL     1      -3.767   0.780  17.504  1.00  0.00     0.211 HD
ENDBRANCH  12  18
ENDBRANCH   1  12
TORSDOF 5
ENDMDL
MODEL 3
REMARK VINA RESULT: -5.985573549      2.633      6.249
REMARK  5 active torsions:
REMARK  status: ('A' for Active; 'I' for Inactive)
REMARK    1  A    between atoms: O1_1  and  C1_3 
REMARK    2  A    between atoms: C1_3  and  C2_4 
REMARK    3  A    between atoms: C3_5  and  C4_6 
REMARK    4  A    between atoms: C4_6  and  C5_7 
REMARK    5  A    between atoms: C5_7  and  N1_8 
ROOT
HETATM    1  C2  UNL     1      -4.344   3.546  15.325  1.00  0.00    -0.066 C 
HETATM    2  C3  UNL     1      -3.609   4.321  14.753  1.00  0.00    -0.102 C 
ENDROOT
BRANCH   2   3
HETATM    3  C4  UNL     1      -2.724   5.243  14.039  1.00  0.00     0.124 C 
BRANCH   3   4
HETATM    4  C5  UNL     1      -2.480   4.843  12.628  1.00  0.00     0.285 C 
BRANCH   4   5
HETATM    5  N1  UNL     1      -3.046   3.579  12.260  1.00  0.00     0.098 N 
HETATM    6  C6  UNL     1      -2.172   2.792  11.411  1.00  0.00     0.223 C 
HETATM    7  C7  UNL     1      -3.078   1.619  11.082  1.00  0.00     0.038 C 
HETATM    8  C11 UNL     1      -2.104   3.649  10.173  1.00  0.00     0.038 C 
HETATM    9  C8  UNL     1      -4.491   2.217  11.137  1.00  0.00     0.038 C 
HETATM   10  C9  UNL     1      -4.181   3.688  11.366  1.00  0.00     0.223 C 
HETATM   11  C10 UNL     1      -3.526   4.196  10.108  1.00  0.00     0.038 C 
ENDBRANCH   4   5
ENDBRANCH   3   4
ENDBRANCH   2   3
BRANCH   1  12
HETATM   12  C1  UNL     1      -5.239   2.589  16.001  1.00  0.00     0.142 C 
HETATM   13  C12 UNL     1      -5.724   3.231  17.253  1.00  0.00     0.056 C 
HETATM   14  C13 UNL     1      -6.208   2.262  18.291  1.00  0.00     0.030 C 
HETATM   15  C14 UNL     1      -6.146   0.849  17.754  1.00  0.00     0.168 C 
HETATM   16  O2  UNL     1      -4.850   0.619  17.339  1.00  0.00    -0.387 OA
HETATM   17  C15 UNL     1      -4.498   1.306  16.201  1.00  0.00     0.219 C 
BRANCH  12  18
HETATM   18  O1  UNL     1      -6.328   2.326  15.139  1.00  0.00    -0.375 OA
ATOM     19  H1  UNL     1      -6.375   1.386  15.006  1.00  0.00     0.211 HD
ENDBRANCH  12  18
ENDBRANCH   1  12
TORSDOF 5
ENDMDL
MODEL 4
REMARK VINA RESULT: -5.906442578      2.963      5.064
REMARK  5 active torsions:
REMARK  status: ('A' for Active; 'I' for Inactive)
REMARK    1  A    between atoms: O1_1  and  C1_3 
REMARK    2  A    between atoms: C1_3  and  C2_4 
REMARK    3  A    between atoms: C3_5  and  C4_6 
REMARK    4  A    between atoms: C4_6  and  C5_7 
REMARK    5  A    between atoms: C5_7  and  N1_8 
ROOT
HETATM    1  C2  UNL     1      -4.514   2.812  12.923  1.00  0.00    -0.066 C 
HETATM    2  C3  UNL     1      -4.511   3.670  13.778  1.00  0.00    -0.102 C 
ENDROOT
BRANCH   2   3
HETATM    3  C4  UNL     1      -4.533   4.703  14.815  1.00  0.00     0.124 C 
BRANCH   3   4
HETATM    4  C5  UNL     1      -3.933   5.989  14.370  1.00  0.00     0.285 C 
BRANCH   4   5
HETATM    5  N1  UNL     1      -2.883   5.855  13.405  1.00  0.00     0.098 N 
HETATM    6  C6  UNL     1      -1.573   6.159  13.948  1.00  0.00     0.223 C 
HETATM    7  C7  UNL     1      -0.721   6.076  12.694  1.00  0.00     0.038 C 
HETATM    8  C11 UNL     1      -1.717   7.623  14.279  1.00  0.00     0.038 C 
HETATM    9  C8  UNL     1      -1.684   6.473  11.566  1.00  0.00     0.038 C 
HETATM   10  C9  UNL     1      -2.925   6.855  12.358  1.00  0.00     0.223 C 
HETATM   11  C10 UNL     1      -2.586   8.108  13.123  1.00  0.00     0.038 C 
ENDBRANCH   4   5
ENDBRANCH   3   4
ENDBRANCH   2   3
BRANCH   1  12
HETATM   12  C1  UNL     1      -4.542   1.767  11.884  1.00  0.00     0.142 C 
HETATM   13  C12 UNL     1      -4.424   0.449  12.566  1.00  0.00     0.056 C 
HETATM   14  C13 UNL     1      -3.930  -0.657  11.681  1.00  0.00     0.030 C 
HETATM   15  C14 UNL     1      -3.747  -0.151  10.267  1.00  0.00     0.168 C 
HETATM   16  O2  UNL     1      -2.900   0.938  10.322  1.00  0.00    -0.387 OA
HETATM   17  C15 UNL     1      -3.465   2.056  10.888  1.00  0.00     0.219 C 
BRANCH  12  18
HETATM   18  O1  UNL     1      -5.782   1.853  11.211  1.00  0.00    -0.375 OA
ATOM     19  H1  UNL     1      -6.448   1.479  11.776  1.00  0.00     0.211 HD
ENDBRANCH  12  18
ENDBRANCH   1  12
TORSDOF 5
ENDMDL
MODEL 5
REMARK VINA RESULT: -5.891079645      2.949      6.474
REMARK  5 active torsions:
REMARK  status: ('A' for Active; 'I' for Inactive)
REMARK    1  A    between atoms: O1_1  and  C1_3 
REMARK    2  A    between atoms: C1_3  and  C2_4 
REMARK    3  A    between atoms: C3_5  and  C4_6 
REMARK    4  A    between atoms: C4_6  and  C5_7 
REMARK    5  A    between atoms: C5_7  and  N1_8 
ROOT
HETATM    1  C2  UNL     1      -4.587   3.904  15.367  1.00  0.00    -0.066 C 
HETATM    2  C3  UNL     1      -3.981   4.808  14.834  1.00  0.00    -0.102 C 
ENDROOT
BRANCH   2   3
HETATM    3  C4  UNL     1      -3.261   5.895  14.169  1.00  0.00     0.124 C 
BRANCH   3   4
HETATM    4  C5  UNL     1      -2.916   5.586  12.755  1.00  0.00     0.285 C 
BRANCH   4   5
HETATM    5  N1  UNL     1      -2.307   4.304  12.556  1.00  0.00     0.098 N 
HETATM    6  C6  UNL     1      -0.976   4.391  11.986  1.00  0.00     0.223 C 
HETATM    7  C7  UNL     1      -0.667   2.922  11.763  1.00  0.00     0.038 C 
HETATM    8  C11 UNL     1      -1.268   4.984  10.631  1.00  0.00     0.038 C 
HETATM    9  C8  UNL     1      -2.044   2.286  11.525  1.00  0.00     0.038 C 
HETATM   10  C9  UNL     1      -2.940   3.516  11.518  1.00  0.00     0.223 C 
HETATM   11  C10 UNL     1      -2.588   4.304  10.283  1.00  0.00     0.038 C 
ENDBRANCH   4   5
ENDBRANCH   3   4
ENDBRANCH   2   3
BRANCH   1  12
HETATM   12  C1  UNL     1      -5.333   2.796  15.992  1.00  0.00     0.142 C 
HETATM   13  C12 UNL     1      -5.911   3.304  17.266  1.00  0.00     0.056 C 
HETATM   14  C13 UNL     1      -6.250   2.229  18.256  1.00  0.00     0.030 C 
HETATM   15  C14 UNL     1      -5.979   0.866  17.659  1.00  0.00     0.168 C 
HETATM   16  O2  UNL     1      -4.662   0.848  17.247  1.00  0.00    -0.387 OA
HETATM   17  C15 UNL     1      -4.412   1.629  16.143  1.00  0.00     0.219 C 
BRANCH  12  18
HETATM   18  O1  UNL     1      -6.368   2.414  15.109  1.00  0.00    -0.375 OA
ATOM     19  H1  UNL     1      -6.600   1.513  15.301  1.00  0.00     0.211 HD
ENDBRANCH  12  18
ENDBRANCH   1  12
TORSDOF 5
ENDMDL
