MODEL 1
REMARK VINA RESULT: -7.819338419      0.000      0.000
REMARK  4 active torsions:
REMARK  status: ('A' for Active; 'I' for Inactive)
REMARK    1  A    between atoms: C2_2  and  O1_3 
REMARK    2  A    between atoms: O1_3  and  C3_4 
REMARK    3  A    between atoms: C14_15  and  O2_16 
REMARK    4  A    between atoms: C15_18  and  O3_19 
ROOT
HETATM    1  C3  UNL     1      21.055   8.623  18.177  1.00  0.00     0.132 C 
HETATM    2  C4  UNL     1      20.630   9.504  19.370  1.00  0.00     0.033 C 
HETATM    3  C5  UNL     1      21.431   8.964  20.571  1.00  0.00     0.008 C 
HETATM    4  C6  UNL     1      22.361   8.060  19.940  1.00  0.00    -0.003 C 
HETATM    5  C7  UNL     1      21.438   7.390  18.897  1.00  0.00     0.020 C 
HETATM    6  C8  UNL     1      22.348   6.431  18.278  1.00  0.00     0.013 C 
HETATM    7  C9  UNL     1      23.347   6.119  19.375  1.00  0.00    -0.001 C 
HETATM    8  C10 UNL     1      22.894   6.870  20.611  1.00  0.00    -0.005 C 
HETATM    9  C11 UNL     1      21.984   6.138  21.505  1.00  0.00     0.006 C 
HETATM   10  C12 UNL     1      22.220   4.675  21.651  1.00  0.00     0.008 C 
HETATM   11  C13 UNL     1      22.419   4.054  20.305  1.00  0.00     0.025 C 
HETATM   12  C14 UNL     1      22.855   2.633  20.323  1.00  0.00     0.151 C 
HETATM   13  C15 UNL     1      23.637   2.439  19.037  1.00  0.00     0.148 C 
HETATM   14  C16 UNL     1      23.781   3.843  18.432  1.00  0.00     0.044 C 
HETATM   15  C17 UNL     1      23.622   4.709  19.619  1.00  0.00    -0.032 C 
HETATM   16  C18 UNL     1      24.869   4.586  20.472  1.00  0.00     0.016 C 
ENDROOT
BRANCH   1  17
HETATM   17  O1  UNL     1      22.211   9.252  17.617  1.00  0.00    -0.358 OA
BRANCH  17  18
HETATM   18  C2  UNL     1      22.236   9.791  16.351  1.00  0.00     0.125 C 
HETATM   19  C1  UNL     1      22.514   9.101  15.264  1.00  0.00     0.037 C 
ENDBRANCH  17  18
ENDBRANCH   1  17
BRANCH  12  20
HETATM   20  O2  UNL     1      21.787   1.735  20.332  1.00  0.00    -0.393 OA
ATOM     21  H2  UNL     1      21.810   1.138  21.072  1.00  0.00     0.210 HD
ENDBRANCH  12  20
BRANCH  13  22
HETATM   22  O3  UNL     1      22.960   1.589  18.159  1.00  0.00    -0.393 OA
ATOM     23  H3  UNL     1      22.077   1.899  17.995  1.00  0.00     0.210 HD
ENDBRANCH  13  22
TORSDOF 4
ENDMDL
MODEL 2
REMARK VINA RESULT: -7.478310336      0.978      1.234
REMARK  4 active torsions:
REMARK  status: ('A' for Active; 'I' for Inactive)
REMARK    1  A    between atoms: C2_2  and  O1_3 
REMARK    2  A    between atoms: O1_3  and  C3_4 
REMARK    3  A    between atoms: C14_15  and  O2_16 
REMARK    4  A    between atoms: C15_18  and  O3_19 
ROOT
HETATM    1  C3  UNL     1      21.648   8.214  17.882  1.00  0.00     0.132 C 
HETATM    2  C4  UNL     1      20.992   8.786  19.155  1.00  0.00     0.033 C 
HETATM    3  C5  UNL     1      21.684   8.058  20.323  1.00  0.00     0.008 C 
HETATM    4  C6  UNL     1      22.769   7.377  19.663  1.00  0.00    -0.003 C 
HETATM    5  C7  UNL     1      22.055   6.884  18.383  1.00  0.00     0.020 C 
HETATM    6  C8  UNL     1      23.126   6.145  17.720  1.00  0.00     0.013 C 
HETATM    7  C9  UNL     1      24.004   5.675  18.863  1.00  0.00    -0.001 C 
HETATM    8  C10 UNL     1      23.327   6.110  20.148  1.00  0.00    -0.005 C 
HETATM    9  C11 UNL     1      22.387   5.142  20.733  1.00  0.00     0.006 C 
HETATM   10  C12 UNL     1      22.744   3.701  20.611  1.00  0.00     0.008 C 
HETATM   11  C13 UNL     1      23.172   3.399  19.210  1.00  0.00     0.025 C 
HETATM   12  C14 UNL     1      23.739   2.041  19.001  1.00  0.00     0.151 C 
HETATM   13  C15 UNL     1      24.693   2.182  17.830  1.00  0.00     0.148 C 
HETATM   14  C16 UNL     1      24.774   3.690  17.550  1.00  0.00     0.044 C 
HETATM   15  C17 UNL     1      24.382   4.268  18.852  1.00  0.00    -0.032 C 
HETATM   16  C18 UNL     1      25.518   4.051  19.833  1.00  0.00     0.016 C 
ENDROOT
BRANCH   1  17
HETATM   17  O1  UNL     1      22.799   9.027  17.633  1.00  0.00    -0.358 OA
BRANCH  17  18
HETATM   18  C2  UNL     1      23.173   9.437  16.375  1.00  0.00     0.125 C 
HETATM   19  C1  UNL     1      22.474   9.197  15.285  1.00  0.00     0.037 C 
ENDBRANCH  17  18
ENDBRANCH   1  17
BRANCH  12  20
HETATM   20  O2  UNL     1      22.771   1.091  18.674  1.00  0.00    -0.393 OA
ATOM     21  H2  UNL     1      22.556   0.514  19.398  1.00  0.00     0.210 HD
ENDBRANCH  12  20
BRANCH  13  22
HETATM   22  O3  UNL     1      24.218   1.496  16.708  1.00  0.00    -0.393 OA
ATOM     23  H3  UNL     1      23.709   2.068  16.146  1.00  0.00     0.210 HD
ENDBRANCH  13  22
TORSDOF 4
ENDMDL
MODEL 3
REMARK VINA RESULT: -6.969064516      2.220      3.905
REMARK  4 active torsions:
REMARK  status: ('A' for Active; 'I' for Inactive)
REMARK    1  A    between atoms: C2_2  and  O1_3 
REMARK    2  A    between atoms: O1_3  and  C3_4 
REMARK    3  A    between atoms: C14_15  and  O2_16 
REMARK    4  A    between atoms: C15_18  and  O3_19 
ROOT
HETATM    1  C3  UNL     1      23.010   8.771  17.576  1.00  0.00     0.132 C 
HETATM    2  C4  UNL     1      23.514   9.415  16.269  1.00  0.00     0.033 C 
HETATM    3  C5  UNL     1      23.925   8.232  15.371  1.00  0.00     0.008 C 
HETATM    4  C6  UNL     1      23.413   7.099  16.101  1.00  0.00    -0.003 C 
HETATM    5  C7  UNL     1      23.777   7.508  17.547  1.00  0.00     0.020 C 
HETATM    6  C8  UNL     1      23.312   6.348  18.302  1.00  0.00     0.013 C 
HETATM    7  C9  UNL     1      23.420   5.204  17.313  1.00  0.00    -0.001 C 
HETATM    8  C10 UNL     1      24.032   5.771  16.047  1.00  0.00    -0.005 C 
HETATM    9  C11 UNL     1      25.500   5.716  15.968  1.00  0.00     0.006 C 
HETATM   10  C12 UNL     1      26.160   4.521  16.562  1.00  0.00     0.008 C 
HETATM   11  C13 UNL     1      25.590   4.243  17.916  1.00  0.00     0.025 C 
HETATM   12  C14 UNL     1      26.025   2.964  18.535  1.00  0.00     0.151 C 
HETATM   13  C15 UNL     1      24.888   2.558  19.455  1.00  0.00     0.148 C 
HETATM   14  C16 UNL     1      23.750   3.546  19.156  1.00  0.00     0.044 C 
HETATM   15  C17 UNL     1      24.082   3.997  17.789  1.00  0.00    -0.032 C 
HETATM   16  C18 UNL     1      23.795   2.860  16.828  1.00  0.00     0.016 C 
ENDROOT
BRANCH   1  17
HETATM   17  O1  UNL     1      21.617   8.512  17.375  1.00  0.00    -0.358 OA
BRANCH  17  18
HETATM   18  C2  UNL     1      20.625   9.130  18.099  1.00  0.00     0.125 C 
HETATM   19  C1  UNL     1      20.643   9.260  19.410  1.00  0.00     0.037 C 
ENDBRANCH  17  18
ENDBRANCH   1  17
BRANCH  12  20
HETATM   20  O2  UNL     1      27.187   3.094  19.297  1.00  0.00    -0.393 OA
ATOM     21  H2  UNL     1      27.843   3.643  18.882  1.00  0.00     0.210 HD
ENDBRANCH  12  20
BRANCH  13  22
HETATM   22  O3  UNL     1      25.272   2.637  20.796  1.00  0.00    -0.393 OA
ATOM     23  H3  UNL     1      24.523   2.547  21.373  1.00  0.00     0.210 HD
ENDBRANCH  13  22
TORSDOF 4
ENDMDL
MODEL 4
REMARK VINA RESULT: -6.716656378      3.670      5.611
REMARK  4 active torsions:
REMARK  status: ('A' for Active; 'I' for Inactive)
REMARK    1  A    between atoms: C2_2  and  O1_3 
REMARK    2  A    between atoms: O1_3  and  C3_4 
REMARK    3  A    between atoms: C14_15  and  O2_16 
REMARK    4  A    between atoms: C15_18  and  O3_19 
ROOT
HETATM    1  C3  UNL     1      25.488   3.584  18.501  1.00  0.00     0.132 C 
HETATM    2  C4  UNL     1      26.235   2.305  18.072  1.00  0.00     0.033 C 
HETATM    3  C5  UNL     1      25.365   1.142  18.587  1.00  0.00     0.008 C 
HETATM    4  C6  UNL     1      24.162   1.817  19.005  1.00  0.00    -0.003 C 
HETATM    5  C7  UNL     1      24.764   3.070  19.683  1.00  0.00     0.020 C 
HETATM    6  C8  UNL     1      23.562   3.746  20.161  1.00  0.00     0.013 C 
HETATM    7  C9  UNL     1      22.573   2.619  20.382  1.00  0.00    -0.001 C 
HETATM    8  C10 UNL     1      23.307   1.325  20.090  1.00  0.00    -0.005 C 
HETATM    9  C11 UNL     1      23.976   0.698  21.241  1.00  0.00     0.006 C 
HETATM   10  C12 UNL     1      23.288   0.803  22.557  1.00  0.00     0.008 C 
HETATM   11  C13 UNL     1      22.830   2.209  22.781  1.00  0.00     0.025 C 
HETATM   12  C14 UNL     1      21.960   2.408  23.969  1.00  0.00     0.151 C 
HETATM   13  C15 UNL     1      21.092   3.607  23.632  1.00  0.00     0.148 C 
HETATM   14  C16 UNL     1      21.379   3.916  22.156  1.00  0.00     0.044 C 
HETATM   15  C17 UNL     1      21.870   2.614  21.657  1.00  0.00    -0.032 C 
HETATM   16  C18 UNL     1      20.695   1.660  21.575  1.00  0.00     0.016 C 
ENDROOT
BRANCH   1  17
HETATM   17  O1  UNL     1      24.570   3.876  17.444  1.00  0.00    -0.358 OA
BRANCH  17  18
HETATM   18  C2  UNL     1      24.446   5.124  16.878  1.00  0.00     0.125 C 
HETATM   19  C1  UNL     1      25.210   5.567  15.901  1.00  0.00     0.037 C 
ENDBRANCH  17  18
ENDBRANCH   1  17
BRANCH  12  20
HETATM   20  O2  UNL     1      22.679   2.694  25.131  1.00  0.00    -0.393 OA
ATOM     21  H2  UNL     1      22.744   3.625  25.308  1.00  0.00     0.210 HD
ENDBRANCH  12  20
BRANCH  13  22
HETATM   22  O3  UNL     1      21.412   4.703  24.439  1.00  0.00    -0.393 OA
ATOM     23  H3  UNL     1      21.429   5.507  23.932  1.00  0.00     0.210 HD
ENDBRANCH  13  22
TORSDOF 4
ENDMDL
MODEL 5
REMARK VINA RESULT: -6.704609072      3.909      5.746
REMARK  4 active torsions:
REMARK  status: ('A' for Active; 'I' for Inactive)
REMARK    1  A    between atoms: C2_2  and  O1_3 
REMARK    2  A    between atoms: O1_3  and  C3_4 
REMARK    3  A    between atoms: C14_15  and  O2_16 
REMARK    4  A    between atoms: C15_18  and  O3_19 
ROOT
HETATM    1  C3  UNL     1      24.399   2.272  17.444  1.00  0.00     0.132 C 
HETATM    2  C4  UNL     1      24.495   3.783  17.150  1.00  0.00     0.033 C 
HETATM    3  C5  UNL     1      24.393   4.465  18.528  1.00  0.00     0.008 C 
HETATM    4  C6  UNL     1      24.498   3.349  19.434  1.00  0.00    -0.003 C 
HETATM    5  C7  UNL     1      23.621   2.308  18.701  1.00  0.00     0.020 C 
HETATM    6  C8  UNL     1      23.672   1.182  19.628  1.00  0.00     0.013 C 
HETATM    7  C9  UNL     1      23.886   1.834  20.980  1.00  0.00    -0.001 C 
HETATM    8  C10 UNL     1      23.862   3.333  20.756  1.00  0.00    -0.005 C 
HETATM    9  C11 UNL     1      22.544   3.975  20.875  1.00  0.00     0.006 C 
HETATM   10  C12 UNL     1      21.624   3.432  21.913  1.00  0.00     0.008 C 
HETATM   11  C13 UNL     1      21.595   1.939  21.837  1.00  0.00     0.025 C 
HETATM   12  C14 UNL     1      20.866   1.264  22.942  1.00  0.00     0.151 C 
HETATM   13  C15 UNL     1      21.518  -0.100  23.077  1.00  0.00     0.148 C 
HETATM   14  C16 UNL     1      22.745  -0.058  22.154  1.00  0.00     0.044 C 
HETATM   15  C17 UNL     1      23.010   1.393  22.057  1.00  0.00    -0.032 C 
HETATM   16  C18 UNL     1      23.575   1.865  23.383  1.00  0.00     0.016 C 
ENDROOT
BRANCH   1  17
HETATM   17  O1  UNL     1      25.737   1.835  17.698  1.00  0.00    -0.358 OA
BRANCH  17  18
HETATM   18  C2  UNL     1      26.266   0.681  17.166  1.00  0.00     0.125 C 
HETATM   19  C1  UNL     1      25.541  -0.340  16.757  1.00  0.00     0.037 C 
ENDBRANCH  17  18
ENDBRANCH   1  17
BRANCH  12  20
HETATM   20  O2  UNL     1      19.510   1.082  22.670  1.00  0.00    -0.393 OA
ATOM     21  H2  UNL     1      19.349   0.408  22.019  1.00  0.00     0.210 HD
ENDBRANCH  12  20
BRANCH  13  22
HETATM   22  O3  UNL     1      20.642  -1.118  22.689  1.00  0.00    -0.393 OA
ATOM     23  H3  UNL     1      20.154  -1.451  23.433  1.00  0.00     0.210 HD
ENDBRANCH  13  22
TORSDOF 4
ENDMDL
