MODEL 1
REMARK VINA RESULT: -5.937569675      0.000      0.000
REMARK  4 active torsions:
REMARK  status: ('A' for Active; 'I' for Inactive)
REMARK    1  A    between atoms: C5_5  and  C6_6 
REMARK    2  A    between atoms: C16_17  and  O2_18 
REMARK    3  A    between atoms: C16_17  and  C17_20 
REMARK    4  A    between atoms: C17_20  and  O3_21 
ROOT
HETATM    1  C1  UNL     1      25.294   3.747  19.937  1.00  0.00     0.010 C 
HETATM    2  C2  UNL     1      23.871   3.245  20.101  1.00  0.00    -0.014 C 
HETATM    3  C3  UNL     1      22.944   4.370  19.644  1.00  0.00     0.005 C 
HETATM    4  C4  UNL     1      23.172   5.515  20.619  1.00  0.00     0.012 C 
HETATM    5  C5  UNL     1      22.615   5.119  21.944  1.00  0.00     0.051 C 
HETATM    6  C7  UNL     1      22.404   3.621  22.076  1.00  0.00     0.001 C 
HETATM    7  C8  UNL     1      22.178   3.317  23.524  1.00  0.00     0.007 C 
HETATM    8  C9  UNL     1      22.434   1.937  23.957  1.00  0.00     0.013 C 
HETATM    9  C10 UNL     1      23.335   1.103  23.133  1.00  0.00    -0.007 C 
HETATM   10  C11 UNL     1      24.736   1.115  23.764  1.00  0.00     0.019 C 
HETATM   11  C12 UNL     1      23.447   1.439  21.695  1.00  0.00     0.001 C 
HETATM   12  C13 UNL     1      22.363   0.875  20.819  1.00  0.00     0.006 C 
HETATM   13  C14 UNL     1      21.173   0.355  21.569  1.00  0.00     0.004 C 
HETATM   14  C15 UNL     1      21.538  -0.574  22.696  1.00  0.00     0.041 C 
HETATM   15  C16 UNL     1      22.924  -0.377  23.207  1.00  0.00     0.086 C 
HETATM   16  C18 UNL     1      23.625   2.913  21.538  1.00  0.00    -0.001 C 
ENDROOT
BRANCH  15  17
HETATM   17  O2  UNL     1      23.808  -1.079  22.391  1.00  0.00    -0.387 OA
ATOM     18  H2  UNL     1      23.432  -1.079  21.519  1.00  0.00     0.210 HD
ENDBRANCH  15  17
BRANCH  15  19
HETATM   19  C17 UNL     1      23.054  -0.907  24.622  1.00  0.00     0.202 C 
BRANCH  19  20
HETATM   20  O3  UNL     1      21.767  -1.395  24.948  1.00  0.00    -0.398 OA
ATOM     21  H3  UNL     1      21.866  -1.792  25.806  1.00  0.00     0.209 HD
ENDBRANCH  19  20
ENDBRANCH  15  19
BRANCH   5  22
HETATM   22  C6  UNL     1      21.404   5.893  22.225  1.00  0.00     0.236 C 
HETATM   23  O1  UNL     1      21.390   6.762  23.079  1.00  0.00    -0.306 OA
ENDBRANCH   5  22
TORSDOF 4
ENDMDL
MODEL 2
REMARK VINA RESULT: -5.907844965      1.873      2.396
REMARK  4 active torsions:
REMARK  status: ('A' for Active; 'I' for Inactive)
REMARK    1  A    between atoms: C5_5  and  C6_6 
REMARK    2  A    between atoms: C16_17  and  O2_18 
REMARK    3  A    between atoms: C16_17  and  C17_20 
REMARK    4  A    between atoms: C17_20  and  O3_21 
ROOT
HETATM    1  C1  UNL     1      24.969   1.017  19.252  1.00  0.00     0.010 C 
HETATM    2  C2  UNL     1      23.557   1.526  19.475  1.00  0.00    -0.014 C 
HETATM    3  C3  UNL     1      23.255   2.516  18.352  1.00  0.00     0.005 C 
HETATM    4  C4  UNL     1      24.226   3.671  18.548  1.00  0.00     0.012 C 
HETATM    5  C5  UNL     1      23.831   4.410  19.781  1.00  0.00     0.051 C 
HETATM    6  C7  UNL     1      22.924   3.602  20.693  1.00  0.00     0.001 C 
HETATM    7  C8  UNL     1      22.879   4.292  22.020  1.00  0.00     0.007 C 
HETATM    8  C9  UNL     1      22.484   3.476  23.176  1.00  0.00     0.013 C 
HETATM    9  C10 UNL     1      22.647   2.010  23.082  1.00  0.00    -0.007 C 
HETATM   10  C11 UNL     1      23.956   1.611  23.781  1.00  0.00     0.019 C 
HETATM   11  C12 UNL     1      22.615   1.406  21.730  1.00  0.00     0.001 C 
HETATM   12  C13 UNL     1      21.242   1.141  21.179  1.00  0.00     0.006 C 
HETATM   13  C14 UNL     1      20.136   1.828  21.924  1.00  0.00     0.004 C 
HETATM   14  C15 UNL     1      20.203   1.621  23.414  1.00  0.00     0.041 C 
HETATM   15  C16 UNL     1      21.570   1.289  23.909  1.00  0.00     0.086 C 
HETATM   16  C18 UNL     1      23.478   2.202  20.807  1.00  0.00    -0.001 C 
ENDROOT
BRANCH  15  17
HETATM   17  O2  UNL     1      21.788  -0.077  23.747  1.00  0.00    -0.387 OA
ATOM     18  H2  UNL     1      22.568  -0.291  24.245  1.00  0.00     0.210 HD
ENDBRANCH  15  17
BRANCH  15  19
HETATM   19  C17 UNL     1      21.701   1.624  25.383  1.00  0.00     0.202 C 
BRANCH  19  20
HETATM   20  O3  UNL     1      21.392   0.421  26.060  1.00  0.00    -0.398 OA
ATOM     21  H3  UNL     1      20.520   0.555  26.411  1.00  0.00     0.209 HD
ENDBRANCH  19  20
ENDBRANCH  15  19
BRANCH   5  22
HETATM   22  C6  UNL     1      23.265   5.712  19.421  1.00  0.00     0.236 C 
HETATM   23  O1  UNL     1      23.644   6.317  18.434  1.00  0.00    -0.306 OA
ENDBRANCH   5  22
TORSDOF 4
ENDMDL
MODEL 3
REMARK VINA RESULT: -5.848401710      3.831      5.576
REMARK  4 active torsions:
REMARK  status: ('A' for Active; 'I' for Inactive)
REMARK    1  A    between atoms: C5_5  and  C6_6 
REMARK    2  A    between atoms: C16_17  and  O2_18 
REMARK    3  A    between atoms: C16_17  and  C17_20 
REMARK    4  A    between atoms: C17_20  and  O3_21 
ROOT
HETATM    1  C1  UNL     1      21.990   4.621  21.607  1.00  0.00     0.010 C 
HETATM    2  C2  UNL     1      23.346   4.926  20.996  1.00  0.00    -0.014 C 
HETATM    3  C3  UNL     1      23.512   6.444  21.014  1.00  0.00     0.005 C 
HETATM    4  C4  UNL     1      22.430   6.990  20.095  1.00  0.00     0.012 C 
HETATM    5  C5  UNL     1      22.774   6.616  18.693  1.00  0.00     0.051 C 
HETATM    6  C7  UNL     1      23.784   5.485  18.611  1.00  0.00     0.001 C 
HETATM    7  C8  UNL     1      23.788   4.978  17.203  1.00  0.00     0.007 C 
HETATM    8  C9  UNL     1      24.295   3.616  16.993  1.00  0.00     0.013 C 
HETATM    9  C10 UNL     1      24.286   2.684  18.140  1.00  0.00    -0.007 C 
HETATM   10  C11 UNL     1      23.045   1.784  18.039  1.00  0.00     0.019 C 
HETATM   11  C12 UNL     1      24.349   3.274  19.497  1.00  0.00     0.001 C 
HETATM   12  C13 UNL     1      25.729   3.624  19.980  1.00  0.00     0.006 C 
HETATM   13  C14 UNL     1      26.774   3.638  18.904  1.00  0.00     0.004 C 
HETATM   14  C15 UNL     1      26.765   2.398  18.050  1.00  0.00     0.041 C 
HETATM   15  C16 UNL     1      25.454   1.688  18.041  1.00  0.00     0.086 C 
HETATM   16  C18 UNL     1      23.384   4.410  19.594  1.00  0.00    -0.001 C 
ENDROOT
BRANCH  15  17
HETATM   17  O2  UNL     1      25.379   0.870  19.165  1.00  0.00    -0.387 OA
ATOM     18  H2  UNL     1      25.582   1.416  19.915  1.00  0.00     0.210 HD
ENDBRANCH  15  17
BRANCH  15  19
HETATM   19  C17 UNL     1      25.324   0.819  16.805  1.00  0.00     0.202 C 
BRANCH  19  20
HETATM   20  O3  UNL     1      26.654   0.550  16.406  1.00  0.00    -0.398 OA
ATOM     21  H3  UNL     1      26.830  -0.330  16.717  1.00  0.00     0.209 HD
ENDBRANCH  19  20
ENDBRANCH  15  19
BRANCH   5  22
HETATM   22  C6  UNL     1      23.189   7.807  17.949  1.00  0.00     0.236 C 
HETATM   23  O1  UNL     1      22.484   8.290  17.080  1.00  0.00    -0.306 OA
ENDBRANCH   5  22
TORSDOF 4
ENDMDL
MODEL 4
REMARK VINA RESULT: -5.770915492      1.838      3.370
REMARK  4 active torsions:
REMARK  status: ('A' for Active; 'I' for Inactive)
REMARK    1  A    between atoms: C5_5  and  C6_6 
REMARK    2  A    between atoms: C16_17  and  O2_18 
REMARK    3  A    between atoms: C16_17  and  C17_20 
REMARK    4  A    between atoms: C17_20  and  O3_21 
ROOT
HETATM    1  C1  UNL     1      21.282   6.058  22.001  1.00  0.00     0.010 C 
HETATM    2  C2  UNL     1      22.531   5.200  22.080  1.00  0.00    -0.014 C 
HETATM    3  C3  UNL     1      23.641   5.958  21.354  1.00  0.00     0.005 C 
HETATM    4  C4  UNL     1      23.200   6.045  19.900  1.00  0.00     0.012 C 
HETATM    5  C5  UNL     1      23.266   4.677  19.310  1.00  0.00     0.051 C 
HETATM    6  C7  UNL     1      23.304   3.579  20.358  1.00  0.00     0.001 C 
HETATM    7  C8  UNL     1      23.025   2.280  19.668  1.00  0.00     0.007 C 
HETATM    8  C9  UNL     1      22.536   1.178  20.507  1.00  0.00     0.013 C 
HETATM    9  C10 UNL     1      21.888   1.516  21.793  1.00  0.00    -0.007 C 
HETATM   10  C11 UNL     1      20.364   1.488  21.602  1.00  0.00     0.019 C 
HETATM   11  C12 UNL     1      22.274   2.794  22.435  1.00  0.00     0.001 C 
HETATM   12  C13 UNL     1      23.535   2.745  23.252  1.00  0.00     0.006 C 
HETATM   13  C14 UNL     1      24.374   1.524  23.017  1.00  0.00     0.004 C 
HETATM   14  C15 UNL     1      23.593   0.240  23.096  1.00  0.00     0.041 C 
HETATM   15  C16 UNL     1      22.135   0.411  22.833  1.00  0.00     0.086 C 
HETATM   16  C18 UNL     1      22.272   3.886  21.416  1.00  0.00    -0.001 C 
ENDROOT
BRANCH  15  17
HETATM   17  O2  UNL     1      21.511   0.820  24.009  1.00  0.00    -0.387 OA
ATOM     18  H2  UNL     1      21.743   0.185  24.676  1.00  0.00     0.210 HD
ENDBRANCH  15  17
BRANCH  15  19
HETATM   19  C17 UNL     1      21.514  -0.901  22.391  1.00  0.00     0.202 C 
BRANCH  19  20
HETATM   20  O3  UNL     1      21.062  -1.510  23.584  1.00  0.00    -0.398 OA
ATOM     21  H3  UNL     1      20.126  -1.618  23.465  1.00  0.00     0.209 HD
ENDBRANCH  19  20
ENDBRANCH  15  19
BRANCH   5  22
HETATM   22  C6  UNL     1      24.377   4.599  18.359  1.00  0.00     0.236 C 
HETATM   23  O1  UNL     1      24.414   5.304  17.367  1.00  0.00    -0.306 OA
ENDBRANCH   5  22
TORSDOF 4
ENDMDL
MODEL 5
REMARK VINA RESULT: -5.736701016      2.425      3.558
REMARK  4 active torsions:
REMARK  status: ('A' for Active; 'I' for Inactive)
REMARK    1  A    between atoms: C5_5  and  C6_6 
REMARK    2  A    between atoms: C16_17  and  O2_18 
REMARK    3  A    between atoms: C16_17  and  C17_20 
REMARK    4  A    between atoms: C17_20  and  O3_21 
ROOT
HETATM    1  C1  UNL     1      24.976  -1.053  20.066  1.00  0.00     0.010 C 
HETATM    2  C2  UNL     1      23.680  -0.269  19.969  1.00  0.00    -0.014 C 
HETATM    3  C3  UNL     1      23.584   0.261  18.540  1.00  0.00     0.005 C 
HETATM    4  C4  UNL     1      24.750   1.225  18.377  1.00  0.00     0.012 C 
HETATM    5  C5  UNL     1      24.482   2.429  19.216  1.00  0.00     0.051 C 
HETATM    6  C7  UNL     1      23.428   2.187  20.282  1.00  0.00     0.001 C 
HETATM    7  C8  UNL     1      23.493   3.323  21.255  1.00  0.00     0.007 C 
HETATM    8  C9  UNL     1      22.937   3.080  22.592  1.00  0.00     0.013 C 
HETATM    9  C10 UNL     1      22.826   1.681  23.058  1.00  0.00    -0.007 C 
HETATM   10  C11 UNL     1      24.029   1.362  23.960  1.00  0.00     0.019 C 
HETATM   11  C12 UNL     1      22.701   0.628  22.024  1.00  0.00     0.001 C 
HETATM   12  C13 UNL     1      21.311   0.408  21.498  1.00  0.00     0.006 C 
HETATM   13  C14 UNL     1      20.341   1.500  21.844  1.00  0.00     0.004 C 
HETATM   14  C15 UNL     1      20.348   1.860  23.306  1.00  0.00     0.041 C 
HETATM   15  C16 UNL     1      21.622   1.516  24.000  1.00  0.00     0.086 C 
HETATM   16  C18 UNL     1      23.710   0.861  20.948  1.00  0.00    -0.001 C 
ENDROOT
BRANCH  15  17
HETATM   17  O2  UNL     1      21.584   0.173  24.369  1.00  0.00    -0.387 OA
ATOM     18  H2  UNL     1      21.633  -0.332  23.566  1.00  0.00     0.210 HD
ENDBRANCH  15  17
BRANCH  15  19
HETATM   19  C17 UNL     1      21.793   2.354  25.253  1.00  0.00     0.202 C 
BRANCH  19  20
HETATM   20  O3  UNL     1      20.545   2.994  25.437  1.00  0.00    -0.398 OA
ATOM     21  H3  UNL     1      20.005   2.687  24.719  1.00  0.00     0.209 HD
ENDBRANCH  19  20
ENDBRANCH  15  19
BRANCH   5  22
HETATM   22  C6  UNL     1      24.174   3.574  18.357  1.00  0.00     0.236 C 
HETATM   23  O1  UNL     1      24.514   3.601  17.188  1.00  0.00    -0.306 OA
ENDBRANCH   5  22
TORSDOF 4
ENDMDL
