MODEL 1
REMARK VINA RESULT: -8.298286562      0.000      0.000
REMARK  3 active torsions:
REMARK  status: ('A' for Active; 'I' for Inactive)
REMARK    1  A    between atoms: N1_2  and  C2_4 
REMARK    2  A    between atoms: C2_4  and  C3_8 
REMARK    3  A    between atoms: N3_18  and  C12_19 
ROOT
HETATM    1  C3  UNL     1      24.039   2.934  20.488  1.00  0.00     0.055 C 
HETATM    2  C4  UNL     1      25.064   3.698  19.673  1.00  0.00     0.014 C 
HETATM    3  C5  UNL     1      24.307   4.907  19.092  1.00  0.00     0.039 C 
HETATM    4  C6  UNL     1      23.428   5.449  20.140  1.00  0.00     0.252 C 
HETATM    5  C7  UNL     1      22.214   4.548  20.262  1.00  0.00     0.156 C 
HETATM    6  C8  UNL     1      22.640   3.128  19.947  1.00  0.00     0.046 C 
HETATM    7  O1  UNL     1      21.778   4.616  21.569  1.00  0.00    -0.377 OA
HETATM    8  C9  UNL     1      22.142   5.771  22.217  1.00  0.00     0.146 C 
HETATM    9  C10 UNL     1      20.998   6.068  23.206  1.00  0.00     0.041 C 
HETATM   10  C11 UNL     1      22.224   6.991  21.337  1.00  0.00     0.305 C 
HETATM   11  N3  UNL     1      23.035   6.784  20.131  1.00  0.00     0.102 N 
ENDROOT
BRANCH   1  12
HETATM   12  C2  UNL     1      24.386   1.488  20.588  1.00  0.00     0.074 C 
HETATM   13  N2  UNL     1      24.743   0.878  19.504  1.00  0.00    -0.389 N 
ATOM     14  H22 UNL     1      24.980  -0.112  19.572  1.00  0.00     0.157 HD
ATOM     15  H21 UNL     1      24.782   1.377  18.615  1.00  0.00     0.157 HD
BRANCH  12  16
HETATM   16  N1  UNL     1      24.332   0.793  21.824  1.00  0.00    -0.384 N 
HETATM   17  C1  UNL     1      24.049   1.536  23.023  1.00  0.00     0.147 C 
ATOM     18  H1  UNL     1      24.490  -0.214  21.861  1.00  0.00     0.160 HD
ENDBRANCH  12  16
ENDBRANCH   1  12
BRANCH  11  19
HETATM   19  C12 UNL     1      22.363   7.379  19.061  1.00  0.00     0.223 C 
HETATM   20  C13 UNL     1      23.146   8.025  17.974  1.00  0.00     0.036 C 
HETATM   21  C14 UNL     1      22.139   8.528  16.926  1.00  0.00     0.002 C 
HETATM   22  C15 UNL     1      21.273   9.610  17.463  1.00  0.00     0.000 C 
HETATM   23  C16 UNL     1      20.527   9.041  18.661  1.00  0.00     0.002 C 
HETATM   24  C17 UNL     1      21.541   8.549  19.633  1.00  0.00     0.036 C 
ENDBRANCH  11  19
TORSDOF 3
ENDMDL
MODEL 2
REMARK VINA RESULT: -8.287816965      0.566      1.251
REMARK  3 active torsions:
REMARK  status: ('A' for Active; 'I' for Inactive)
REMARK    1  A    between atoms: N1_2  and  C2_4 
REMARK    2  A    between atoms: C2_4  and  C3_8 
REMARK    3  A    between atoms: N3_18  and  C12_19 
ROOT
HETATM    1  C3  UNL     1      24.025   3.023  20.428  1.00  0.00     0.055 C 
HETATM    2  C4  UNL     1      25.024   3.789  19.584  1.00  0.00     0.014 C 
HETATM    3  C5  UNL     1      24.249   4.997  19.024  1.00  0.00     0.039 C 
HETATM    4  C6  UNL     1      23.400   5.538  20.097  1.00  0.00     0.252 C 
HETATM    5  C7  UNL     1      22.192   4.634  20.254  1.00  0.00     0.156 C 
HETATM    6  C8  UNL     1      22.611   3.215  19.927  1.00  0.00     0.046 C 
HETATM    7  O1  UNL     1      21.793   4.701  21.573  1.00  0.00    -0.377 OA
HETATM    8  C9  UNL     1      22.174   5.857  22.210  1.00  0.00     0.146 C 
HETATM    9  C10 UNL     1      21.058   6.152  23.232  1.00  0.00     0.041 C 
HETATM   10  C11 UNL     1      22.227   7.077  21.328  1.00  0.00     0.305 C 
HETATM   11  N3  UNL     1      23.004   6.871  20.099  1.00  0.00     0.102 N 
ENDROOT
BRANCH   1  12
HETATM   12  C2  UNL     1      24.377   1.578  20.517  1.00  0.00     0.074 C 
HETATM   13  N2  UNL     1      24.198   0.984  21.653  1.00  0.00    -0.389 N 
ATOM     14  H22 UNL     1      24.439  -0.005  21.714  1.00  0.00     0.157 HD
ATOM     15  H21 UNL     1      23.829   1.495  22.454  1.00  0.00     0.157 HD
BRANCH  12  16
HETATM   16  N1  UNL     1      24.890   0.866  19.402  1.00  0.00    -0.384 N 
HETATM   17  C1  UNL     1      23.991   0.055  18.626  1.00  0.00     0.147 C 
ATOM     18  H1  UNL     1      25.878   0.929  19.156  1.00  0.00     0.160 HD
ENDBRANCH  12  16
ENDBRANCH   1  12
BRANCH  11  19
HETATM   19  C12 UNL     1      22.300   7.465  19.049  1.00  0.00     0.223 C 
HETATM   20  C13 UNL     1      23.050   8.116  17.941  1.00  0.00     0.036 C 
HETATM   21  C14 UNL     1      22.013   8.616  16.923  1.00  0.00     0.002 C 
HETATM   22  C15 UNL     1      21.157   9.694  17.485  1.00  0.00     0.000 C 
HETATM   23  C16 UNL     1      20.447   9.120  18.703  1.00  0.00     0.002 C 
HETATM   24  C17 UNL     1      21.490   8.630  19.645  1.00  0.00     0.036 C 
ENDBRANCH  11  19
TORSDOF 3
ENDMDL
MODEL 3
REMARK VINA RESULT: -8.049030632      1.820      2.470
REMARK  3 active torsions:
REMARK  status: ('A' for Active; 'I' for Inactive)
REMARK    1  A    between atoms: N1_2  and  C2_4 
REMARK    2  A    between atoms: C2_4  and  C3_8 
REMARK    3  A    between atoms: N3_18  and  C12_19 
ROOT
HETATM    1  C3  UNL     1      24.606   2.327  18.661  1.00  0.00     0.055 C 
HETATM    2  C4  UNL     1      25.383   3.481  18.059  1.00  0.00     0.014 C 
HETATM    3  C5  UNL     1      24.461   4.708  18.188  1.00  0.00     0.039 C 
HETATM    4  C6  UNL     1      23.821   4.668  19.512  1.00  0.00     0.252 C 
HETATM    5  C7  UNL     1      22.708   3.639  19.476  1.00  0.00     0.156 C 
HETATM    6  C8  UNL     1      23.113   2.530  18.525  1.00  0.00     0.046 C 
HETATM    7  O1  UNL     1      22.578   3.125  20.750  1.00  0.00    -0.377 OA
HETATM    8  C9  UNL     1      23.029   3.966  21.737  1.00  0.00     0.146 C 
HETATM    9  C10 UNL     1      22.128   3.691  22.957  1.00  0.00     0.041 C 
HETATM   10  C11 UNL     1      22.854   5.433  21.445  1.00  0.00     0.305 C 
HETATM   11  N3  UNL     1      23.378   5.832  20.132  1.00  0.00     0.102 N 
ENDROOT
BRANCH   1  12
HETATM   12  C2  UNL     1      25.030   1.021  18.083  1.00  0.00     0.074 C 
HETATM   13  N2  UNL     1      25.608   0.173  18.871  1.00  0.00    -0.389 N 
ATOM     14  H22 UNL     1      25.898  -0.722  18.476  1.00  0.00     0.157 HD
ATOM     15  H21 UNL     1      25.765   0.400  19.853  1.00  0.00     0.157 HD
BRANCH  12  16
HETATM   16  N1  UNL     1      24.811   0.704  16.717  1.00  0.00    -0.384 N 
HETATM   17  C1  UNL     1      25.198  -0.595  16.237  1.00  0.00     0.147 C 
ATOM     18  H1  UNL     1      24.386   1.386  16.088  1.00  0.00     0.160 HD
ENDBRANCH  12  16
ENDBRANCH   1  12
BRANCH  11  19
HETATM   19  C12 UNL     1      22.454   6.706  19.555  1.00  0.00     0.223 C 
HETATM   20  C13 UNL     1      22.852   7.512  18.370  1.00  0.00     0.036 C 
HETATM   21  C14 UNL     1      21.617   8.320  17.935  1.00  0.00     0.002 C 
HETATM   22  C15 UNL     1      21.220   9.321  18.959  1.00  0.00     0.000 C 
HETATM   23  C16 UNL     1      20.911   8.561  20.241  1.00  0.00     0.002 C 
HETATM   24  C17 UNL     1      22.125   7.781  20.607  1.00  0.00     0.036 C 
ENDBRANCH  11  19
TORSDOF 3
ENDMDL
MODEL 4
REMARK VINA RESULT: -7.949670922      2.106      2.815
REMARK  3 active torsions:
REMARK  status: ('A' for Active; 'I' for Inactive)
REMARK    1  A    between atoms: N1_2  and  C2_4 
REMARK    2  A    between atoms: C2_4  and  C3_8 
REMARK    3  A    between atoms: N3_18  and  C12_19 
ROOT
HETATM    1  C3  UNL     1      25.240   2.017  18.300  1.00  0.00     0.055 C 
HETATM    2  C4  UNL     1      26.175   3.041  17.688  1.00  0.00     0.014 C 
HETATM    3  C5  UNL     1      25.320   4.306  17.481  1.00  0.00     0.039 C 
HETATM    4  C6  UNL     1      24.467   4.485  18.666  1.00  0.00     0.252 C 
HETATM    5  C7  UNL     1      23.315   3.501  18.580  1.00  0.00     0.156 C 
HETATM    6  C8  UNL     1      23.807   2.251  17.879  1.00  0.00     0.046 C 
HETATM    7  O1  UNL     1      22.943   3.186  19.871  1.00  0.00    -0.377 OA
HETATM    8  C9  UNL     1      23.273   4.148  20.794  1.00  0.00     0.146 C 
HETATM    9  C10 UNL     1      22.166   4.089  21.865  1.00  0.00     0.041 C 
HETATM   10  C11 UNL     1      23.237   5.561  20.275  1.00  0.00     0.305 C 
HETATM   11  N3  UNL     1      23.996   5.742  19.031  1.00  0.00     0.102 N 
ENDROOT
BRANCH   1  12
HETATM   12  C2  UNL     1      25.675   0.625  17.993  1.00  0.00     0.074 C 
HETATM   13  N2  UNL     1      25.584  -0.256  18.936  1.00  0.00    -0.389 N 
ATOM     14  H22 UNL     1      25.881  -1.209  18.726  1.00  0.00     0.157 HD
ATOM     15  H21 UNL     1      25.225   0.002  19.856  1.00  0.00     0.157 HD
BRANCH  12  16
HETATM   16  N1  UNL     1      26.174   0.266  16.714  1.00  0.00    -0.384 N 
HETATM   17  C1  UNL     1      25.481  -0.745  15.961  1.00  0.00     0.147 C 
ATOM     18  H1  UNL     1      27.007   0.716  16.336  1.00  0.00     0.160 HD
ENDBRANCH  12  16
ENDBRANCH   1  12
BRANCH  11  19
HETATM   19  C12 UNL     1      23.236   6.553  18.185  1.00  0.00     0.223 C 
HETATM   20  C13 UNL     1      23.925   7.492  17.259  1.00  0.00     0.036 C 
HETATM   21  C14 UNL     1      22.836   8.192  16.429  1.00  0.00     0.002 C 
HETATM   22  C15 UNL     1      21.967   9.057  17.269  1.00  0.00     0.000 C 
HETATM   23  C16 UNL     1      21.320   8.166  18.319  1.00  0.00     0.002 C 
HETATM   24  C17 UNL     1      22.411   7.496  19.079  1.00  0.00     0.036 C 
ENDBRANCH  11  19
TORSDOF 3
ENDMDL
MODEL 5
REMARK VINA RESULT: -7.484287824      2.312      2.929
REMARK  3 active torsions:
REMARK  status: ('A' for Active; 'I' for Inactive)
REMARK    1  A    between atoms: N1_2  and  C2_4 
REMARK    2  A    between atoms: C2_4  and  C3_8 
REMARK    3  A    between atoms: N3_18  and  C12_19 
ROOT
HETATM    1  C3  UNL     1      25.488   3.715  17.444  1.00  0.00     0.055 C 
HETATM    2  C4  UNL     1      26.177   4.818  16.665  1.00  0.00     0.014 C 
HETATM    3  C5  UNL     1      25.117   5.924  16.496  1.00  0.00     0.039 C 
HETATM    4  C6  UNL     1      24.388   6.062  17.766  1.00  0.00     0.252 C 
HETATM    5  C7  UNL     1      23.401   4.916  17.878  1.00  0.00     0.156 C 
HETATM    6  C8  UNL     1      23.997   3.704  17.192  1.00  0.00     0.046 C 
HETATM    7  O1  UNL     1      23.233   4.646  19.221  1.00  0.00    -0.377 OA
HETATM    8  C9  UNL     1      23.512   5.712  20.041  1.00  0.00     0.146 C 
HETATM    9  C10 UNL     1      22.557   5.569  21.243  1.00  0.00     0.041 C 
HETATM   10  C11 UNL     1      23.198   7.062  19.453  1.00  0.00     0.305 C 
HETATM   11  N3  UNL     1      23.773   7.260  18.116  1.00  0.00     0.102 N 
ENDROOT
BRANCH   1  12
HETATM   12  C2  UNL     1      26.096   2.385  17.164  1.00  0.00     0.074 C 
HETATM   13  N2  UNL     1      27.366   2.342  16.920  1.00  0.00    -0.389 N 
ATOM     14  H22 UNL     1      27.782   1.430  16.728  1.00  0.00     0.157 HD
ATOM     15  H21 UNL     1      27.924   3.195  16.921  1.00  0.00     0.157 HD
BRANCH  12  16
HETATM   16  N1  UNL     1      25.319   1.197  17.163  1.00  0.00    -0.384 N 
HETATM   17  C1  UNL     1      25.465   0.274  18.257  1.00  0.00     0.147 C 
ATOM     18  H1  UNL     1      24.670   1.001  16.401  1.00  0.00     0.160 HD
ENDBRANCH  12  16
ENDBRANCH   1  12
BRANCH  11  19
HETATM   19  C12 UNL     1      22.804   7.885  17.327  1.00  0.00     0.223 C 
HETATM   20  C13 UNL     1      23.224   8.891  16.314  1.00  0.00     0.036 C 
HETATM   21  C14 UNL     1      21.955   9.349  15.576  1.00  0.00     0.002 C 
HETATM   22  C15 UNL     1      21.024  10.081  16.474  1.00  0.00     0.000 C 
HETATM   23  C16 UNL     1      20.648   9.136  17.606  1.00  0.00     0.002 C 
HETATM   24  C17 UNL     1      21.907   8.705  18.272  1.00  0.00     0.036 C 
ENDBRANCH  11  19
TORSDOF 3
ENDMDL
