MODEL 1
REMARK VINA RESULT: -5.976236399      0.000      0.000
REMARK  4 active torsions:
REMARK  status: ('A' for Active; 'I' for Inactive)
REMARK    1  A    between atoms: C9_9  and  O1_10 
REMARK    2  A    between atoms: C11_12  and  C12_13 
REMARK    3  A    between atoms: C12_13  and  O2_14 
REMARK    4  A    between atoms: C16_19  and  O3_20 
ROOT
HETATM    1  C1  UNL     1      23.175   0.737  19.249  1.00  0.00     0.019 C 
HETATM    2  C2  UNL     1      23.426   0.662  20.545  1.00  0.00    -0.063 C 
HETATM    3  C3  UNL     1      22.889  -0.601  21.204  1.00  0.00     0.038 C 
HETATM    4  C4  UNL     1      21.672  -0.122  21.918  1.00  0.00     0.012 C 
HETATM    5  C5  UNL     1      21.886   0.750  23.089  1.00  0.00     0.025 C 
HETATM    6  C6  UNL     1      23.215   1.134  23.539  1.00  0.00    -0.003 C 
HETATM    7  C7  UNL     1      24.352   1.350  22.657  1.00  0.00     0.042 C 
HETATM    8  C8  UNL     1      24.170   1.729  21.252  1.00  0.00    -0.045 C 
HETATM    9  C9  UNL     1      23.812   3.123  20.911  1.00  0.00     0.157 C 
HETATM   10  C11 UNL     1      23.141   4.022  21.834  1.00  0.00     0.051 C 
HETATM   11  C13 UNL     1      21.855   3.780  22.474  1.00  0.00    -0.027 C 
HETATM   12  C14 UNL     1      21.122   5.124  22.784  1.00  0.00     0.016 C 
HETATM   13  C15 UNL     1      20.853   2.826  21.910  1.00  0.00     0.048 C 
HETATM   14  C16 UNL     1      20.962   1.966  23.095  1.00  0.00     0.067 C 
HETATM   15  C17 UNL     1      21.797   3.027  23.758  1.00  0.00     0.029 C 
HETATM   16  C18 UNL     1      23.012   2.453  24.311  1.00  0.00     0.014 C 
ENDROOT
BRANCH  10  17
HETATM   17  C12 UNL     1      22.949   5.332  21.028  1.00  0.00     0.172 C 
BRANCH  17  18
HETATM   18  O2  UNL     1      22.637   4.962  19.744  1.00  0.00    -0.400 OA
ATOM     19  H2  UNL     1      21.702   4.792  19.729  1.00  0.00     0.209 HD
ENDBRANCH  17  18
ENDBRANCH  10  17
BRANCH   9  20
HETATM   20  O1  UNL     1      25.063   3.757  20.593  1.00  0.00    -0.386 OA
HETATM   21  C10 UNL     1      25.650   3.364  19.443  1.00  0.00     0.202 C 
ENDBRANCH   9  20
BRANCH  14  22
HETATM   22  O3  UNL     1      19.704   1.727  23.704  1.00  0.00    -0.389 OA
ATOM     23  H3  UNL     1      19.176   1.078  23.254  1.00  0.00     0.210 HD
ENDBRANCH  14  22
TORSDOF 4
ENDMDL
MODEL 2
REMARK VINA RESULT: -5.723023958      4.821      8.346
REMARK  4 active torsions:
REMARK  status: ('A' for Active; 'I' for Inactive)
REMARK    1  A    between atoms: C9_9  and  O1_10 
REMARK    2  A    between atoms: C11_12  and  C12_13 
REMARK    3  A    between atoms: C12_13  and  O2_14 
REMARK    4  A    between atoms: C16_19  and  O3_20 
ROOT
HETATM    1  C1  UNL     1      20.362   8.501  17.492  1.00  0.00     0.019 C 
HETATM    2  C2  UNL     1      21.593   8.961  17.346  1.00  0.00    -0.063 C 
HETATM    3  C3  UNL     1      21.775   9.865  16.135  1.00  0.00     0.038 C 
HETATM    4  C4  UNL     1      22.463   8.983  15.151  1.00  0.00     0.012 C 
HETATM    5  C5  UNL     1      23.860   8.613  15.451  1.00  0.00     0.025 C 
HETATM    6  C6  UNL     1      24.548   9.078  16.644  1.00  0.00    -0.003 C 
HETATM    7  C7  UNL     1      23.903   9.308  17.928  1.00  0.00     0.042 C 
HETATM    8  C8  UNL     1      22.669   8.609  18.302  1.00  0.00    -0.045 C 
HETATM    9  C9  UNL     1      22.730   7.197  18.737  1.00  0.00     0.157 C 
HETATM   10  C11 UNL     1      23.804   6.293  18.361  1.00  0.00     0.051 C 
HETATM   11  C13 UNL     1      24.196   5.957  16.999  1.00  0.00    -0.027 C 
HETATM   12  C14 UNL     1      24.818   4.527  16.932  1.00  0.00     0.016 C 
HETATM   13  C15 UNL     1      23.262   6.111  15.843  1.00  0.00     0.048 C 
HETATM   14  C16 UNL     1      24.133   7.125  15.236  1.00  0.00     0.067 C 
HETATM   15  C17 UNL     1      25.175   6.817  16.276  1.00  0.00     0.029 C 
HETATM   16  C18 UNL     1      25.657   8.038  16.899  1.00  0.00     0.014 C 
ENDROOT
BRANCH  10  17
HETATM   17  C12 UNL     1      23.419   4.941  19.014  1.00  0.00     0.172 C 
BRANCH  17  18
HETATM   18  O2  UNL     1      24.071   4.886  20.220  1.00  0.00    -0.400 OA
ATOM     19  H2  UNL     1      23.443   4.566  20.856  1.00  0.00     0.209 HD
ENDBRANCH  17  18
ENDBRANCH  10  17
BRANCH   9  20
HETATM   20  O1  UNL     1      22.760   7.256  20.174  1.00  0.00    -0.386 OA
HETATM   21  C10 UNL     1      21.817   8.030  20.753  1.00  0.00     0.202 C 
ENDBRANCH   9  20
BRANCH  14  22
HETATM   22  O3  UNL     1      24.500   6.796  13.907  1.00  0.00    -0.389 OA
ATOM     23  H3  UNL     1      23.891   6.209  13.474  1.00  0.00     0.210 HD
ENDBRANCH  14  22
TORSDOF 4
ENDMDL
MODEL 3
REMARK VINA RESULT: -5.678412628      2.047      4.172
REMARK  4 active torsions:
REMARK  status: ('A' for Active; 'I' for Inactive)
REMARK    1  A    between atoms: C9_9  and  O1_10 
REMARK    2  A    between atoms: C11_12  and  C12_13 
REMARK    3  A    between atoms: C12_13  and  O2_14 
REMARK    4  A    between atoms: C16_19  and  O3_20 
ROOT
HETATM    1  C1  UNL     1      25.792   3.119  19.254  1.00  0.00     0.019 C 
HETATM    2  C2  UNL     1      24.500   3.265  19.494  1.00  0.00    -0.063 C 
HETATM    3  C3  UNL     1      24.128   4.630  20.059  1.00  0.00     0.038 C 
HETATM    4  C4  UNL     1      23.914   4.353  21.507  1.00  0.00     0.012 C 
HETATM    5  C5  UNL     1      22.725   3.555  21.864  1.00  0.00     0.025 C 
HETATM    6  C6  UNL     1      21.795   3.056  20.864  1.00  0.00    -0.003 C 
HETATM    7  C7  UNL     1      22.176   2.641  19.522  1.00  0.00     0.042 C 
HETATM    8  C8  UNL     1      23.533   2.177  19.220  1.00  0.00    -0.045 C 
HETATM    9  C9  UNL     1      23.945   0.812  19.613  1.00  0.00     0.157 C 
HETATM   10  C11 UNL     1      23.319   0.072  20.696  1.00  0.00     0.051 C 
HETATM   11  C13 UNL     1      23.220   0.511  22.081  1.00  0.00    -0.027 C 
HETATM   12  C14 UNL     1      23.171  -0.710  23.053  1.00  0.00     0.016 C 
HETATM   13  C15 UNL     1      24.147   1.529  22.661  1.00  0.00     0.048 C 
HETATM   14  C16 UNL     1      23.035   2.460  22.883  1.00  0.00     0.067 C 
HETATM   15  C17 UNL     1      22.075   1.364  22.507  1.00  0.00     0.029 C 
HETATM   16  C18 UNL     1      21.120   1.834  21.518  1.00  0.00     0.014 C 
ENDROOT
BRANCH  10  17
HETATM   17  C12 UNL     1      24.101  -1.266  20.752  1.00  0.00     0.172 C 
BRANCH  17  18
HETATM   18  O2  UNL     1      25.410  -0.969  20.469  1.00  0.00    -0.400 OA
ATOM     19  H2  UNL     1      25.817  -0.718  21.290  1.00  0.00     0.209 HD
ENDBRANCH  17  18
ENDBRANCH  10  17
BRANCH   9  20
HETATM   20  O1  UNL     1      23.748   0.013  18.433  1.00  0.00    -0.386 OA
HETATM   21  C10 UNL     1      24.582   0.266  17.402  1.00  0.00     0.202 C 
ENDBRANCH   9  20
BRANCH  14  22
HETATM   22  O3  UNL     1      22.953   2.891  24.231  1.00  0.00    -0.389 OA
ATOM     23  H3  UNL     1      22.198   3.439  24.414  1.00  0.00     0.210 HD
ENDBRANCH  14  22
TORSDOF 4
ENDMDL
MODEL 4
REMARK VINA RESULT: -5.414380822      2.212      4.095
REMARK  4 active torsions:
REMARK  status: ('A' for Active; 'I' for Inactive)
REMARK    1  A    between atoms: C9_9  and  O1_10 
REMARK    2  A    between atoms: C11_12  and  C12_13 
REMARK    3  A    between atoms: C12_13  and  O2_14 
REMARK    4  A    between atoms: C16_19  and  O3_20 
ROOT
HETATM    1  C1  UNL     1      24.453   2.026  20.763  1.00  0.00     0.019 C 
HETATM    2  C2  UNL     1      23.135   2.051  20.861  1.00  0.00    -0.063 C 
HETATM    3  C3  UNL     1      22.511   3.375  20.442  1.00  0.00     0.038 C 
HETATM    4  C4  UNL     1      22.175   4.020  21.742  1.00  0.00     0.012 C 
HETATM    5  C5  UNL     1      21.079   3.414  22.524  1.00  0.00     0.025 C 
HETATM    6  C6  UNL     1      20.350   2.244  22.061  1.00  0.00    -0.003 C 
HETATM    7  C7  UNL     1      20.936   1.166  21.278  1.00  0.00     0.042 C 
HETATM    8  C8  UNL     1      22.371   0.873  21.333  1.00  0.00    -0.045 C 
HETATM    9  C9  UNL     1      22.927   0.148  22.496  1.00  0.00     0.157 C 
HETATM   10  C11 UNL     1      22.294   0.138  23.804  1.00  0.00     0.051 C 
HETATM   11  C13 UNL     1      21.977   1.312  24.606  1.00  0.00    -0.027 C 
HETATM   12  C14 UNL     1      21.993   0.971  26.130  1.00  0.00     0.016 C 
HETATM   13  C15 UNL     1      22.677   2.617  24.415  1.00  0.00     0.048 C 
HETATM   14  C16 UNL     1      21.425   3.264  24.004  1.00  0.00     0.067 C 
HETATM   15  C17 UNL     1      20.681   2.019  24.402  1.00  0.00     0.029 C 
HETATM   16  C18 UNL     1      19.787   1.592  23.339  1.00  0.00     0.014 C 
ENDROOT
BRANCH  10  17
HETATM   17  C12 UNL     1      23.247  -0.707  24.688  1.00  0.00     0.172 C 
BRANCH  17  18
HETATM   18  O2  UNL     1      24.526  -0.382  24.311  1.00  0.00    -0.400 OA
ATOM     19  H2  UNL     1      24.802  -1.042  23.686  1.00  0.00     0.209 HD
ENDBRANCH  17  18
ENDBRANCH  10  17
BRANCH   9  20
HETATM   20  O1  UNL     1      22.981  -1.228  22.081  1.00  0.00    -0.386 OA
HETATM   21  C10 UNL     1      23.844  -1.510  21.083  1.00  0.00     0.202 C 
ENDBRANCH   9  20
BRANCH  14  22
HETATM   22  O3  UNL     1      21.130   4.412  24.782  1.00  0.00    -0.389 OA
ATOM     23  H3  UNL     1      21.213   5.230  24.306  1.00  0.00     0.210 HD
ENDBRANCH  14  22
TORSDOF 4
ENDMDL
MODEL 5
REMARK VINA RESULT: -5.211899162      1.713      4.090
REMARK  4 active torsions:
REMARK  status: ('A' for Active; 'I' for Inactive)
REMARK    1  A    between atoms: C9_9  and  O1_10 
REMARK    2  A    between atoms: C11_12  and  C12_13 
REMARK    3  A    between atoms: C12_13  and  O2_14 
REMARK    4  A    between atoms: C16_19  and  O3_20 
ROOT
HETATM    1  C1  UNL     1      22.314   2.637  26.194  1.00  0.00     0.019 C 
HETATM    2  C2  UNL     1      21.710   1.910  25.269  1.00  0.00    -0.063 C 
HETATM    3  C3  UNL     1      21.809   0.408  25.504  1.00  0.00     0.038 C 
HETATM    4  C4  UNL     1      22.851  -0.022  24.530  1.00  0.00     0.012 C 
HETATM    5  C5  UNL     1      22.487   0.027  23.100  1.00  0.00     0.025 C 
HETATM    6  C6  UNL     1      21.179   0.470  22.646  1.00  0.00    -0.003 C 
HETATM    7  C7  UNL     1      20.384   1.497  23.304  1.00  0.00     0.042 C 
HETATM    8  C8  UNL     1      21.007   2.538  24.127  1.00  0.00    -0.045 C 
HETATM    9  C9  UNL     1      21.691   3.675  23.475  1.00  0.00     0.157 C 
HETATM   10  C11 UNL     1      22.237   3.611  22.129  1.00  0.00     0.051 C 
HETATM   11  C13 UNL     1      23.234   2.659  21.660  1.00  0.00    -0.027 C 
HETATM   12  C14 UNL     1      24.085   3.265  20.499  1.00  0.00     0.016 C 
HETATM   13  C15 UNL     1      24.161   1.953  22.594  1.00  0.00     0.048 C 
HETATM   14  C16 UNL     1      23.580   0.653  22.236  1.00  0.00     0.067 C 
HETATM   15  C17 UNL     1      22.802   1.330  21.141  1.00  0.00     0.029 C 
HETATM   16  C18 UNL     1      21.399   0.956  21.200  1.00  0.00     0.014 C 
ENDROOT
BRANCH  10  17
HETATM   17  C12 UNL     1      22.875   5.006  21.904  1.00  0.00     0.172 C 
BRANCH  17  18
HETATM   18  O2  UNL     1      21.931   5.773  21.268  1.00  0.00    -0.400 OA
ATOM     19  H2  UNL     1      21.965   5.539  20.348  1.00  0.00     0.209 HD
ENDBRANCH  17  18
ENDBRANCH  10  17
BRANCH   9  20
HETATM   20  O1  UNL     1      20.710   4.727  23.445  1.00  0.00    -0.386 OA
HETATM   21  C10 UNL     1      20.477   5.350  24.620  1.00  0.00     0.202 C 
ENDBRANCH   9  20
BRANCH  14  22
HETATM   22  O3  UNL     1      24.559  -0.271  21.791  1.00  0.00    -0.389 OA
ATOM     23  H3  UNL     1      25.046  -0.684  22.494  1.00  0.00     0.210 HD
ENDBRANCH  14  22
TORSDOF 4
ENDMDL
