MODEL 1
REMARK VINA RESULT: -6.748653177      0.000      0.000
REMARK  20 active torsions:
REMARK  status: ('A' for Active; 'I' for Inactive)
REMARK    1  A    between atoms: C2_2  and  C3_3 
REMARK    2  A    between atoms: C3_3  and  N1_4 
REMARK    3  A    between atoms: N1_4  and  C4_5 
REMARK    4  A    between atoms: C4_5  and  O1_6 
REMARK    5  A    between atoms: C4_5  and  C5_8 
REMARK    6  A    between atoms: C5_8  and  C6_10 
REMARK    7  A    between atoms: C9_14  and  C10_15 
REMARK    8  A    between atoms: C10_15  and  O4_16 
REMARK    9  A    between atoms: C10_15  and  C11_18 
REMARK   10  A    between atoms: C11_18  and  C12_19 
REMARK   11  A    between atoms: C11_18  and  N2_23 
REMARK   12  A    between atoms: C12_19  and  C13_20 
REMARK       I    between atoms: N2_23  and  C16_25 
REMARK   13  A    between atoms: C16_25  and  C17_27 
REMARK   14  A    between atoms: C17_27  and  N3_28 
REMARK   15  A    between atoms: C17_27  and  C25_42 
REMARK   16  A    between atoms: N3_28  and  C18_30 
REMARK   17  A    between atoms: C18_30  and  O6_31 
REMARK   18  A    between atoms: C18_30  and  C19_33 
REMARK   19  A    between atoms: C19_33  and  N4_34 
REMARK   20  A    between atoms: C19_33  and  C22_39 
REMARK       I    between atoms: N4_34  and  C20_36 
ROOT
HETATM    1  N2  UNL     1      33.291  27.113  20.287  1.00  0.00    -0.323 N 
ATOM      2  H2  UNL     1      33.253  27.636  19.412  1.00  0.00     0.169 HD
HETATM    3  C16 UNL     1      33.073  25.763  20.099  1.00  0.00     0.268 C 
HETATM    4  O5  UNL     1      33.151  24.949  21.071  1.00  0.00    -0.266 OA
ENDROOT
BRANCH   1   5
HETATM    5  C11 UNL     1      33.547  27.929  21.375  1.00  0.00     0.044 C 
BRANCH   5   6
HETATM    6  C10 UNL     1      34.794  28.270  22.032  1.00  0.00     0.102 C 
BRANCH   6   7
HETATM    7  C9  UNL     1      35.933  27.268  22.036  1.00  0.00     0.250 C 
HETATM    8  C8  UNL     1      37.183  28.165  22.164  1.00  0.00     0.165 C 
HETATM    9  C7  UNL     1      37.487  28.581  20.774  1.00  0.00     0.122 C 
HETATM   10  O3  UNL     1      37.754  28.434  23.167  1.00  0.00    -0.295 OA
HETATM   11  C6  UNL     1      36.784  27.502  19.944  1.00  0.00     0.209 C 
HETATM   12  O8  UNL     1      36.183  26.693  20.823  1.00  0.00    -0.358 OA
BRANCH  11  13
HETATM   13  C5  UNL     1      37.824  26.860  19.109  1.00  0.00     0.243 C 
HETATM   14  O2  UNL     1      38.123  25.688  19.335  1.00  0.00    -0.284 OA
BRANCH  13  15
HETATM   15  C4  UNL     1      38.477  27.625  18.018  1.00  0.00     0.263 C 
BRANCH  15  16
HETATM   16  N1  UNL     1      37.911  28.301  17.007  1.00  0.00    -0.390 NA
BRANCH  16  17
HETATM   17  C3  UNL     1      37.325  29.003  15.958  1.00  0.00     0.184 C 
BRANCH  17  18
HETATM   18  C2  UNL     1      36.299  30.013  16.297  1.00  0.00     0.021 C 
HETATM   19  C1  UNL     1      35.342  29.999  17.068  1.00  0.00     0.013 C 
ENDBRANCH  17  18
ENDBRANCH  16  17
ENDBRANCH  15  16
BRANCH  15  20
HETATM   20  O1  UNL     1      39.783  27.570  18.148  1.00  0.00    -0.333 OA
ATOM     21  H1  UNL     1      40.300  26.949  17.647  1.00  0.00     0.220 HD
ENDBRANCH  15  20
ENDBRANCH  13  15
ENDBRANCH  11  13
ENDBRANCH   6   7
BRANCH   6  22
HETATM   22  O4  UNL     1      34.741  28.997  23.197  1.00  0.00    -0.360 OA
ATOM     23  H4  UNL     1      34.883  28.453  23.964  1.00  0.00     0.217 HD
ENDBRANCH   6  22
ENDBRANCH   5   6
BRANCH   5  24
HETATM   24  C12 UNL     1      32.406  28.948  21.564  1.00  0.00     0.063 C 
BRANCH  24  25
HETATM   25  C13 UNL     1      31.865  29.482  20.283  1.00  0.00    -0.017 C 
HETATM   26  C14 UNL     1      30.472  30.067  20.566  1.00  0.00     0.010 C 
HETATM   27  C15 UNL     1      32.698  30.649  19.781  1.00  0.00     0.010 C 
ENDBRANCH  24  25
ENDBRANCH   5  24
ENDBRANCH   1   5
BRANCH   3  28
HETATM   28  C17 UNL     1      32.744  25.115  18.799  1.00  0.00     0.084 C 
BRANCH  28  29
HETATM   29  N3  UNL     1      33.879  24.833  17.959  1.00  0.00    -0.337 N 
ATOM     30  H3  UNL     1      33.942  25.381  17.101  1.00  0.00     0.167 HD
BRANCH  29  31
HETATM   31  C18 UNL     1      34.893  23.919  18.161  1.00  0.00     0.139 C 
BRANCH  31  32
HETATM   32  O6  UNL     1      36.022  24.220  17.571  1.00  0.00    -0.348 OA
ATOM     33  H6  UNL     1      36.786  24.166  18.132  1.00  0.00     0.219 HD
ENDBRANCH  31  32
BRANCH  31  34
HETATM   34  C19 UNL     1      34.947  22.681  18.910  1.00  0.00     0.162 C 
BRANCH  34  35
HETATM   35  N4  UNL     1      35.244  22.893  20.317  1.00  0.00    -0.349 N 
HETATM   36  C20 UNL     1      36.571  22.859  20.792  1.00  0.00     0.214 C 
HETATM   37  C21 UNL     1      36.904  23.050  22.225  1.00  0.00     0.117 C 
HETATM   38  O7  UNL     1      37.584  22.661  20.038  1.00  0.00    -0.274 OA
ATOM     39  H4  UNL     1      34.481  23.070  20.970  1.00  0.00     0.163 HD
ENDBRANCH  34  35
BRANCH  34  40
HETATM   40  C22 UNL     1      33.813  21.736  18.752  1.00  0.00     0.008 C 
HETATM   41  C23 UNL     1      33.996  20.499  19.635  1.00  0.00     0.012 C 
HETATM   42  C24 UNL     1      33.715  21.213  17.313  1.00  0.00     0.012 C 
ENDBRANCH  34  40
ENDBRANCH  31  34
ENDBRANCH  29  31
ENDBRANCH  28  29
BRANCH  28  43
HETATM   43  C25 UNL     1      31.398  25.088  18.246  1.00  0.00     0.041 C 
HETATM   44  C26 UNL     1      31.162  23.898  17.270  1.00  0.00     0.011 C 
HETATM   45  C27 UNL     1      30.127  24.384  16.270  1.00  0.00     0.001 C 
HETATM   46  C28 UNL     1      28.855  24.718  16.987  1.00  0.00     0.000 C 
HETATM   47  C29 UNL     1      29.058  25.673  18.148  1.00  0.00     0.001 C 
HETATM   48  C30 UNL     1      30.188  25.236  19.086  1.00  0.00     0.011 C 
ENDBRANCH  28  43
ENDBRANCH   3  28
TORSDOF 20
ENDMDL
MODEL 2
REMARK VINA RESULT: -6.644393085      2.556      6.474
REMARK  20 active torsions:
REMARK  status: ('A' for Active; 'I' for Inactive)
REMARK    1  A    between atoms: C2_2  and  C3_3 
REMARK    2  A    between atoms: C3_3  and  N1_4 
REMARK    3  A    between atoms: N1_4  and  C4_5 
REMARK    4  A    between atoms: C4_5  and  O1_6 
REMARK    5  A    between atoms: C4_5  and  C5_8 
REMARK    6  A    between atoms: C5_8  and  C6_10 
REMARK    7  A    between atoms: C9_14  and  C10_15 
REMARK    8  A    between atoms: C10_15  and  O4_16 
REMARK    9  A    between atoms: C10_15  and  C11_18 
REMARK   10  A    between atoms: C11_18  and  C12_19 
REMARK   11  A    between atoms: C11_18  and  N2_23 
REMARK   12  A    between atoms: C12_19  and  C13_20 
REMARK       I    between atoms: N2_23  and  C16_25 
REMARK   13  A    between atoms: C16_25  and  C17_27 
REMARK   14  A    between atoms: C17_27  and  N3_28 
REMARK   15  A    between atoms: C17_27  and  C25_42 
REMARK   16  A    between atoms: N3_28  and  C18_30 
REMARK   17  A    between atoms: C18_30  and  O6_31 
REMARK   18  A    between atoms: C18_30  and  C19_33 
REMARK   19  A    between atoms: C19_33  and  N4_34 
REMARK   20  A    between atoms: C19_33  and  C22_39 
REMARK       I    between atoms: N4_34  and  C20_36 
ROOT
HETATM    1  N2  UNL     1      34.556  27.222  19.581  1.00  0.00    -0.323 N 
ATOM      2  H2  UNL     1      35.182  28.009  19.411  1.00  0.00     0.169 HD
HETATM    3  C16 UNL     1      33.429  27.270  18.785  1.00  0.00     0.268 C 
HETATM    4  O5  UNL     1      32.571  26.333  18.813  1.00  0.00    -0.266 OA
ENDROOT
BRANCH   1   5
HETATM    5  C11 UNL     1      35.041  26.366  20.553  1.00  0.00     0.044 C 
BRANCH   5   6
HETATM    6  C10 UNL     1      36.103  25.379  20.504  1.00  0.00     0.102 C 
BRANCH   6   7
HETATM    7  C9  UNL     1      36.096  24.229  21.493  1.00  0.00     0.250 C 
HETATM    8  C8  UNL     1      37.212  23.306  20.959  1.00  0.00     0.165 C 
HETATM    9  C7  UNL     1      36.549  22.483  19.921  1.00  0.00     0.122 C 
HETATM   10  O3  UNL     1      38.339  23.281  21.327  1.00  0.00    -0.295 OA
HETATM   11  C6  UNL     1      35.071  22.585  20.311  1.00  0.00     0.209 C 
HETATM   12  O8  UNL     1      35.025  23.390  21.376  1.00  0.00    -0.358 OA
BRANCH  11  13
HETATM   13  C5  UNL     1      34.594  21.204  20.546  1.00  0.00     0.243 C 
HETATM   14  O2  UNL     1      34.550  20.782  21.700  1.00  0.00    -0.284 OA
BRANCH  13  15
HETATM   15  C4  UNL     1      34.172  20.359  19.400  1.00  0.00     0.263 C 
BRANCH  15  16
HETATM   16  N1  UNL     1      34.644  20.344  18.146  1.00  0.00    -0.390 NA
BRANCH  16  17
HETATM   17  C3  UNL     1      35.134  20.327  16.843  1.00  0.00     0.184 C 
BRANCH  17  18
HETATM   18  C2  UNL     1      36.059  21.410  16.445  1.00  0.00     0.021 C 
HETATM   19  C1  UNL     1      35.898  22.614  16.254  1.00  0.00     0.013 C 
ENDBRANCH  17  18
ENDBRANCH  16  17
ENDBRANCH  15  16
BRANCH  15  20
HETATM   20  O1  UNL     1      33.199  19.556  19.767  1.00  0.00    -0.333 OA
ATOM     21  H1  UNL     1      32.522  19.848  20.368  1.00  0.00     0.220 HD
ENDBRANCH  15  20
ENDBRANCH  13  15
ENDBRANCH  11  13
ENDBRANCH   6   7
BRANCH   6  22
HETATM   22  O4  UNL     1      37.377  25.803  20.213  1.00  0.00    -0.360 OA
ATOM     23  H4  UNL     1      37.717  26.393  20.876  1.00  0.00     0.217 HD
ENDBRANCH   6  22
ENDBRANCH   5   6
BRANCH   5  24
HETATM   24  C12 UNL     1      34.713  26.906  21.959  1.00  0.00     0.063 C 
BRANCH  24  25
HETATM   25  C13 UNL     1      35.201  28.294  22.193  1.00  0.00    -0.017 C 
HETATM   26  C14 UNL     1      34.279  28.949  23.234  1.00  0.00     0.010 C 
HETATM   27  C15 UNL     1      36.583  28.289  22.824  1.00  0.00     0.010 C 
ENDBRANCH  24  25
ENDBRANCH   5  24
ENDBRANCH   1   5
BRANCH   3  28
HETATM   28  C17 UNL     1      33.091  28.362  17.831  1.00  0.00     0.084 C 
BRANCH  28  29
HETATM   29  N3  UNL     1      33.750  28.275  16.553  1.00  0.00    -0.337 N 
ATOM     30  H3  UNL     1      33.143  28.093  15.753  1.00  0.00     0.167 HD
BRANCH  29  31
HETATM   31  C18 UNL     1      35.093  28.406  16.267  1.00  0.00     0.139 C 
BRANCH  31  32
HETATM   32  O6  UNL     1      35.645  27.339  15.747  1.00  0.00    -0.348 OA
ATOM     33  H6  UNL     1      36.158  26.823  16.357  1.00  0.00     0.219 HD
ENDBRANCH  31  32
BRANCH  31  34
HETATM   34  C19 UNL     1      36.016  29.509  16.432  1.00  0.00     0.162 C 
BRANCH  34  35
HETATM   35  N4  UNL     1      37.154  29.164  17.267  1.00  0.00    -0.349 N 
HETATM   36  C20 UNL     1      37.141  29.420  18.654  1.00  0.00     0.214 C 
HETATM   37  C21 UNL     1      38.296  29.100  19.529  1.00  0.00     0.117 C 
HETATM   38  O7  UNL     1      36.148  29.943  19.264  1.00  0.00    -0.274 OA
ATOM     39  H4  UNL     1      37.975  28.731  16.844  1.00  0.00     0.163 HD
ENDBRANCH  34  35
BRANCH  34  40
HETATM   40  C22 UNL     1      36.463  30.214  15.205  1.00  0.00     0.008 C 
HETATM   41  C23 UNL     1      36.944  31.632  15.526  1.00  0.00     0.012 C 
HETATM   42  C24 UNL     1      35.314  30.380  14.202  1.00  0.00     0.012 C 
ENDBRANCH  34  40
ENDBRANCH  31  34
ENDBRANCH  29  31
ENDBRANCH  28  29
BRANCH  28  43
HETATM   43  C25 UNL     1      32.451  29.603  18.242  1.00  0.00     0.041 C 
HETATM   44  C26 UNL     1      32.544  29.858  19.776  1.00  0.00     0.011 C 
HETATM   45  C27 UNL     1      31.304  30.658  20.135  1.00  0.00     0.001 C 
HETATM   46  C28 UNL     1      31.315  31.961  19.397  1.00  0.00     0.000 C 
HETATM   47  C29 UNL     1      31.508  31.799  17.902  1.00  0.00     0.001 C 
HETATM   48  C30 UNL     1      32.691  30.890  17.551  1.00  0.00     0.011 C 
ENDBRANCH  28  43
ENDBRANCH   3  28
TORSDOF 20
ENDMDL
MODEL 3
REMARK VINA RESULT: -6.549652560      1.367      2.186
REMARK  20 active torsions:
REMARK  status: ('A' for Active; 'I' for Inactive)
REMARK    1  A    between atoms: C2_2  and  C3_3 
REMARK    2  A    between atoms: C3_3  and  N1_4 
REMARK    3  A    between atoms: N1_4  and  C4_5 
REMARK    4  A    between atoms: C4_5  and  O1_6 
REMARK    5  A    between atoms: C4_5  and  C5_8 
REMARK    6  A    between atoms: C5_8  and  C6_10 
REMARK    7  A    between atoms: C9_14  and  C10_15 
REMARK    8  A    between atoms: C10_15  and  O4_16 
REMARK    9  A    between atoms: C10_15  and  C11_18 
REMARK   10  A    between atoms: C11_18  and  C12_19 
REMARK   11  A    between atoms: C11_18  and  N2_23 
REMARK   12  A    between atoms: C12_19  and  C13_20 
REMARK       I    between atoms: N2_23  and  C16_25 
REMARK   13  A    between atoms: C16_25  and  C17_27 
REMARK   14  A    between atoms: C17_27  and  N3_28 
REMARK   15  A    between atoms: C17_27  and  C25_42 
REMARK   16  A    between atoms: N3_28  and  C18_30 
REMARK   17  A    between atoms: C18_30  and  O6_31 
REMARK   18  A    between atoms: C18_30  and  C19_33 
REMARK   19  A    between atoms: C19_33  and  N4_34 
REMARK   20  A    between atoms: C19_33  and  C22_39 
REMARK       I    between atoms: N4_34  and  C20_36 
ROOT
HETATM    1  N2  UNL     1      33.161  26.999  20.587  1.00  0.00    -0.323 N 
ATOM      2  H2  UNL     1      33.044  27.398  19.655  1.00  0.00     0.169 HD
HETATM    3  C16 UNL     1      32.935  25.638  20.605  1.00  0.00     0.268 C 
HETATM    4  O5  UNL     1      33.103  24.963  21.669  1.00  0.00    -0.266 OA
ENDROOT
BRANCH   1   5
HETATM    5  C11 UNL     1      33.508  27.954  21.526  1.00  0.00     0.044 C 
BRANCH   5   6
HETATM    6  C10 UNL     1      34.798  28.315  22.081  1.00  0.00     0.102 C 
BRANCH   6   7
HETATM    7  C9  UNL     1      35.920  27.295  22.083  1.00  0.00     0.250 C 
HETATM    8  C8  UNL     1      37.187  28.171  22.182  1.00  0.00     0.165 C 
HETATM    9  C7  UNL     1      37.479  28.563  20.783  1.00  0.00     0.122 C 
HETATM   10  O3  UNL     1      37.776  28.445  23.174  1.00  0.00    -0.295 OA
HETATM   11  C6  UNL     1      36.747  27.485  19.977  1.00  0.00     0.209 C 
HETATM   12  O8  UNL     1      36.145  26.699  20.875  1.00  0.00    -0.358 OA
BRANCH  11  13
HETATM   13  C5  UNL     1      37.764  26.814  19.137  1.00  0.00     0.243 C 
HETATM   14  O2  UNL     1      38.017  25.629  19.348  1.00  0.00    -0.284 OA
BRANCH  13  15
HETATM   15  C4  UNL     1      38.451  27.568  18.059  1.00  0.00     0.263 C 
BRANCH  15  16
HETATM   16  N1  UNL     1      37.916  28.262  17.043  1.00  0.00    -0.390 NA
BRANCH  16  17
HETATM   17  C3  UNL     1      37.360  28.980  15.988  1.00  0.00     0.184 C 
BRANCH  17  18
HETATM   18  C2  UNL     1      36.355  30.013  16.318  1.00  0.00     0.021 C 
HETATM   19  C1  UNL     1      35.422  30.041  17.117  1.00  0.00     0.013 C 
ENDBRANCH  17  18
ENDBRANCH  16  17
ENDBRANCH  15  16
BRANCH  15  20
HETATM   20  O1  UNL     1      39.754  27.481  18.207  1.00  0.00    -0.333 OA
ATOM     21  H1  UNL     1      40.242  26.754  17.837  1.00  0.00     0.220 HD
ENDBRANCH  15  20
ENDBRANCH  13  15
ENDBRANCH  11  13
ENDBRANCH   6   7
BRANCH   6  22
HETATM   22  O4  UNL     1      34.829  29.120  23.194  1.00  0.00    -0.360 OA
ATOM     23  H4  UNL     1      33.958  29.368  23.480  1.00  0.00     0.217 HD
ENDBRANCH   6  22
ENDBRANCH   5   6
BRANCH   5  24
HETATM   24  C12 UNL     1      32.434  29.058  21.593  1.00  0.00     0.063 C 
BRANCH  24  25
HETATM   25  C13 UNL     1      31.907  29.459  20.258  1.00  0.00    -0.017 C 
HETATM   26  C14 UNL     1      30.447  29.899  20.440  1.00  0.00     0.010 C 
HETATM   27  C15 UNL     1      32.634  30.682  19.726  1.00  0.00     0.010 C 
ENDBRANCH  24  25
ENDBRANCH   5  24
ENDBRANCH   1   5
BRANCH   3  28
HETATM   28  C17 UNL     1      32.497  24.819  19.441  1.00  0.00     0.084 C 
BRANCH  28  29
HETATM   29  N3  UNL     1      33.421  23.789  19.043  1.00  0.00    -0.337 N 
ATOM     30  H3  UNL     1      33.152  22.835  19.286  1.00  0.00     0.167 HD
BRANCH  29  31
HETATM   31  C18 UNL     1      34.621  23.921  18.376  1.00  0.00     0.139 C 
BRANCH  31  32
HETATM   32  O6  UNL     1      35.670  24.006  19.155  1.00  0.00    -0.348 OA
ATOM     33  H6  UNL     1      36.503  23.960  18.701  1.00  0.00     0.219 HD
ENDBRANCH  31  32
BRANCH  31  34
HETATM   34  C19 UNL     1      34.945  23.981  16.965  1.00  0.00     0.162 C 
BRANCH  34  35
HETATM   35  N4  UNL     1      34.844  22.685  16.315  1.00  0.00    -0.349 N 
HETATM   36  C20 UNL     1      35.804  21.678  16.550  1.00  0.00     0.214 C 
HETATM   37  C21 UNL     1      35.740  20.354  15.883  1.00  0.00     0.117 C 
HETATM   38  O7  UNL     1      36.795  21.821  17.343  1.00  0.00    -0.274 OA
ATOM     39  H4  UNL     1      34.068  22.501  15.679  1.00  0.00     0.163 HD
ENDBRANCH  34  35
BRANCH  34  40
HETATM   40  C22 UNL     1      34.275  25.027  16.154  1.00  0.00     0.008 C 
HETATM   41  C23 UNL     1      34.693  24.940  14.684  1.00  0.00     0.012 C 
HETATM   42  C24 UNL     1      34.668  26.436  16.619  1.00  0.00     0.012 C 
ENDBRANCH  34  40
ENDBRANCH  31  34
ENDBRANCH  29  31
ENDBRANCH  28  29
BRANCH  28  43
HETATM   43  C25 UNL     1      31.424  25.227  18.545  1.00  0.00     0.041 C 
HETATM   44  C26 UNL     1      31.012  24.113  17.539  1.00  0.00     0.011 C 
HETATM   45  C27 UNL     1      30.521  24.839  16.298  1.00  0.00     0.001 C 
HETATM   46  C28 UNL     1      29.332  25.680  16.647  1.00  0.00     0.000 C 
HETATM   47  C29 UNL     1      29.579  26.605  17.822  1.00  0.00     0.001 C 
HETATM   48  C30 UNL     1      30.189  25.884  19.029  1.00  0.00     0.011 C 
ENDBRANCH  28  43
ENDBRANCH   3  28
TORSDOF 20
ENDMDL
MODEL 4
REMARK VINA RESULT: -6.527392506      2.054      5.879
REMARK  20 active torsions:
REMARK  status: ('A' for Active; 'I' for Inactive)
REMARK    1  A    between atoms: C2_2  and  C3_3 
REMARK    2  A    between atoms: C3_3  and  N1_4 
REMARK    3  A    between atoms: N1_4  and  C4_5 
REMARK    4  A    between atoms: C4_5  and  O1_6 
REMARK    5  A    between atoms: C4_5  and  C5_8 
REMARK    6  A    between atoms: C5_8  and  C6_10 
REMARK    7  A    between atoms: C9_14  and  C10_15 
REMARK    8  A    between atoms: C10_15  and  O4_16 
REMARK    9  A    between atoms: C10_15  and  C11_18 
REMARK   10  A    between atoms: C11_18  and  C12_19 
REMARK   11  A    between atoms: C11_18  and  N2_23 
REMARK   12  A    between atoms: C12_19  and  C13_20 
REMARK       I    between atoms: N2_23  and  C16_25 
REMARK   13  A    between atoms: C16_25  and  C17_27 
REMARK   14  A    between atoms: C17_27  and  N3_28 
REMARK   15  A    between atoms: C17_27  and  C25_42 
REMARK   16  A    between atoms: N3_28  and  C18_30 
REMARK   17  A    between atoms: C18_30  and  O6_31 
REMARK   18  A    between atoms: C18_30  and  C19_33 
REMARK   19  A    between atoms: C19_33  and  N4_34 
REMARK   20  A    between atoms: C19_33  and  C22_39 
REMARK       I    between atoms: N4_34  and  C20_36 
ROOT
HETATM    1  N2  UNL     1      34.322  27.646  20.064  1.00  0.00    -0.323 N 
ATOM      2  H2  UNL     1      34.215  27.749  19.055  1.00  0.00     0.169 HD
HETATM    3  C16 UNL     1      33.131  27.827  20.738  1.00  0.00     0.268 C 
HETATM    4  O5  UNL     1      33.063  27.668  21.997  1.00  0.00    -0.266 OA
ENDROOT
BRANCH   1   5
HETATM    5  C11 UNL     1      35.626  27.359  20.426  1.00  0.00     0.044 C 
BRANCH   5   6
HETATM    6  C10 UNL     1      36.181  26.246  21.171  1.00  0.00     0.102 C 
BRANCH   6   7
HETATM    7  C9  UNL     1      35.616  24.854  20.964  1.00  0.00     0.250 C 
HETATM    8  C8  UNL     1      36.855  23.947  21.128  1.00  0.00     0.165 C 
HETATM    9  C7  UNL     1      37.492  23.942  19.790  1.00  0.00     0.122 C 
HETATM   10  O3  UNL     1      37.189  23.388  22.118  1.00  0.00    -0.295 OA
HETATM   11  C6  UNL     1      36.336  24.349  18.871  1.00  0.00     0.209 C 
HETATM   12  O8  UNL     1      35.287  24.565  19.670  1.00  0.00    -0.358 OA
BRANCH  11  13
HETATM   13  C5  UNL     1      36.164  23.255  17.889  1.00  0.00     0.243 C 
HETATM   14  O2  UNL     1      37.096  22.989  17.131  1.00  0.00    -0.284 OA
BRANCH  13  15
HETATM   15  C4  UNL     1      34.888  22.498  17.838  1.00  0.00     0.263 C 
BRANCH  15  16
HETATM   16  N1  UNL     1      34.564  21.353  18.454  1.00  0.00    -0.390 NA
BRANCH  16  17
HETATM   17  C3  UNL     1      34.225  20.164  19.094  1.00  0.00     0.184 C 
BRANCH  17  18
HETATM   18  C2  UNL     1      34.280  20.141  20.572  1.00  0.00     0.021 C 
HETATM   19  C1  UNL     1      34.666  20.961  21.402  1.00  0.00     0.013 C 
ENDBRANCH  17  18
ENDBRANCH  16  17
ENDBRANCH  15  16
BRANCH  15  20
HETATM   20  O1  UNL     1      34.030  23.113  17.057  1.00  0.00    -0.333 OA
ATOM     21  H1  UNL     1      34.249  23.941  16.644  1.00  0.00     0.220 HD
ENDBRANCH  15  20
ENDBRANCH  13  15
ENDBRANCH  11  13
ENDBRANCH   6   7
BRANCH   6  22
HETATM   22  O4  UNL     1      36.567  26.458  22.473  1.00  0.00    -0.360 OA
ATOM     23  H4  UNL     1      36.061  27.147  22.888  1.00  0.00     0.217 HD
ENDBRANCH   6  22
ENDBRANCH   5   6
BRANCH   5  24
HETATM   24  C12 UNL     1      36.615  28.077  19.487  1.00  0.00     0.063 C 
BRANCH  24  25
HETATM   25  C13 UNL     1      38.035  27.684  19.704  1.00  0.00    -0.017 C 
HETATM   26  C14 UNL     1      38.680  27.463  18.327  1.00  0.00     0.010 C 
HETATM   27  C15 UNL     1      38.826  28.813  20.343  1.00  0.00     0.010 C 
ENDBRANCH  24  25
ENDBRANCH   5  24
ENDBRANCH   1   5
BRANCH   3  28
HETATM   28  C17 UNL     1      31.833  28.203  20.112  1.00  0.00     0.084 C 
BRANCH  28  29
HETATM   29  N3  UNL     1      31.012  27.092  19.706  1.00  0.00    -0.337 N 
ATOM     30  H3  UNL     1      30.038  27.127  20.008  1.00  0.00     0.167 HD
BRANCH  29  31
HETATM   31  C18 UNL     1      31.368  25.986  18.962  1.00  0.00     0.139 C 
BRANCH  31  32
HETATM   32  O6  UNL     1      31.627  24.915  19.669  1.00  0.00    -0.348 OA
ATOM     33  H6  UNL     1      31.026  24.194  19.528  1.00  0.00     0.219 HD
ENDBRANCH  31  32
BRANCH  31  34
HETATM   34  C19 UNL     1      31.508  25.781  17.535  1.00  0.00     0.162 C 
BRANCH  34  35
HETATM   35  N4  UNL     1      32.897  25.679  17.120  1.00  0.00    -0.349 N 
HETATM   36  C20 UNL     1      33.659  26.833  16.844  1.00  0.00     0.214 C 
HETATM   37  C21 UNL     1      35.072  26.759  16.396  1.00  0.00     0.117 C 
HETATM   38  O7  UNL     1      33.202  28.021  16.951  1.00  0.00    -0.274 OA
ATOM     39  H4  UNL     1      33.327  24.758  17.027  1.00  0.00     0.163 HD
ENDBRANCH  34  35
BRANCH  34  40
HETATM   40  C22 UNL     1      30.697  24.702  16.917  1.00  0.00     0.008 C 
HETATM   41  C23 UNL     1      30.976  24.591  15.416  1.00  0.00     0.012 C 
HETATM   42  C24 UNL     1      29.194  24.988  17.043  1.00  0.00     0.012 C 
ENDBRANCH  34  40
ENDBRANCH  31  34
ENDBRANCH  29  31
ENDBRANCH  28  29
BRANCH  28  43
HETATM   43  C25 UNL     1      31.553  29.541  19.612  1.00  0.00     0.041 C 
HETATM   44  C26 UNL     1      30.307  30.194  20.280  1.00  0.00     0.011 C 
HETATM   45  C27 UNL     1      29.721  31.126  19.234  1.00  0.00     0.001 C 
HETATM   46  C28 UNL     1      30.724  32.181  18.882  1.00  0.00     0.000 C 
HETATM   47  C29 UNL     1      32.073  31.612  18.486  1.00  0.00     0.001 C 
HETATM   48  C30 UNL     1      32.600  30.580  19.488  1.00  0.00     0.011 C 
ENDBRANCH  28  43
ENDBRANCH   3  28
TORSDOF 20
ENDMDL
MODEL 5
REMARK VINA RESULT: -6.516724786      2.390      5.807
REMARK  20 active torsions:
REMARK  status: ('A' for Active; 'I' for Inactive)
REMARK    1  A    between atoms: C2_2  and  C3_3 
REMARK    2  A    between atoms: C3_3  and  N1_4 
REMARK    3  A    between atoms: N1_4  and  C4_5 
REMARK    4  A    between atoms: C4_5  and  O1_6 
REMARK    5  A    between atoms: C4_5  and  C5_8 
REMARK    6  A    between atoms: C5_8  and  C6_10 
REMARK    7  A    between atoms: C9_14  and  C10_15 
REMARK    8  A    between atoms: C10_15  and  O4_16 
REMARK    9  A    between atoms: C10_15  and  C11_18 
REMARK   10  A    between atoms: C11_18  and  C12_19 
REMARK   11  A    between atoms: C11_18  and  N2_23 
REMARK   12  A    between atoms: C12_19  and  C13_20 
REMARK       I    between atoms: N2_23  and  C16_25 
REMARK   13  A    between atoms: C16_25  and  C17_27 
REMARK   14  A    between atoms: C17_27  and  N3_28 
REMARK   15  A    between atoms: C17_27  and  C25_42 
REMARK   16  A    between atoms: N3_28  and  C18_30 
REMARK   17  A    between atoms: C18_30  and  O6_31 
REMARK   18  A    between atoms: C18_30  and  C19_33 
REMARK   19  A    between atoms: C19_33  and  N4_34 
REMARK   20  A    between atoms: C19_33  and  C22_39 
REMARK       I    between atoms: N4_34  and  C20_36 
ROOT
HETATM    1  N2  UNL     1      34.787  24.569  18.958  1.00  0.00    -0.323 N 
ATOM      2  H2  UNL     1      33.784  24.588  18.773  1.00  0.00     0.169 HD
HETATM    3  C16 UNL     1      35.532  24.812  17.821  1.00  0.00     0.268 C 
HETATM    4  O5  UNL     1      36.799  24.894  17.878  1.00  0.00    -0.266 OA
ENDROOT
BRANCH   1   5
HETATM    5  C11 UNL     1      35.071  24.308  20.286  1.00  0.00     0.044 C 
BRANCH   5   6
HETATM    6  C10 UNL     1      35.546  25.178  21.344  1.00  0.00     0.102 C 
BRANCH   6   7
HETATM    7  C9  UNL     1      35.831  26.636  21.039  1.00  0.00     0.250 C 
HETATM    8  C8  UNL     1      35.886  27.281  22.440  1.00  0.00     0.165 C 
HETATM    9  C7  UNL     1      34.472  27.574  22.771  1.00  0.00     0.122 C 
HETATM   10  O3  UNL     1      36.863  27.488  23.080  1.00  0.00    -0.295 OA
HETATM   11  C6  UNL     1      33.808  27.605  21.391  1.00  0.00     0.209 C 
HETATM   12  O8  UNL     1      34.773  27.320  20.511  1.00  0.00    -0.358 OA
BRANCH  11  13
HETATM   13  C5  UNL     1      33.195  28.943  21.240  1.00  0.00     0.243 C 
HETATM   14  O2  UNL     1      32.160  29.193  21.856  1.00  0.00    -0.284 OA
BRANCH  13  15
HETATM   15  C4  UNL     1      33.834  29.957  20.363  1.00  0.00     0.263 C 
BRANCH  15  16
HETATM   16  N1  UNL     1      33.418  30.429  19.179  1.00  0.00    -0.390 NA
BRANCH  16  17
HETATM   17  C3  UNL     1      32.987  30.917  17.949  1.00  0.00     0.184 C 
BRANCH  17  18
HETATM   18  C2  UNL     1      31.705  31.655  17.916  1.00  0.00     0.021 C 
HETATM   19  C1  UNL     1      30.951  32.052  18.802  1.00  0.00     0.013 C 
ENDBRANCH  17  18
ENDBRANCH  16  17
ENDBRANCH  15  16
BRANCH  15  20
HETATM   20  O1  UNL     1      34.950  30.386  20.909  1.00  0.00    -0.333 OA
ATOM     21  H1  UNL     1      35.012  31.261  21.274  1.00  0.00     0.220 HD
ENDBRANCH  15  20
ENDBRANCH  13  15
ENDBRANCH  11  13
ENDBRANCH   6   7
BRANCH   6  22
HETATM   22  O4  UNL     1      36.422  24.664  22.270  1.00  0.00    -0.360 OA
ATOM     23  H4  UNL     1      37.229  25.164  22.314  1.00  0.00     0.217 HD
ENDBRANCH   6  22
ENDBRANCH   5   6
BRANCH   5  24
HETATM   24  C12 UNL     1      34.313  23.053  20.762  1.00  0.00     0.063 C 
BRANCH  24  25
HETATM   25  C13 UNL     1      34.953  21.775  20.341  1.00  0.00    -0.017 C 
HETATM   26  C14 UNL     1      34.624  20.711  21.399  1.00  0.00     0.010 C 
HETATM   27  C15 UNL     1      34.347  21.259  19.047  1.00  0.00     0.010 C 
ENDBRANCH  24  25
ENDBRANCH   5  24
ENDBRANCH   1   5
BRANCH   3  28
HETATM   28  C17 UNL     1      34.980  25.007  16.452  1.00  0.00     0.084 C 
BRANCH  28  29
HETATM   29  N3  UNL     1      34.620  26.364  16.133  1.00  0.00    -0.337 N 
ATOM     30  H3  UNL     1      34.214  26.509  15.208  1.00  0.00     0.167 HD
BRANCH  29  31
HETATM   31  C18 UNL     1      34.750  27.495  16.912  1.00  0.00     0.139 C 
BRANCH  31  32
HETATM   32  O6  UNL     1      33.805  27.653  17.803  1.00  0.00    -0.348 OA
ATOM     33  H6  UNL     1      33.485  26.845  18.187  1.00  0.00     0.219 HD
ENDBRANCH  31  32
BRANCH  31  34
HETATM   34  C19 UNL     1      35.745  28.547  16.935  1.00  0.00     0.162 C 
BRANCH  34  35
HETATM   35  N4  UNL     1      36.990  28.123  17.553  1.00  0.00    -0.349 N 
HETATM   36  C20 UNL     1      37.568  28.865  18.605  1.00  0.00     0.214 C 
HETATM   37  C21 UNL     1      38.850  28.469  19.240  1.00  0.00     0.117 C 
HETATM   38  O7  UNL     1      37.045  29.924  19.090  1.00  0.00    -0.274 OA
ATOM     39  H4  UNL     1      37.454  27.277  17.221  1.00  0.00     0.163 HD
ENDBRANCH  34  35
BRANCH  34  40
HETATM   40  C22 UNL     1      36.010  29.264  15.663  1.00  0.00     0.008 C 
HETATM   41  C23 UNL     1      37.384  28.896  15.097  1.00  0.00     0.012 C 
HETATM   42  C24 UNL     1      36.037  30.784  15.871  1.00  0.00     0.012 C 
ENDBRANCH  34  40
ENDBRANCH  31  34
ENDBRANCH  29  31
ENDBRANCH  28  29
BRANCH  28  43
HETATM   43  C25 UNL     1      34.499  23.908  15.628  1.00  0.00     0.041 C 
HETATM   44  C26 UNL     1      35.580  22.815  15.376  1.00  0.00     0.011 C 
HETATM   45  C27 UNL     1      35.252  22.217  14.019  1.00  0.00     0.001 C 
HETATM   46  C28 UNL     1      33.891  21.592  14.062  1.00  0.00     0.000 C 
HETATM   47  C29 UNL     1      32.818  22.532  14.575  1.00  0.00     0.001 C 
HETATM   48  C30 UNL     1      33.212  23.224  15.884  1.00  0.00     0.011 C 
ENDBRANCH  28  43
ENDBRANCH   3  28
TORSDOF 20
ENDMDL
