MODEL 1
REMARK VINA RESULT: -7.689194147      0.000      0.000
REMARK  3 active torsions:
REMARK  status: ('A' for Active; 'I' for Inactive)
REMARK    1  A    between atoms: C2_2  and  C3_3 
REMARK    2  A    between atoms: C17_17  and  C19_19 
REMARK    3  A    between atoms: N1_20  and  N2_22 
ROOT
HETATM    1  C3  UNL     1      31.506  30.529  18.058  1.00  0.00    -0.013 C 
HETATM    2  C4  UNL     1      31.304  29.565  16.948  1.00  0.00     0.018 C 
HETATM    3  C5  UNL     1      30.373  30.567  19.093  1.00  0.00     0.015 C 
HETATM    4  C6  UNL     1      31.476  30.858  20.121  1.00  0.00     0.040 C 
HETATM    5  C7  UNL     1      32.410  30.089  19.193  1.00  0.00     0.073 C 
HETATM    6  C8  UNL     1      33.755  30.709  19.043  1.00  0.00     0.066 C 
HETATM    7  C9  UNL     1      34.727  30.104  20.028  1.00  0.00    -0.017 C 
HETATM    8  C10 UNL     1      34.528  28.875  20.462  1.00  0.00    -0.036 C 
HETATM    9  C11 UNL     1      33.380  28.112  19.993  1.00  0.00     0.083 C 
HETATM   10  C12 UNL     1      33.768  27.012  19.005  1.00  0.00     0.051 C 
HETATM   11  C13 UNL     1      32.864  27.377  21.241  1.00  0.00     0.043 C 
HETATM   12  C14 UNL     1      33.912  26.365  21.591  1.00  0.00     0.009 C 
HETATM   13  C15 UNL     1      35.270  26.907  21.820  1.00  0.00    -0.001 C 
HETATM   14  C16 UNL     1      35.615  26.649  23.298  1.00  0.00     0.011 C 
HETATM   15  C17 UNL     1      35.508  28.315  21.433  1.00  0.00     0.019 C 
HETATM   16  C18 UNL     1      35.610  29.242  22.652  1.00  0.00     0.026 C 
HETATM   17  O1  UNL     1      32.358  28.771  19.439  1.00  0.00    -0.364 OA
ENDROOT
BRANCH  15  18
HETATM   18  C19 UNL     1      36.835  28.407  20.765  1.00  0.00     0.094 C 
HETATM   19  N1  UNL     1      37.489  27.414  20.332  1.00  0.00    -0.313 N 
ATOM     20  H1  UNL     1      37.100  26.477  20.436  1.00  0.00     0.185 HD
BRANCH  19  21
HETATM   21  N2  UNL     1      38.732  27.572  19.715  1.00  0.00    -0.277 N 
HETATM   22  C20 UNL     1      38.883  27.226  18.489  1.00  0.00     0.215 C 
HETATM   23  N3  UNL     1      40.159  27.396  17.878  1.00  0.00    -0.065 NA
HETATM   24  N4  UNL     1      37.826  26.680  17.719  1.00  0.00    -0.065 NA
ATOM     25  H2  UNL     1      39.516  27.960  20.237  1.00  0.00     0.189 HD
ENDBRANCH  19  21
ENDBRANCH  15  18
BRANCH   1  26
HETATM   26  C2  UNL     1      31.799  31.925  17.548  1.00  0.00     0.007 C 
HETATM   27  C1  UNL     1      31.085  32.178  16.247  1.00  0.00     0.006 C 
ENDBRANCH   1  26
TORSDOF 3
ENDMDL
MODEL 2
REMARK VINA RESULT: -7.361779911      2.069      2.464
REMARK  3 active torsions:
REMARK  status: ('A' for Active; 'I' for Inactive)
REMARK    1  A    between atoms: C2_2  and  C3_3 
REMARK    2  A    between atoms: C17_17  and  C19_19 
REMARK    3  A    between atoms: N1_20  and  N2_22 
ROOT
HETATM    1  C3  UNL     1      31.924  30.162  17.491  1.00  0.00    -0.013 C 
HETATM    2  C4  UNL     1      30.753  29.265  17.333  1.00  0.00     0.018 C 
HETATM    3  C5  UNL     1      31.669  31.409  18.348  1.00  0.00     0.015 C 
HETATM    4  C6  UNL     1      33.128  31.257  18.802  1.00  0.00     0.040 C 
HETATM    5  C7  UNL     1      32.956  29.766  18.529  1.00  0.00     0.073 C 
HETATM    6  C8  UNL     1      34.130  29.135  17.867  1.00  0.00     0.066 C 
HETATM    7  C9  UNL     1      35.056  28.533  18.897  1.00  0.00    -0.017 C 
HETATM    8  C10 UNL     1      34.565  28.138  20.056  1.00  0.00    -0.036 C 
HETATM    9  C11 UNL     1      33.144  28.286  20.335  1.00  0.00     0.083 C 
HETATM   10  C12 UNL     1      32.395  26.954  20.296  1.00  0.00     0.051 C 
HETATM   11  C13 UNL     1      33.080  28.747  21.801  1.00  0.00     0.043 C 
HETATM   12  C14 UNL     1      33.540  27.583  22.624  1.00  0.00     0.009 C 
HETATM   13  C15 UNL     1      34.884  27.059  22.293  1.00  0.00    -0.001 C 
HETATM   14  C16 UNL     1      35.779  27.303  23.522  1.00  0.00     0.011 C 
HETATM   15  C17 UNL     1      35.510  27.551  21.045  1.00  0.00     0.019 C 
HETATM   16  C18 UNL     1      36.649  28.542  21.319  1.00  0.00     0.026 C 
HETATM   17  O1  UNL     1      32.432  29.139  19.593  1.00  0.00    -0.364 OA
ENDROOT
BRANCH  15  18
HETATM   18  C19 UNL     1      36.156  26.402  20.353  1.00  0.00     0.094 C 
HETATM   19  N1  UNL     1      35.872  25.187  20.564  1.00  0.00    -0.313 N 
ATOM     20  H1  UNL     1      35.156  24.955  21.251  1.00  0.00     0.185 HD
BRANCH  19  21
HETATM   21  N2  UNL     1      36.519  24.157  19.878  1.00  0.00    -0.277 N 
HETATM   22  C20 UNL     1      37.257  23.328  20.521  1.00  0.00     0.215 C 
HETATM   23  N3  UNL     1      37.908  22.284  19.802  1.00  0.00    -0.065 NA
HETATM   24  N4  UNL     1      37.450  23.413  21.923  1.00  0.00    -0.065 NA
ATOM     25  H2  UNL     1      36.405  24.065  18.869  1.00  0.00     0.189 HD
ENDBRANCH  19  21
ENDBRANCH  15  18
BRANCH   1  26
HETATM   26  C2  UNL     1      32.520  30.555  16.155  1.00  0.00     0.007 C 
HETATM   27  C1  UNL     1      31.709  31.647  15.510  1.00  0.00     0.006 C 
ENDBRANCH   1  26
TORSDOF 3
ENDMDL
MODEL 3
REMARK VINA RESULT: -7.229228387      2.313      3.921
REMARK  3 active torsions:
REMARK  status: ('A' for Active; 'I' for Inactive)
REMARK    1  A    between atoms: C2_2  and  C3_3 
REMARK    2  A    between atoms: C17_17  and  C19_19 
REMARK    3  A    between atoms: N1_20  and  N2_22 
ROOT
HETATM    1  C3  UNL     1      31.788  30.696  18.428  1.00  0.00    -0.013 C 
HETATM    2  C4  UNL     1      31.766  31.604  19.601  1.00  0.00     0.018 C 
HETATM    3  C5  UNL     1      32.258  31.345  17.119  1.00  0.00     0.015 C 
HETATM    4  C6  UNL     1      32.866  29.974  16.790  1.00  0.00     0.040 C 
HETATM    5  C7  UNL     1      32.983  29.772  18.297  1.00  0.00     0.073 C 
HETATM    6  C8  UNL     1      32.623  28.402  18.752  1.00  0.00     0.066 C 
HETATM    7  C9  UNL     1      33.855  27.535  18.845  1.00  0.00    -0.017 C 
HETATM    8  C10 UNL     1      35.028  28.098  19.065  1.00  0.00    -0.036 C 
HETATM    9  C11 UNL     1      35.127  29.543  19.216  1.00  0.00     0.083 C 
HETATM   10  C12 UNL     1      35.373  29.968  20.663  1.00  0.00     0.051 C 
HETATM   11  C13 UNL     1      36.406  29.928  18.454  1.00  0.00     0.043 C 
HETATM   12  C14 UNL     1      37.546  29.356  19.239  1.00  0.00     0.009 C 
HETATM   13  C15 UNL     1      37.489  27.896  19.473  1.00  0.00    -0.001 C 
HETATM   14  C16 UNL     1      38.687  27.273  18.732  1.00  0.00     0.011 C 
HETATM   15  C17 UNL     1      36.219  27.210  19.148  1.00  0.00     0.019 C 
HETATM   16  C18 UNL     1      36.324  26.370  17.867  1.00  0.00     0.026 C 
HETATM   17  O1  UNL     1      34.123  30.302  18.767  1.00  0.00    -0.364 OA
ENDROOT
BRANCH  15  18
HETATM   18  C19 UNL     1      35.917  26.230  20.228  1.00  0.00     0.094 C 
HETATM   19  N1  UNL     1      36.220  25.003  20.186  1.00  0.00    -0.313 N 
ATOM     20  H1  UNL     1      36.703  24.636  19.366  1.00  0.00     0.185 HD
BRANCH  19  21
HETATM   21  N2  UNL     1      35.905  24.137  21.236  1.00  0.00    -0.277 N 
HETATM   22  C20 UNL     1      36.801  23.343  21.698  1.00  0.00     0.215 C 
HETATM   23  N3  UNL     1      36.459  22.469  22.769  1.00  0.00    -0.065 NA
HETATM   24  N4  UNL     1      38.119  23.302  21.178  1.00  0.00    -0.065 NA
ATOM     25  H2  UNL     1      34.967  24.137  21.635  1.00  0.00     0.189 HD
ENDBRANCH  19  21
ENDBRANCH  15  18
BRANCH   1  26
HETATM   26  C2  UNL     1      30.456  30.004  18.223  1.00  0.00     0.007 C 
HETATM   27  C1  UNL     1      29.430  30.525  19.193  1.00  0.00     0.006 C 
ENDBRANCH   1  26
TORSDOF 3
ENDMDL
MODEL 4
REMARK VINA RESULT: -7.203497958      1.422      1.750
REMARK  3 active torsions:
REMARK  status: ('A' for Active; 'I' for Inactive)
REMARK    1  A    between atoms: C2_2  and  C3_3 
REMARK    2  A    between atoms: C17_17  and  C19_19 
REMARK    3  A    between atoms: N1_20  and  N2_22 
ROOT
HETATM    1  C3  UNL     1      31.374  30.508  17.660  1.00  0.00    -0.013 C 
HETATM    2  C4  UNL     1      31.676  29.855  16.363  1.00  0.00     0.018 C 
HETATM    3  C5  UNL     1      30.055  30.069  18.310  1.00  0.00     0.015 C 
HETATM    4  C6  UNL     1      30.782  30.265  19.649  1.00  0.00     0.040 C 
HETATM    5  C7  UNL     1      32.065  29.949  18.888  1.00  0.00     0.073 C 
HETATM    6  C8  UNL     1      33.217  30.813  19.263  1.00  0.00     0.066 C 
HETATM    7  C9  UNL     1      34.047  30.149  20.336  1.00  0.00    -0.017 C 
HETATM    8  C10 UNL     1      34.054  28.834  20.428  1.00  0.00    -0.036 C 
HETATM    9  C11 UNL     1      33.267  28.033  19.500  1.00  0.00     0.083 C 
HETATM   10  C12 UNL     1      34.129  27.323  18.458  1.00  0.00     0.051 C 
HETATM   11  C13 UNL     1      32.665  26.913  20.366  1.00  0.00     0.043 C 
HETATM   12  C14 UNL     1      33.814  26.046  20.780  1.00  0.00     0.009 C 
HETATM   13  C15 UNL     1      34.908  26.738  21.498  1.00  0.00    -0.001 C 
HETATM   14  C16 UNL     1      34.948  26.160  22.925  1.00  0.00     0.011 C 
HETATM   15  C17 UNL     1      34.883  28.217  21.499  1.00  0.00     0.019 C 
HETATM   16  C18 UNL     1      34.470  28.790  22.862  1.00  0.00     0.026 C 
HETATM   17  O1  UNL     1      32.276  28.625  18.827  1.00  0.00    -0.364 OA
ENDROOT
BRANCH  15  18
HETATM   18  C19 UNL     1      36.268  28.716  21.274  1.00  0.00     0.094 C 
HETATM   19  N1  UNL     1      37.238  27.993  20.904  1.00  0.00    -0.313 N 
ATOM     20  H1  UNL     1      37.085  26.998  20.742  1.00  0.00     0.185 HD
BRANCH  19  21
HETATM   21  N2  UNL     1      38.514  28.527  20.712  1.00  0.00    -0.277 N 
HETATM   22  C20 UNL     1      39.266  28.761  21.725  1.00  0.00     0.215 C 
HETATM   23  N3  UNL     1      40.564  29.306  21.507  1.00  0.00    -0.065 NA
HETATM   24  N4  UNL     1      38.852  28.497  23.054  1.00  0.00    -0.065 NA
ATOM     25  H2  UNL     1      38.847  28.731  19.770  1.00  0.00     0.189 HD
ENDBRANCH  19  21
ENDBRANCH  15  18
BRANCH   1  26
HETATM   26  C2  UNL     1      31.433  32.019  17.559  1.00  0.00     0.007 C 
HETATM   27  C1  UNL     1      31.166  32.470  16.148  1.00  0.00     0.006 C 
ENDBRANCH   1  26
TORSDOF 3
ENDMDL
MODEL 5
REMARK VINA RESULT: -7.155750515      2.340      3.507
REMARK  3 active torsions:
REMARK  status: ('A' for Active; 'I' for Inactive)
REMARK    1  A    between atoms: C2_2  and  C3_3 
REMARK    2  A    between atoms: C17_17  and  C19_19 
REMARK    3  A    between atoms: N1_20  and  N2_22 
ROOT
HETATM    1  C3  UNL     1      31.096  30.427  18.858  1.00  0.00    -0.013 C 
HETATM    2  C4  UNL     1      30.236  30.445  20.067  1.00  0.00     0.018 C 
HETATM    3  C5  UNL     1      31.819  31.747  18.563  1.00  0.00     0.015 C 
HETATM    4  C6  UNL     1      32.961  30.870  18.027  1.00  0.00     0.040 C 
HETATM    5  C7  UNL     1      32.471  29.806  19.003  1.00  0.00     0.073 C 
HETATM    6  C8  UNL     1      32.471  28.427  18.442  1.00  0.00     0.066 C 
HETATM    7  C9  UNL     1      33.759  27.718  18.784  1.00  0.00    -0.017 C 
HETATM    8  C10 UNL     1      34.424  28.071  19.867  1.00  0.00    -0.036 C 
HETATM    9  C11 UNL     1      33.917  29.136  20.721  1.00  0.00     0.083 C 
HETATM   10  C12 UNL     1      33.333  28.611  22.032  1.00  0.00     0.051 C 
HETATM   11  C13 UNL     1      35.164  29.942  21.123  1.00  0.00     0.043 C 
HETATM   12  C14 UNL     1      35.966  29.048  22.018  1.00  0.00     0.009 C 
HETATM   13  C15 UNL     1      36.346  27.740  21.437  1.00  0.00    -0.001 C 
HETATM   14  C16 UNL     1      37.881  27.727  21.321  1.00  0.00     0.011 C 
HETATM   15  C17 UNL     1      35.690  27.349  20.170  1.00  0.00     0.019 C 
HETATM   16  C18 UNL     1      36.641  27.453  18.969  1.00  0.00     0.026 C 
HETATM   17  O1  UNL     1      33.012  29.981  20.219  1.00  0.00    -0.364 OA
ENDROOT
BRANCH  15  18
HETATM   18  C19 UNL     1      35.324  25.908  20.248  1.00  0.00     0.094 C 
HETATM   19  N1  UNL     1      36.159  24.958  20.277  1.00  0.00    -0.313 N 
ATOM     20  H1  UNL     1      37.156  25.169  20.246  1.00  0.00     0.185 HD
BRANCH  19  21
HETATM   21  N2  UNL     1      35.746  23.626  20.351  1.00  0.00    -0.277 N 
HETATM   22  C20 UNL     1      36.049  22.920  21.378  1.00  0.00     0.215 C 
HETATM   23  N3  UNL     1      35.618  21.564  21.433  1.00  0.00    -0.065 NA
HETATM   24  N4  UNL     1      36.799  23.442  22.462  1.00  0.00    -0.065 NA
ATOM     25  H2  UNL     1      35.206  23.216  19.590  1.00  0.00     0.189 HD
ENDBRANCH  19  21
ENDBRANCH  15  18
BRANCH   1  26
HETATM   26  C2  UNL     1      30.339  29.957  17.633  1.00  0.00     0.007 C 
HETATM   27  C1  UNL     1      28.853  30.068  17.848  1.00  0.00     0.006 C 
ENDBRANCH   1  26
TORSDOF 3
ENDMDL
