MODEL 1
REMARK VINA RESULT: -6.713973065      0.000      0.000
REMARK  6 active torsions:
REMARK  status: ('A' for Active; 'I' for Inactive)
REMARK    1  A    between atoms: C3_3  and  O1_4 
REMARK    2  A    between atoms: C6_8  and  C7_9 
REMARK    3  A    between atoms: C7_9  and  O2_10 
REMARK    4  A    between atoms: C11_15  and  C12_16 
REMARK    5  A    between atoms: C15_19  and  O3_20 
REMARK    6  A    between atoms: C19_24  and  O4_25 
ROOT
HETATM    1  C1  UNL     1      37.337  27.362  21.519  1.00  0.00     0.022 C 
HETATM    2  C2  UNL     1      36.064  27.667  21.458  1.00  0.00    -0.032 C 
HETATM    3  C3  UNL     1      35.522  28.339  22.709  1.00  0.00     0.150 C 
HETATM    4  C4  UNL     1      34.136  27.815  22.914  1.00  0.00     0.037 C 
HETATM    5  C5  UNL     1      33.955  26.448  22.272  1.00  0.00     0.019 C 
HETATM    6  C6  UNL     1      33.930  26.603  20.793  1.00  0.00     0.009 C 
HETATM    7  C8  UNL     1      33.913  25.288  20.054  1.00  0.00     0.025 C 
HETATM    8  C9  UNL     1      35.179  24.515  20.121  1.00  0.00     0.016 C 
HETATM    9  C10 UNL     1      34.823  23.075  20.242  1.00  0.00    -0.016 C 
HETATM   10  C11 UNL     1      35.337  22.071  19.598  1.00  0.00    -0.051 C 
HETATM   11  C15 UNL     1      36.410  22.369  18.620  1.00  0.00     0.150 C 
HETATM   12  C17 UNL     1      35.997  23.697  17.971  1.00  0.00     0.044 C 
HETATM   13  C18 UNL     1      36.170  24.761  19.072  1.00  0.00     0.028 C 
HETATM   14  C19 UNL     1      36.329  26.122  18.534  1.00  0.00     0.146 C 
HETATM   15  C20 UNL     1      35.598  27.264  19.009  1.00  0.00     0.013 C 
HETATM   16  C21 UNL     1      35.108  27.463  20.375  1.00  0.00    -0.041 C 
ENDROOT
BRANCH   6  17
HETATM   17  C7  UNL     1      32.606  27.268  20.423  1.00  0.00     0.178 C 
BRANCH  17  18
HETATM   18  O2  UNL     1      31.825  26.550  19.572  1.00  0.00    -0.400 OA
ATOM     19  H2  UNL     1      31.945  26.753  18.651  1.00  0.00     0.209 HD
ENDBRANCH  17  18
ENDBRANCH   6  17
BRANCH   3  20
HETATM   20  O1  UNL     1      35.541  29.731  22.539  1.00  0.00    -0.391 OA
ATOM     21  H1  UNL     1      36.349  30.083  22.892  1.00  0.00     0.210 HD
ENDBRANCH   3  20
BRANCH  14  22
HETATM   22  O4  UNL     1      35.997  26.009  17.140  1.00  0.00    -0.391 OA
ATOM     23  H4  UNL     1      35.050  25.935  17.120  1.00  0.00     0.210 HD
ENDBRANCH  14  22
BRANCH  10  24
HETATM   24  C12 UNL     1      34.907  20.682  19.800  1.00  0.00     0.009 C 
HETATM   25  C13 UNL     1      33.656  20.317  19.044  1.00  0.00     0.014 C 
HETATM   26  C14 UNL     1      34.628  20.406  21.278  1.00  0.00     0.014 C 
ENDBRANCH  10  24
BRANCH  11  27
HETATM   27  O3  UNL     1      36.521  21.340  17.734  1.00  0.00    -0.386 OA
HETATM   28  C16 UNL     1      36.101  21.673  16.448  1.00  0.00     0.202 C 
ENDBRANCH  11  27
TORSDOF 6
ENDMDL
MODEL 2
REMARK VINA RESULT: -6.712276720      2.015      3.815
REMARK  6 active torsions:
REMARK  status: ('A' for Active; 'I' for Inactive)
REMARK    1  A    between atoms: C3_3  and  O1_4 
REMARK    2  A    between atoms: C6_8  and  C7_9 
REMARK    3  A    between atoms: C7_9  and  O2_10 
REMARK    4  A    between atoms: C11_15  and  C12_16 
REMARK    5  A    between atoms: C15_19  and  O3_20 
REMARK    6  A    between atoms: C19_24  and  O4_25 
ROOT
HETATM    1  C1  UNL     1      33.962  28.303  20.879  1.00  0.00     0.022 C 
HETATM    2  C2  UNL     1      35.199  28.535  20.515  1.00  0.00    -0.032 C 
HETATM    3  C3  UNL     1      35.400  29.854  19.789  1.00  0.00     0.150 C 
HETATM    4  C4  UNL     1      36.418  29.609  18.721  1.00  0.00     0.037 C 
HETATM    5  C5  UNL     1      36.450  28.145  18.305  1.00  0.00     0.019 C 
HETATM    6  C6  UNL     1      37.059  27.342  19.399  1.00  0.00     0.009 C 
HETATM    7  C8  UNL     1      36.995  25.855  19.154  1.00  0.00     0.025 C 
HETATM    8  C9  UNL     1      35.636  25.262  19.247  1.00  0.00     0.016 C 
HETATM    9  C10 UNL     1      35.523  24.224  18.186  1.00  0.00    -0.016 C 
HETATM   10  C11 UNL     1      35.035  23.025  18.294  1.00  0.00    -0.051 C 
HETATM   11  C15 UNL     1      34.520  22.620  19.624  1.00  0.00     0.150 C 
HETATM   12  C17 UNL     1      35.482  23.259  20.634  1.00  0.00     0.044 C 
HETATM   13  C18 UNL     1      35.207  24.773  20.559  1.00  0.00     0.028 C 
HETATM   14  C19 UNL     1      35.628  25.493  21.771  1.00  0.00     0.146 C 
HETATM   15  C20 UNL     1      36.409  26.699  21.758  1.00  0.00     0.013 C 
HETATM   16  C21 UNL     1      36.395  27.722  20.709  1.00  0.00    -0.041 C 
ENDROOT
BRANCH   6  17
HETATM   17  C7  UNL     1      38.552  27.661  19.427  1.00  0.00     0.178 C 
BRANCH  17  18
HETATM   18  O2  UNL     1      39.366  26.614  19.131  1.00  0.00    -0.400 OA
ATOM     19  H2  UNL     1      39.049  25.766  19.421  1.00  0.00     0.209 HD
ENDBRANCH  17  18
ENDBRANCH   6  17
BRANCH   3  20
HETATM   20  O1  UNL     1      35.818  30.833  20.702  1.00  0.00    -0.391 OA
ATOM     21  H1  UNL     1      36.618  31.239  20.389  1.00  0.00     0.210 HD
ENDBRANCH   3  20
BRANCH  14  22
HETATM   22  O4  UNL     1      36.408  24.542  22.514  1.00  0.00    -0.391 OA
ATOM     23  H4  UNL     1      36.021  24.533  23.382  1.00  0.00     0.210 HD
ENDBRANCH  14  22
BRANCH  10  24
HETATM   24  C12 UNL     1      34.972  22.079  17.174  1.00  0.00     0.009 C 
HETATM   25  C13 UNL     1      36.304  21.820  16.520  1.00  0.00     0.014 C 
HETATM   26  C14 UNL     1      34.033  22.592  16.080  1.00  0.00     0.014 C 
ENDBRANCH  10  24
BRANCH  11  27
HETATM   27  O3  UNL     1      34.473  21.259  19.701  1.00  0.00    -0.386 OA
HETATM   28  C16 UNL     1      34.821  20.766  20.956  1.00  0.00     0.202 C 
ENDBRANCH  11  27
TORSDOF 6
ENDMDL
MODEL 3
REMARK VINA RESULT: -6.484814507      1.815      6.303
REMARK  6 active torsions:
REMARK  status: ('A' for Active; 'I' for Inactive)
REMARK    1  A    between atoms: C3_3  and  O1_4 
REMARK    2  A    between atoms: C6_8  and  C7_9 
REMARK    3  A    between atoms: C7_9  and  O2_10 
REMARK    4  A    between atoms: C11_15  and  C12_16 
REMARK    5  A    between atoms: C15_19  and  O3_20 
REMARK    6  A    between atoms: C19_24  and  O4_25 
ROOT
HETATM    1  C1  UNL     1      35.464  22.762  16.754  1.00  0.00     0.022 C 
HETATM    2  C2  UNL     1      35.549  22.085  17.874  1.00  0.00    -0.032 C 
HETATM    3  C3  UNL     1      34.681  20.839  17.918  1.00  0.00     0.150 C 
HETATM    4  C4  UNL     1      34.155  20.730  19.314  1.00  0.00     0.037 C 
HETATM    5  C5  UNL     1      34.115  22.085  20.004  1.00  0.00     0.019 C 
HETATM    6  C6  UNL     1      35.505  22.517  20.310  1.00  0.00     0.009 C 
HETATM    7  C8  UNL     1      35.588  23.922  20.854  1.00  0.00     0.025 C 
HETATM    8  C9  UNL     1      35.292  24.993  19.869  1.00  0.00     0.016 C 
HETATM    9  C10 UNL     1      34.523  26.055  20.575  1.00  0.00    -0.016 C 
HETATM   10  C11 UNL     1      34.701  27.340  20.515  1.00  0.00    -0.051 C 
HETATM   11  C15 UNL     1      35.794  27.834  19.644  1.00  0.00     0.150 C 
HETATM   12  C17 UNL     1      36.924  26.808  19.805  1.00  0.00     0.044 C 
HETATM   13  C18 UNL     1      36.420  25.531  19.106  1.00  0.00     0.028 C 
HETATM   14  C19 UNL     1      37.511  24.632  18.698  1.00  0.00     0.146 C 
HETATM   15  C20 UNL     1      37.527  23.219  18.961  1.00  0.00     0.013 C 
HETATM   16  C21 UNL     1      36.352  22.350  19.063  1.00  0.00    -0.041 C 
ENDROOT
BRANCH   6  17
HETATM   17  C7  UNL     1      36.020  21.636  21.446  1.00  0.00     0.178 C 
BRANCH  17  18
HETATM   18  O2  UNL     1      36.534  22.313  22.507  1.00  0.00    -0.400 OA
ATOM     19  H2  UNL     1      35.887  22.693  23.090  1.00  0.00     0.209 HD
ENDBRANCH  17  18
ENDBRANCH   6  17
BRANCH   3  20
HETATM   20  O1  UNL     1      35.445  19.721  17.552  1.00  0.00    -0.391 OA
ATOM     21  H1  UNL     1      35.783  19.299  18.333  1.00  0.00     0.210 HD
ENDBRANCH   3  20
BRANCH  14  22
HETATM   22  O4  UNL     1      38.682  25.153  19.348  1.00  0.00    -0.391 OA
ATOM     23  H4  UNL     1      39.064  24.409  19.798  1.00  0.00     0.210 HD
ENDBRANCH  14  22
BRANCH  10  24
HETATM   24  C12 UNL     1      33.877  28.301  21.257  1.00  0.00     0.009 C 
HETATM   25  C13 UNL     1      33.668  27.934  22.703  1.00  0.00     0.014 C 
HETATM   26  C14 UNL     1      32.489  28.430  20.628  1.00  0.00     0.014 C 
ENDBRANCH  10  24
BRANCH  11  27
HETATM   27  O3  UNL     1      36.145  29.096  20.021  1.00  0.00    -0.386 OA
HETATM   28  C16 UNL     1      36.746  29.829  19.001  1.00  0.00     0.202 C 
ENDBRANCH  11  27
TORSDOF 6
ENDMDL
MODEL 4
REMARK VINA RESULT: -6.430948933      2.839      6.209
REMARK  6 active torsions:
REMARK  status: ('A' for Active; 'I' for Inactive)
REMARK    1  A    between atoms: C3_3  and  O1_4 
REMARK    2  A    between atoms: C6_8  and  C7_9 
REMARK    3  A    between atoms: C7_9  and  O2_10 
REMARK    4  A    between atoms: C11_15  and  C12_16 
REMARK    5  A    between atoms: C15_19  and  O3_20 
REMARK    6  A    between atoms: C19_24  and  O4_25 
ROOT
HETATM    1  C1  UNL     1      35.998  24.425  19.144  1.00  0.00     0.022 C 
HETATM    2  C2  UNL     1      36.481  25.057  20.187  1.00  0.00    -0.032 C 
HETATM    3  C3  UNL     1      36.307  24.316  21.502  1.00  0.00     0.150 C 
HETATM    4  C4  UNL     1      36.008  25.348  22.542  1.00  0.00     0.037 C 
HETATM    5  C5  UNL     1      35.390  26.596  21.930  1.00  0.00     0.019 C 
HETATM    6  C6  UNL     1      36.432  27.330  21.164  1.00  0.00     0.009 C 
HETATM    7  C8  UNL     1      35.887  28.502  20.386  1.00  0.00     0.025 C 
HETATM    8  C9  UNL     1      35.044  28.140  19.218  1.00  0.00     0.016 C 
HETATM    9  C10 UNL     1      33.926  29.119  19.148  1.00  0.00    -0.016 C 
HETATM   10  C11 UNL     1      33.472  29.737  18.099  1.00  0.00    -0.051 C 
HETATM   11  C15 UNL     1      34.131  29.447  16.803  1.00  0.00     0.150 C 
HETATM   12  C17 UNL     1      35.620  29.289  17.142  1.00  0.00     0.044 C 
HETATM   13  C18 UNL     1      35.722  27.970  17.930  1.00  0.00     0.028 C 
HETATM   14  C19 UNL     1      37.071  27.385  17.896  1.00  0.00     0.146 C 
HETATM   15  C20 UNL     1      37.771  26.912  19.059  1.00  0.00     0.013 C 
HETATM   16  C21 UNL     1      37.156  26.348  20.263  1.00  0.00    -0.041 C 
ENDROOT
BRANCH   6  17
HETATM   17  C7  UNL     1      37.390  27.955  22.176  1.00  0.00     0.178 C 
BRANCH  17  18
HETATM   18  O2  UNL     1      36.864  28.975  22.907  1.00  0.00    -0.400 OA
ATOM     19  H2  UNL     1      36.168  28.722  23.502  1.00  0.00     0.209 HD
ENDBRANCH  17  18
ENDBRANCH   6  17
BRANCH   3  20
HETATM   20  O1  UNL     1      37.476  23.596  21.792  1.00  0.00    -0.391 OA
ATOM     21  H1  UNL     1      37.446  22.753  21.355  1.00  0.00     0.210 HD
ENDBRANCH   3  20
BRANCH  14  22
HETATM   22  O4  UNL     1      37.907  28.414  17.341  1.00  0.00    -0.391 OA
ATOM     23  H4  UNL     1      38.335  28.006  16.598  1.00  0.00     0.210 HD
ENDBRANCH  14  22
BRANCH  10  24
HETATM   24  C12 UNL     1      32.355  30.687  18.147  1.00  0.00     0.009 C 
HETATM   25  C13 UNL     1      32.249  31.438  19.448  1.00  0.00     0.014 C 
HETATM   26  C14 UNL     1      31.019  29.970  17.940  1.00  0.00     0.014 C 
ENDBRANCH  10  24
BRANCH  11  27
HETATM   27  O3  UNL     1      33.876  30.458  15.924  1.00  0.00    -0.386 OA
HETATM   28  C16 UNL     1      35.027  31.097  15.471  1.00  0.00     0.202 C 
ENDBRANCH  11  27
TORSDOF 6
ENDMDL
MODEL 5
REMARK VINA RESULT: -6.360975590      3.146      6.573
REMARK  6 active torsions:
REMARK  status: ('A' for Active; 'I' for Inactive)
REMARK    1  A    between atoms: C3_3  and  O1_4 
REMARK    2  A    between atoms: C6_8  and  C7_9 
REMARK    3  A    between atoms: C7_9  and  O2_10 
REMARK    4  A    between atoms: C11_15  and  C12_16 
REMARK    5  A    between atoms: C15_19  and  O3_20 
REMARK    6  A    between atoms: C19_24  and  O4_25 
ROOT
HETATM    1  C1  UNL     1      36.053  25.702  18.728  1.00  0.00     0.022 C 
HETATM    2  C2  UNL     1      36.210  26.071  19.976  1.00  0.00    -0.032 C 
HETATM    3  C3  UNL     1      36.155  24.929  20.976  1.00  0.00     0.150 C 
HETATM    4  C4  UNL     1      35.448  25.449  22.187  1.00  0.00     0.037 C 
HETATM    5  C5  UNL     1      34.527  26.609  21.841  1.00  0.00     0.019 C 
HETATM    6  C6  UNL     1      35.351  27.805  21.519  1.00  0.00     0.009 C 
HETATM    7  C8  UNL     1      34.540  28.970  21.009  1.00  0.00     0.025 C 
HETATM    8  C9  UNL     1      33.970  28.788  19.649  1.00  0.00     0.016 C 
HETATM    9  C10 UNL     1      32.610  29.394  19.645  1.00  0.00    -0.016 C 
HETATM   10  C11 UNL     1      32.086  30.169  18.743  1.00  0.00    -0.051 C 
HETATM   11  C15 UNL     1      32.923  30.502  17.566  1.00  0.00     0.150 C 
HETATM   12  C17 UNL     1      34.346  30.655  18.121  1.00  0.00     0.044 C 
HETATM   13  C18 UNL     1      34.785  29.232  18.517  1.00  0.00     0.028 C 
HETATM   14  C19 UNL     1      36.247  29.079  18.576  1.00  0.00     0.146 C 
HETATM   15  C20 UNL     1      36.947  28.467  19.672  1.00  0.00     0.013 C 
HETATM   16  C21 UNL     1      36.431  27.401  20.533  1.00  0.00    -0.041 C 
ENDROOT
BRANCH   6  17
HETATM   17  C7  UNL     1      35.961  28.307  22.826  1.00  0.00     0.178 C 
BRANCH  17  18
HETATM   18  O2  UNL     1      35.916  29.655  22.997  1.00  0.00    -0.400 OA
ATOM     19  H2  UNL     1      35.169  30.085  22.595  1.00  0.00     0.209 HD
ENDBRANCH  17  18
ENDBRANCH   6  17
BRANCH   3  20
HETATM   20  O1  UNL     1      37.459  24.500  21.270  1.00  0.00    -0.391 OA
ATOM     21  H1  UNL     1      38.004  25.253  21.465  1.00  0.00     0.210 HD
ENDBRANCH   3  20
BRANCH  14  22
HETATM   22  O4  UNL     1      36.762  30.419  18.496  1.00  0.00    -0.391 OA
ATOM     23  H4  UNL     1      37.011  30.531  17.585  1.00  0.00     0.210 HD
ENDBRANCH  14  22
BRANCH  10  24
HETATM   24  C12 UNL     1      30.726  30.711  18.842  1.00  0.00     0.009 C 
HETATM   25  C13 UNL     1      30.199  30.779  20.251  1.00  0.00     0.014 C 
HETATM   26  C14 UNL     1      29.740  29.860  18.040  1.00  0.00     0.014 C 
ENDBRANCH  10  24
BRANCH  11  27
HETATM   27  O3  UNL     1      32.446  31.632  16.971  1.00  0.00    -0.386 OA
HETATM   28  C16 UNL     1      32.625  31.645  15.590  1.00  0.00     0.202 C 
ENDBRANCH  11  27
TORSDOF 6
ENDMDL
