MODEL 1
REMARK VINA RESULT: -7.238253482      0.000      0.000
REMARK  4 active torsions:
REMARK  status: ('A' for Active; 'I' for Inactive)
REMARK    1  A    between atoms: C2_2  and  C5_5 
REMARK    2  A    between atoms: C8_8  and  N1_9 
REMARK    3  A    between atoms: C8_8  and  C9_13 
REMARK    4  A    between atoms: C12_16  and  C14_18 
ROOT
HETATM    1  C9  UNL     1      33.915  29.378  20.285  1.00  0.00     0.116 C 
HETATM    2  C10 UNL     1      34.920  30.469  20.383  1.00  0.00     0.051 C 
HETATM    3  C11 UNL     1      34.587  28.132  19.739  1.00  0.00     0.072 C 
HETATM    4  C12 UNL     1      35.014  27.371  20.976  1.00  0.00     0.068 C 
HETATM    5  C13 UNL     1      34.215  26.090  21.138  1.00  0.00     0.037 C 
HETATM    6  N3  UNL     1      34.627  28.253  22.029  1.00  0.00    -0.089 NA
HETATM    7  O2  UNL     1      33.593  28.966  21.578  1.00  0.00    -0.272 OA
ENDROOT
BRANCH   1   8
HETATM    8  C8  UNL     1      32.679  29.743  19.514  1.00  0.00     0.156 C 
HETATM    9  C7  UNL     1      32.698  29.353  18.086  1.00  0.00     0.042 C 
HETATM   10  C6  UNL     1      33.127  30.476  17.140  1.00  0.00     0.008 C 
HETATM   11  C5  UNL     1      32.225  31.659  17.199  1.00  0.00    -0.007 C 
HETATM   12  C20 UNL     1      31.439  31.645  18.468  1.00  0.00     0.008 C 
HETATM   13  C19 UNL     1      32.415  31.250  19.584  1.00  0.00     0.042 C 
BRANCH  11  14
HETATM   14  C2  UNL     1      31.303  31.799  16.025  1.00  0.00    -0.048 C 
HETATM   15  C1  UNL     1      32.011  31.274  14.793  1.00  0.00     0.015 C 
HETATM   16  C3  UNL     1      30.898  33.215  15.753  1.00  0.00     0.015 C 
HETATM   17  C4  UNL     1      30.039  30.983  16.182  1.00  0.00     0.015 C 
ENDBRANCH  11  14
BRANCH   8  18
HETATM   18  N1  UNL     1      31.524  29.133  20.153  1.00  0.00    -0.067 N 
ATOM     19  H13 UNL     1      31.058  28.455  19.550  1.00  0.00     0.275 HD
ATOM     20  H12 UNL     1      31.787  28.495  20.905  1.00  0.00     0.275 HD
ATOM     21  H11 UNL     1      30.895  29.869  20.470  1.00  0.00     0.275 HD
ENDBRANCH   8  18
ENDBRANCH   1   8
BRANCH   4  22
HETATM   22  C14 UNL     1      36.464  26.981  20.976  1.00  0.00     0.104 C 
HETATM   23  C15 UNL     1      37.048  27.396  19.633  1.00  0.00     0.018 C 
HETATM   24  C16 UNL     1      38.580  27.374  19.727  1.00  0.00     0.020 C 
HETATM   25  C17 UNL     1      38.971  28.526  20.627  1.00  0.00     0.122 C 
HETATM   26  N2  UNL     1      38.462  28.230  21.950  1.00  0.00    -0.361 N 
HETATM   27  C18 UNL     1      37.142  27.732  22.074  1.00  0.00     0.223 C 
ATOM     28  H2  UNL     1      39.044  28.377  22.775  1.00  0.00     0.162 HD
HETATM   29  O1  UNL     1      36.529  27.930  23.138  1.00  0.00    -0.273 OA
ENDBRANCH   4  22
TORSDOF 4
ENDMDL
MODEL 2
REMARK VINA RESULT: -7.224280819      4.396      7.522
REMARK  4 active torsions:
REMARK  status: ('A' for Active; 'I' for Inactive)
REMARK    1  A    between atoms: C2_2  and  C5_5 
REMARK    2  A    between atoms: C8_8  and  N1_9 
REMARK    3  A    between atoms: C8_8  and  C9_13 
REMARK    4  A    between atoms: C12_16  and  C14_18 
ROOT
HETATM    1  C9  UNL     1      36.396  24.131  20.755  1.00  0.00     0.116 C 
HETATM    2  C10 UNL     1      36.545  24.256  22.229  1.00  0.00     0.051 C 
HETATM    3  C11 UNL     1      35.430  25.192  20.263  1.00  0.00     0.072 C 
HETATM    4  C12 UNL     1      36.321  26.355  19.884  1.00  0.00     0.068 C 
HETATM    5  C13 UNL     1      36.327  26.578  18.382  1.00  0.00     0.037 C 
HETATM    6  N3  UNL     1      37.616  25.883  20.251  1.00  0.00    -0.089 NA
HETATM    7  O2  UNL     1      37.585  24.552  20.160  1.00  0.00    -0.272 OA
ENDROOT
BRANCH   1   8
HETATM    8  C8  UNL     1      36.019  22.755  20.287  1.00  0.00     0.156 C 
HETATM    9  C7  UNL     1      36.771  22.270  19.107  1.00  0.00     0.042 C 
HETATM   10  C6  UNL     1      36.044  22.479  17.777  1.00  0.00     0.008 C 
HETATM   11  C5  UNL     1      34.738  21.767  17.714  1.00  0.00    -0.007 C 
HETATM   12  C20 UNL     1      34.263  21.438  19.091  1.00  0.00     0.008 C 
HETATM   13  C19 UNL     1      34.526  22.679  19.953  1.00  0.00     0.042 C 
BRANCH  11  14
HETATM   14  C2  UNL     1      34.741  20.532  16.863  1.00  0.00    -0.048 C 
HETATM   15  C1  UNL     1      34.526  19.331  17.761  1.00  0.00     0.015 C 
HETATM   16  C3  UNL     1      36.025  20.326  16.121  1.00  0.00     0.015 C 
HETATM   17  C4  UNL     1      33.619  20.526  15.849  1.00  0.00     0.015 C 
ENDBRANCH  11  14
BRANCH   8  18
HETATM   18  N1  UNL     1      36.205  21.815  21.381  1.00  0.00    -0.067 N 
ATOM     19  H13 UNL     1      36.962  22.090  22.006  1.00  0.00     0.275 HD
ATOM     20  H12 UNL     1      35.443  21.851  22.058  1.00  0.00     0.275 HD
ATOM     21  H11 UNL     1      36.339  20.882  20.995  1.00  0.00     0.275 HD
ENDBRANCH   8  18
ENDBRANCH   1   8
BRANCH   4  22
HETATM   22  C14 UNL     1      35.917  27.657  20.514  1.00  0.00     0.104 C 
HETATM   23  C15 UNL     1      34.455  27.534  20.918  1.00  0.00     0.018 C 
HETATM   24  C16 UNL     1      34.110  28.667  21.894  1.00  0.00     0.020 C 
HETATM   25  C17 UNL     1      34.835  28.357  23.185  1.00  0.00     0.122 C 
HETATM   26  N2  UNL     1      36.255  28.451  22.914  1.00  0.00    -0.361 N 
HETATM   27  C18 UNL     1      36.761  27.859  21.730  1.00  0.00     0.223 C 
ATOM     28  H2  UNL     1      36.877  28.933  23.563  1.00  0.00     0.162 HD
HETATM   29  O1  UNL     1      37.950  27.497  21.707  1.00  0.00    -0.273 OA
ENDBRANCH   4  22
TORSDOF 4
ENDMDL
MODEL 3
REMARK VINA RESULT: -7.095251400      2.308      7.145
REMARK  4 active torsions:
REMARK  status: ('A' for Active; 'I' for Inactive)
REMARK    1  A    between atoms: C2_2  and  C5_5 
REMARK    2  A    between atoms: C8_8  and  N1_9 
REMARK    3  A    between atoms: C8_8  and  C9_13 
REMARK    4  A    between atoms: C12_16  and  C14_18 
ROOT
HETATM    1  C9  UNL     1      35.676  28.584  21.032  1.00  0.00     0.116 C 
HETATM    2  C10 UNL     1      35.550  29.303  22.328  1.00  0.00     0.051 C 
HETATM    3  C11 UNL     1      34.292  28.367  20.449  1.00  0.00     0.072 C 
HETATM    4  C12 UNL     1      34.080  29.564  19.548  1.00  0.00     0.068 C 
HETATM    5  C13 UNL     1      34.058  29.156  18.086  1.00  0.00     0.037 C 
HETATM    6  N3  UNL     1      35.267  30.326  19.762  1.00  0.00    -0.089 NA
HETATM    7  O2  UNL     1      36.227  29.462  20.099  1.00  0.00    -0.272 OA
ENDROOT
BRANCH   1   8
HETATM    8  C8  UNL     1      36.470  27.312  21.106  1.00  0.00     0.156 C 
HETATM    9  C7  UNL     1      36.768  26.686  19.798  1.00  0.00     0.042 C 
HETATM   10  C6  UNL     1      35.793  25.576  19.403  1.00  0.00     0.008 C 
HETATM   11  C5  UNL     1      35.780  24.444  20.371  1.00  0.00    -0.007 C 
HETATM   12  C20 UNL     1      36.344  24.883  21.682  1.00  0.00     0.008 C 
HETATM   13  C19 UNL     1      35.755  26.270  21.971  1.00  0.00     0.042 C 
BRANCH  11  14
HETATM   14  C2  UNL     1      36.485  23.209  19.896  1.00  0.00    -0.048 C 
HETATM   15  C1  UNL     1      35.634  22.006  20.248  1.00  0.00     0.015 C 
HETATM   16  C3  UNL     1      37.832  23.017  20.521  1.00  0.00     0.015 C 
HETATM   17  C4  UNL     1      36.669  23.189  18.394  1.00  0.00     0.015 C 
ENDBRANCH  11  14
BRANCH   8  18
HETATM   18  N1  UNL     1      37.722  27.574  21.797  1.00  0.00    -0.067 N 
ATOM     19  H13 UNL     1      37.714  28.467  22.292  1.00  0.00     0.275 HD
ATOM     20  H12 UNL     1      37.855  26.966  22.606  1.00  0.00     0.275 HD
ATOM     21  H11 UNL     1      38.488  27.507  21.129  1.00  0.00     0.275 HD
ENDBRANCH   8  18
ENDBRANCH   1   8
BRANCH   4  22
HETATM   22  C14 UNL     1      32.797  30.300  19.812  1.00  0.00     0.104 C 
HETATM   23  C15 UNL     1      32.641  31.350  18.721  1.00  0.00     0.018 C 
HETATM   24  C16 UNL     1      31.191  31.855  18.720  1.00  0.00     0.020 C 
HETATM   25  C17 UNL     1      30.340  30.716  18.205  1.00  0.00     0.122 C 
HETATM   26  N2  UNL     1      30.414  29.648  19.181  1.00  0.00    -0.361 N 
HETATM   27  C18 UNL     1      31.678  29.315  19.728  1.00  0.00     0.223 C 
ATOM     28  H2  UNL     1      29.573  29.147  19.468  1.00  0.00     0.162 HD
HETATM   29  O1  UNL     1      31.856  28.160  20.153  1.00  0.00    -0.273 OA
ENDBRANCH   4  22
TORSDOF 4
ENDMDL
MODEL 4
REMARK VINA RESULT: -7.083533685      3.817      7.338
REMARK  4 active torsions:
REMARK  status: ('A' for Active; 'I' for Inactive)
REMARK    1  A    between atoms: C2_2  and  C5_5 
REMARK    2  A    between atoms: C8_8  and  N1_9 
REMARK    3  A    between atoms: C8_8  and  C9_13 
REMARK    4  A    between atoms: C12_16  and  C14_18 
ROOT
HETATM    1  C9  UNL     1      36.489  25.064  20.453  1.00  0.00     0.116 C 
HETATM    2  C10 UNL     1      36.124  24.904  21.887  1.00  0.00     0.051 C 
HETATM    3  C11 UNL     1      35.591  26.115  19.828  1.00  0.00     0.072 C 
HETATM    4  C12 UNL     1      36.373  27.403  19.975  1.00  0.00     0.068 C 
HETATM    5  C13 UNL     1      36.839  27.921  18.626  1.00  0.00     0.037 C 
HETATM    6  N3  UNL     1      37.530  26.980  20.694  1.00  0.00    -0.089 NA
HETATM    7  O2  UNL     1      37.730  25.697  20.389  1.00  0.00    -0.272 OA
ENDROOT
BRANCH   1   8
HETATM    8  C8  UNL     1      36.498  23.782  19.672  1.00  0.00     0.156 C 
HETATM    9  C7  UNL     1      35.604  23.766  18.492  1.00  0.00     0.042 C 
HETATM   10  C6  UNL     1      34.242  23.122  18.752  1.00  0.00     0.008 C 
HETATM   11  C5  UNL     1      34.345  21.697  19.170  1.00  0.00    -0.007 C 
HETATM   12  C20 UNL     1      35.720  21.407  19.677  1.00  0.00     0.008 C 
HETATM   13  C19 UNL     1      36.120  22.595  20.562  1.00  0.00     0.042 C 
BRANCH  11  14
HETATM   14  C2  UNL     1      33.970  20.707  18.108  1.00  0.00    -0.048 C 
HETATM   15  C1  UNL     1      33.513  19.429  18.783  1.00  0.00     0.015 C 
HETATM   16  C3  UNL     1      35.103  20.362  17.192  1.00  0.00     0.015 C 
HETATM   17  C4  UNL     1      32.817  21.185  17.253  1.00  0.00     0.015 C 
ENDBRANCH  11  14
BRANCH   8  18
HETATM   18  N1  UNL     1      37.857  23.503  19.236  1.00  0.00    -0.067 N 
ATOM     19  H13 UNL     1      38.186  22.589  19.546  1.00  0.00     0.275 HD
ATOM     20  H12 UNL     1      37.918  23.341  18.230  1.00  0.00     0.275 HD
ATOM     21  H11 UNL     1      38.465  24.261  19.545  1.00  0.00     0.275 HD
ENDBRANCH   8  18
ENDBRANCH   1   8
BRANCH   4  22
HETATM   22  C14 UNL     1      35.593  28.512  20.620  1.00  0.00     0.104 C 
HETATM   23  C15 UNL     1      34.121  28.130  20.562  1.00  0.00     0.018 C 
HETATM   24  C16 UNL     1      33.336  29.024  21.531  1.00  0.00     0.020 C 
HETATM   25  C17 UNL     1      33.732  28.596  22.927  1.00  0.00     0.122 C 
HETATM   26  N2  UNL     1      35.133  28.922  23.095  1.00  0.00    -0.361 N 
HETATM   27  C18 UNL     1      36.032  28.614  22.044  1.00  0.00     0.223 C 
ATOM     28  H2  UNL     1      35.465  29.364  23.952  1.00  0.00     0.162 HD
HETATM   29  O1  UNL     1      37.229  28.421  22.322  1.00  0.00    -0.273 OA
ENDBRANCH   4  22
TORSDOF 4
ENDMDL
MODEL 5
REMARK VINA RESULT: -7.046925787      2.607      3.756
REMARK  4 active torsions:
REMARK  status: ('A' for Active; 'I' for Inactive)
REMARK    1  A    between atoms: C2_2  and  C5_5 
REMARK    2  A    between atoms: C8_8  and  N1_9 
REMARK    3  A    between atoms: C8_8  and  C9_13 
REMARK    4  A    between atoms: C12_16  and  C14_18 
ROOT
HETATM    1  C9  UNL     1      35.734  27.530  19.996  1.00  0.00     0.116 C 
HETATM    2  C10 UNL     1      36.284  27.344  18.626  1.00  0.00     0.051 C 
HETATM    3  C11 UNL     1      35.088  26.234  20.450  1.00  0.00     0.072 C 
HETATM    4  C12 UNL     1      36.191  25.514  21.195  1.00  0.00     0.068 C 
HETATM    5  C13 UNL     1      35.892  25.436  22.682  1.00  0.00     0.037 C 
HETATM    6  N3  UNL     1      37.301  26.393  21.028  1.00  0.00    -0.089 NA
HETATM    7  O2  UNL     1      36.804  27.623  20.885  1.00  0.00    -0.272 OA
ENDROOT
BRANCH   1   8
HETATM    8  C8  UNL     1      34.814  28.707  20.137  1.00  0.00     0.156 C 
HETATM    9  C7  UNL     1      33.374  28.393  19.992  1.00  0.00     0.042 C 
HETATM   10  C6  UNL     1      32.820  28.646  18.589  1.00  0.00     0.008 C 
HETATM   11  C5  UNL     1      32.943  30.068  18.166  1.00  0.00    -0.007 C 
HETATM   12  C20 UNL     1      33.974  30.764  18.992  1.00  0.00     0.008 C 
HETATM   13  C19 UNL     1      35.159  29.799  19.120  1.00  0.00     0.042 C 
BRANCH  11  14
HETATM   14  C2  UNL     1      31.658  30.840  18.191  1.00  0.00    -0.048 C 
HETATM   15  C1  UNL     1      31.602  31.637  19.479  1.00  0.00     0.015 C 
HETATM   16  C3  UNL     1      30.441  29.968  18.139  1.00  0.00     0.015 C 
HETATM   17  C4  UNL     1      31.558  31.836  17.057  1.00  0.00     0.015 C 
ENDBRANCH  11  14
BRANCH   8  18
HETATM   18  N1  UNL     1      35.032  29.325  21.435  1.00  0.00    -0.067 N 
ATOM     19  H13 UNL     1      36.003  29.261  21.739  1.00  0.00     0.275 HD
ATOM     20  H12 UNL     1      34.962  30.342  21.399  1.00  0.00     0.275 HD
ATOM     21  H11 UNL     1      34.385  28.915  22.108  1.00  0.00     0.275 HD
ENDBRANCH   8  18
ENDBRANCH   1   8
BRANCH   4  22
HETATM   22  C14 UNL     1      36.419  24.106  20.724  1.00  0.00     0.104 C 
HETATM   23  C15 UNL     1      35.090  23.579  20.201  1.00  0.00     0.018 C 
HETATM   24  C16 UNL     1      35.349  22.315  19.369  1.00  0.00     0.020 C 
HETATM   25  C17 UNL     1      36.044  22.767  18.104  1.00  0.00     0.122 C 
HETATM   26  N2  UNL     1      37.339  23.291  18.490  1.00  0.00    -0.361 N 
HETATM   27  C18 UNL     1      37.417  24.150  19.614  1.00  0.00     0.223 C 
ATOM     28  H2  UNL     1      38.177  23.045  17.962  1.00  0.00     0.162 HD
HETATM   29  O1  UNL     1      38.352  24.968  19.674  1.00  0.00    -0.273 OA
ENDBRANCH   4  22
TORSDOF 4
ENDMDL
