MODEL 1
REMARK VINA RESULT: -9.630764736      0.000      0.000
REMARK  5 active torsions:
REMARK  status: ('A' for Active; 'I' for Inactive)
REMARK    1  A    between atoms: C4_4  and  C5_5 
REMARK    2  A    between atoms: C5_5  and  S1_6 
REMARK    3  A    between atoms: S1_6  and  C6_7 
REMARK    4  A    between atoms: C6_7  and  C7_8 
REMARK    5  A    between atoms: C10_11  and  C11_12 
ROOT
HETATM    1  C7  UNL     1     -11.525  54.632  37.510  1.00  0.00    -0.049 A 
HETATM    2  C8  UNL     1     -10.514  55.453  37.049  1.00  0.00     0.009 A 
HETATM    3  C9  UNL     1     -10.693  56.789  36.805  1.00  0.00     0.013 A 
HETATM    4  C10 UNL     1     -11.928  57.389  37.016  1.00  0.00    -0.026 A 
HETATM    5  C17 UNL     1     -12.943  56.581  37.474  1.00  0.00     0.013 A 
HETATM    6  C18 UNL     1     -12.748  55.227  37.718  1.00  0.00     0.009 A 
ENDROOT
BRANCH   1   7
HETATM    7  C6  UNL     1     -11.250  53.180  37.750  1.00  0.00     0.112 C 
BRANCH   7   8
HETATM    8  S1  UNL     1     -11.624  52.652  39.410  1.00  0.00    -0.160 SA
BRANCH   8   9
HETATM    9  C5  UNL     1     -13.246  51.973  39.671  1.00  0.00     0.112 C 
BRANCH   9  10
HETATM   10  C4  UNL     1     -13.627  51.838  41.105  1.00  0.00    -0.049 A 
HETATM   11  C3  UNL     1     -14.803  51.321  41.565  1.00  0.00     0.008 A 
HETATM   12  C2  UNL     1     -15.015  51.243  42.922  1.00  0.00     0.001 A 
HETATM   13  C1  UNL     1     -14.068  51.675  43.823  1.00  0.00     0.000 A 
HETATM   14  C20 UNL     1     -12.873  52.200  43.351  1.00  0.00     0.001 A 
HETATM   15  C19 UNL     1     -12.665  52.276  42.010  1.00  0.00     0.008 A 
ENDBRANCH   9  10
ENDBRANCH   8   9
ENDBRANCH   7   8
ENDBRANCH   1   7
BRANCH   4  16
HETATM   16  C11 UNL     1     -12.126  58.820  36.762  1.00  0.00    -0.026 A 
HETATM   17  C12 UNL     1     -12.753  59.620  37.704  1.00  0.00     0.012 A 
HETATM   18  C13 UNL     1     -12.964  60.969  37.523  1.00  0.00     0.001 A 
HETATM   19  C14 UNL     1     -12.532  61.542  36.349  1.00  0.00     0.000 A 
HETATM   20  C15 UNL     1     -11.908  60.773  35.394  1.00  0.00     0.001 A 
HETATM   21  C16 UNL     1     -11.700  59.406  35.595  1.00  0.00     0.012 A 
ENDBRANCH   4  16
TORSDOF 5
ENDMDL
MODEL 2
REMARK VINA RESULT: -9.613703246      0.471      1.544
REMARK  5 active torsions:
REMARK  status: ('A' for Active; 'I' for Inactive)
REMARK    1  A    between atoms: C4_4  and  C5_5 
REMARK    2  A    between atoms: C5_5  and  S1_6 
REMARK    3  A    between atoms: S1_6  and  C6_7 
REMARK    4  A    between atoms: C6_7  and  C7_8 
REMARK    5  A    between atoms: C10_11  and  C11_12 
ROOT
HETATM    1  C7  UNL     1     -11.488  54.496  37.528  1.00  0.00    -0.049 A 
HETATM    2  C8  UNL     1     -10.487  55.333  37.072  1.00  0.00     0.009 A 
HETATM    3  C9  UNL     1     -10.681  56.669  36.845  1.00  0.00     0.013 A 
HETATM    4  C10 UNL     1     -11.920  57.255  37.070  1.00  0.00    -0.026 A 
HETATM    5  C17 UNL     1     -12.925  56.432  37.523  1.00  0.00     0.013 A 
HETATM    6  C18 UNL     1     -12.716  55.076  37.749  1.00  0.00     0.009 A 
ENDROOT
BRANCH   1   7
HETATM    7  C6  UNL     1     -11.197  53.045  37.749  1.00  0.00     0.112 C 
BRANCH   7   8
HETATM    8  S1  UNL     1     -12.219  52.299  39.004  1.00  0.00    -0.160 SA
BRANCH   8   9
HETATM    9  C5  UNL     1     -11.891  52.793  40.681  1.00  0.00     0.112 C 
BRANCH   9  10
HETATM   10  C4  UNL     1     -12.865  52.261  41.674  1.00  0.00    -0.049 A 
HETATM   11  C3  UNL     1     -12.705  52.287  43.029  1.00  0.00     0.008 A 
HETATM   12  C2  UNL     1     -13.697  51.771  43.830  1.00  0.00     0.001 A 
HETATM   13  C1  UNL     1     -14.844  51.231  43.295  1.00  0.00     0.000 A 
HETATM   14  C20 UNL     1     -15.003  51.206  41.916  1.00  0.00     0.001 A 
HETATM   15  C19 UNL     1     -14.022  51.717  41.126  1.00  0.00     0.008 A 
ENDBRANCH   9  10
ENDBRANCH   8   9
ENDBRANCH   7   8
ENDBRANCH   1   7
BRANCH   4  16
HETATM   16  C11 UNL     1     -12.134  58.687  36.834  1.00  0.00    -0.026 A 
HETATM   17  C12 UNL     1     -11.718  59.274  35.649  1.00  0.00     0.012 A 
HETATM   18  C13 UNL     1     -11.894  60.611  35.372  1.00  0.00     0.001 A 
HETATM   19  C14 UNL     1     -12.512  61.395  36.318  1.00  0.00     0.000 A 
HETATM   20  C15 UNL     1     -12.935  60.841  37.505  1.00  0.00     0.001 A 
HETATM   21  C16 UNL     1     -12.749  59.483  37.770  1.00  0.00     0.012 A 
ENDBRANCH   4  16
TORSDOF 5
ENDMDL
MODEL 3
REMARK VINA RESULT: -9.604970643      0.498      1.854
REMARK  5 active torsions:
REMARK  status: ('A' for Active; 'I' for Inactive)
REMARK    1  A    between atoms: C4_4  and  C5_5 
REMARK    2  A    between atoms: C5_5  and  S1_6 
REMARK    3  A    between atoms: S1_6  and  C6_7 
REMARK    4  A    between atoms: C6_7  and  C7_8 
REMARK    5  A    between atoms: C10_11  and  C11_12 
ROOT
HETATM    1  C7  UNL     1     -11.440  54.469  37.460  1.00  0.00    -0.049 A 
HETATM    2  C8  UNL     1     -12.656  55.070  37.725  1.00  0.00     0.009 A 
HETATM    3  C9  UNL     1     -12.884  56.407  37.532  1.00  0.00     0.013 A 
HETATM    4  C10 UNL     1     -11.878  57.235  37.051  1.00  0.00    -0.026 A 
HETATM    5  C17 UNL     1     -10.662  56.649  36.785  1.00  0.00     0.013 A 
HETATM    6  C18 UNL     1     -10.444  55.291  36.985  1.00  0.00     0.009 A 
ENDROOT
BRANCH   1   7
HETATM    7  C6  UNL     1     -11.271  53.002  37.699  1.00  0.00     0.112 C 
BRANCH   7   8
HETATM    8  S1  UNL     1     -12.342  52.362  38.970  1.00  0.00    -0.160 SA
BRANCH   8   9
HETATM    9  C5  UNL     1     -11.913  52.780  40.644  1.00  0.00     0.112 C 
BRANCH   9  10
HETATM   10  C4  UNL     1     -12.863  52.258  41.666  1.00  0.00    -0.049 A 
HETATM   11  C3  UNL     1     -12.669  52.293  43.016  1.00  0.00     0.008 A 
HETATM   12  C2  UNL     1     -13.643  51.786  43.846  1.00  0.00     0.001 A 
HETATM   13  C1  UNL     1     -14.805  51.246  43.343  1.00  0.00     0.000 A 
HETATM   14  C20 UNL     1     -14.999  51.213  41.969  1.00  0.00     0.001 A 
HETATM   15  C19 UNL     1     -14.036  51.714  41.151  1.00  0.00     0.008 A 
ENDBRANCH   9  10
ENDBRANCH   8   9
ENDBRANCH   7   8
ENDBRANCH   1   7
BRANCH   4  16
HETATM   16  C11 UNL     1     -12.115  58.667  36.838  1.00  0.00    -0.026 A 
HETATM   17  C12 UNL     1     -11.689  59.283  35.672  1.00  0.00     0.012 A 
HETATM   18  C13 UNL     1     -11.885  60.622  35.415  1.00  0.00     0.001 A 
HETATM   19  C14 UNL     1     -12.536  61.376  36.364  1.00  0.00     0.000 A 
HETATM   20  C15 UNL     1     -12.970  60.793  37.531  1.00  0.00     0.001 A 
HETATM   21  C16 UNL     1     -12.763  59.434  37.776  1.00  0.00     0.012 A 
ENDBRANCH   4  16
TORSDOF 5
ENDMDL
MODEL 4
REMARK VINA RESULT: -9.366340187      1.138      1.904
REMARK  5 active torsions:
REMARK  status: ('A' for Active; 'I' for Inactive)
REMARK    1  A    between atoms: C4_4  and  C5_5 
REMARK    2  A    between atoms: C5_5  and  S1_6 
REMARK    3  A    between atoms: S1_6  and  C6_7 
REMARK    4  A    between atoms: C6_7  and  C7_8 
REMARK    5  A    between atoms: C10_11  and  C11_12 
ROOT
HETATM    1  C7  UNL     1     -12.167  56.272  37.394  1.00  0.00    -0.049 A 
HETATM    2  C8  UNL     1     -11.264  57.075  36.722  1.00  0.00     0.009 A 
HETATM    3  C9  UNL     1     -11.525  58.379  36.397  1.00  0.00     0.013 A 
HETATM    4  C10 UNL     1     -12.738  58.965  36.736  1.00  0.00    -0.026 A 
HETATM    5  C17 UNL     1     -13.646  58.176  37.404  1.00  0.00     0.013 A 
HETATM    6  C18 UNL     1     -13.368  56.853  37.729  1.00  0.00     0.009 A 
ENDROOT
BRANCH   1   7
HETATM    7  C6  UNL     1     -11.805  54.855  37.712  1.00  0.00     0.112 C 
BRANCH   7   8
HETATM    8  S1  UNL     1     -12.753  54.165  39.053  1.00  0.00    -0.160 SA
BRANCH   8   9
HETATM    9  C5  UNL     1     -12.129  52.659  39.763  1.00  0.00     0.112 C 
BRANCH   9  10
HETATM   10  C4  UNL     1     -12.721  52.317  41.086  1.00  0.00    -0.049 A 
HETATM   11  C3  UNL     1     -12.139  52.555  42.297  1.00  0.00     0.008 A 
HETATM   12  C2  UNL     1     -12.810  52.199  43.445  1.00  0.00     0.001 A 
HETATM   13  C1  UNL     1     -14.053  51.611  43.395  1.00  0.00     0.000 A 
HETATM   14  C20 UNL     1     -14.643  51.371  42.162  1.00  0.00     0.001 A 
HETATM   15  C19 UNL     1     -13.978  51.723  41.030  1.00  0.00     0.008 A 
ENDBRANCH   9  10
ENDBRANCH   8   9
ENDBRANCH   7   8
ENDBRANCH   1   7
BRANCH   4  16
HETATM   16  C11 UNL     1     -13.024  60.362  36.395  1.00  0.00    -0.026 A 
HETATM   17  C12 UNL     1     -12.804  61.370  37.321  1.00  0.00     0.012 A 
HETATM   18  C13 UNL     1     -13.052  62.699  37.057  1.00  0.00     0.001 A 
HETATM   19  C14 UNL     1     -13.540  63.035  35.815  1.00  0.00     0.000 A 
HETATM   20  C15 UNL     1     -13.769  62.056  34.876  1.00  0.00     0.001 A 
HETATM   21  C16 UNL     1     -13.512  60.713  35.159  1.00  0.00     0.012 A 
ENDBRANCH   4  16
TORSDOF 5
ENDMDL
MODEL 5
REMARK VINA RESULT: -9.365975436      1.158      1.866
REMARK  5 active torsions:
REMARK  status: ('A' for Active; 'I' for Inactive)
REMARK    1  A    between atoms: C4_4  and  C5_5 
REMARK    2  A    between atoms: C5_5  and  S1_6 
REMARK    3  A    between atoms: S1_6  and  C6_7 
REMARK    4  A    between atoms: C6_7  and  C7_8 
REMARK    5  A    between atoms: C10_11  and  C11_12 
ROOT
HETATM    1  C7  UNL     1     -12.309  56.276  37.439  1.00  0.00    -0.049 A 
HETATM    2  C8  UNL     1     -11.395  57.061  36.762  1.00  0.00     0.009 A 
HETATM    3  C9  UNL     1     -11.628  58.374  36.450  1.00  0.00     0.013 A 
HETATM    4  C10 UNL     1     -12.821  58.987  36.809  1.00  0.00    -0.026 A 
HETATM    5  C17 UNL     1     -13.740  58.215  37.484  1.00  0.00     0.013 A 
HETATM    6  C18 UNL     1     -13.491  56.883  37.794  1.00  0.00     0.009 A 
ENDROOT
BRANCH   1   7
HETATM    7  C6  UNL     1     -11.979  54.847  37.741  1.00  0.00     0.112 C 
BRANCH   7   8
HETATM    8  S1  UNL     1     -12.085  54.446  39.473  1.00  0.00    -0.160 SA
BRANCH   8   9
HETATM    9  C5  UNL     1     -11.939  52.723  39.891  1.00  0.00     0.112 C 
BRANCH   9  10
HETATM   10  C4  UNL     1     -12.765  52.308  41.059  1.00  0.00    -0.049 A 
HETATM   11  C3  UNL     1     -13.992  51.715  40.988  1.00  0.00     0.008 A 
HETATM   12  C2  UNL     1     -14.637  51.369  42.153  1.00  0.00     0.001 A 
HETATM   13  C1  UNL     1     -14.072  51.609  43.385  1.00  0.00     0.000 A 
HETATM   14  C20 UNL     1     -12.824  52.212  43.453  1.00  0.00     0.001 A 
HETATM   15  C19 UNL     1     -12.188  52.553  42.302  1.00  0.00     0.008 A 
ENDBRANCH   9  10
ENDBRANCH   8   9
ENDBRANCH   7   8
ENDBRANCH   1   7
BRANCH   4  16
HETATM   16  C11 UNL     1     -13.077  60.394  36.484  1.00  0.00    -0.026 A 
HETATM   17  C12 UNL     1     -13.600  60.745  35.249  1.00  0.00     0.012 A 
HETATM   18  C13 UNL     1     -13.863  62.048  34.889  1.00  0.00     0.001 A 
HETATM   19  C14 UNL     1     -13.591  63.042  35.800  1.00  0.00     0.000 A 
HETATM   20  C15 UNL     1     -13.071  62.724  37.033  1.00  0.00     0.001 A 
HETATM   21  C16 UNL     1     -12.811  61.398  37.384  1.00  0.00     0.012 A 
ENDBRANCH   4  16
TORSDOF 5
ENDMDL
