MODEL 1
REMARK VINA RESULT: -9.101336089      0.000      0.000
REMARK  7 active torsions:
REMARK  status: ('A' for Active; 'I' for Inactive)
REMARK    1  A    between atoms: N1_1  and  N2_4 
REMARK    2  A    between atoms: N2_4  and  N3_5 
REMARK    3  A    between atoms: N3_5  and  C1_7 
REMARK    4  A    between atoms: C10_16  and  C11_17 
REMARK    5  A    between atoms: C11_17  and  C12_18 
REMARK    6  A    between atoms: C12_18  and  C13_19 
REMARK    7  A    between atoms: C13_19  and  C14_20 
ROOT
HETATM    1  C1  UNL     1     -11.497  52.945  38.996  1.00  0.00     0.145 C 
HETATM    2  C2  UNL     1     -12.719  52.274  38.574  1.00  0.00     0.002 C 
HETATM    3  C3  UNL     1     -13.645  51.829  39.371  1.00  0.00     0.010 C 
HETATM    4  C4  UNL     1     -13.461  52.019  40.807  1.00  0.00    -0.030 A 
HETATM    5  C5  UNL     1     -14.363  51.381  41.685  1.00  0.00     0.012 A 
HETATM    6  C6  UNL     1     -14.159  51.385  43.042  1.00  0.00     0.001 A 
HETATM    7  C7  UNL     1     -13.048  52.027  43.540  1.00  0.00     0.001 A 
HETATM    8  C8  UNL     1     -12.144  52.667  42.686  1.00  0.00     0.008 A 
HETATM    9  C9  UNL     1     -12.370  52.656  41.313  1.00  0.00    -0.041 A 
HETATM   10  C10 UNL     1     -11.486  53.466  40.410  1.00  0.00     0.048 C 
ENDROOT
BRANCH  10  11
HETATM   11  C11 UNL     1     -11.989  54.892  40.328  1.00  0.00     0.012 C 
BRANCH  11  12
HETATM   12  C12 UNL     1     -11.230  55.864  39.551  1.00  0.00     0.005 C 
BRANCH  12  13
HETATM   13  C13 UNL     1     -11.946  56.598  38.458  1.00  0.00     0.038 C 
BRANCH  13  14
HETATM   14  C14 UNL     1     -11.154  56.666  37.193  1.00  0.00    -0.058 A 
HETATM   15  C15 UNL     1     -11.040  57.846  36.523  1.00  0.00     0.007 A 
HETATM   16  C16 UNL     1     -10.306  57.951  35.338  1.00  0.00     0.001 A 
HETATM   17  C17 UNL     1      -9.694  56.814  34.864  1.00  0.00     0.000 A 
HETATM   18  C18 UNL     1      -9.804  55.632  35.528  1.00  0.00     0.001 A 
HETATM   19  C19 UNL     1     -10.526  55.548  36.683  1.00  0.00     0.007 A 
ENDBRANCH  13  14
ENDBRANCH  12  13
ENDBRANCH  11  12
ENDBRANCH  10  11
BRANCH   1  20
HETATM   20  N3  UNL     1     -10.395  51.980  38.865  1.00  0.00    -0.244 N 
ATOM     21  H3  UNL     1      -9.975  51.577  39.703  1.00  0.00     0.197 HD
BRANCH  20  22
HETATM   22  N2  UNL     1      -9.976  51.655  37.763  1.00  0.00    -0.248 NA
BRANCH  22  23
HETATM   23  N1  UNL     1      -9.707  51.470  36.590  1.00  0.00    -0.261 N 
ATOM     24  H12 UNL     1     -10.691  51.618  36.365  1.00  0.00     0.193 HD
ATOM     25  H11 UNL     1      -9.313  51.292  35.666  1.00  0.00     0.193 HD
ENDBRANCH  22  23
ENDBRANCH  20  22
ENDBRANCH   1  20
TORSDOF 7
ENDMDL
MODEL 2
REMARK VINA RESULT: -9.093207947      0.029      1.011
REMARK  7 active torsions:
REMARK  status: ('A' for Active; 'I' for Inactive)
REMARK    1  A    between atoms: N1_1  and  N2_4 
REMARK    2  A    between atoms: N2_4  and  N3_5 
REMARK    3  A    between atoms: N3_5  and  C1_7 
REMARK    4  A    between atoms: C10_16  and  C11_17 
REMARK    5  A    between atoms: C11_17  and  C12_18 
REMARK    6  A    between atoms: C12_18  and  C13_19 
REMARK    7  A    between atoms: C13_19  and  C14_20 
ROOT
HETATM    1  C1  UNL     1     -11.480  52.948  38.991  1.00  0.00     0.145 C 
HETATM    2  C2  UNL     1     -12.701  52.284  38.555  1.00  0.00     0.002 C 
HETATM    3  C3  UNL     1     -13.634  51.837  39.342  1.00  0.00     0.010 C 
HETATM    4  C4  UNL     1     -13.461  52.018  40.781  1.00  0.00    -0.030 A 
HETATM    5  C5  UNL     1     -14.372  51.377  41.647  1.00  0.00     0.012 A 
HETATM    6  C6  UNL     1     -14.179  51.371  43.006  1.00  0.00     0.001 A 
HETATM    7  C7  UNL     1     -13.070  52.007  43.517  1.00  0.00     0.001 A 
HETATM    8  C8  UNL     1     -12.156  52.649  42.674  1.00  0.00     0.008 A 
HETATM    9  C9  UNL     1     -12.372  52.648  41.299  1.00  0.00    -0.041 A 
HETATM   10  C10 UNL     1     -11.478  53.461  40.408  1.00  0.00     0.048 C 
ENDROOT
BRANCH  10  11
HETATM   11  C11 UNL     1     -11.976  54.889  40.332  1.00  0.00     0.012 C 
BRANCH  11  12
HETATM   12  C12 UNL     1     -11.217  55.859  39.553  1.00  0.00     0.005 C 
BRANCH  12  13
HETATM   13  C13 UNL     1     -11.936  56.596  38.463  1.00  0.00     0.038 C 
BRANCH  13  14
HETATM   14  C14 UNL     1     -11.145  56.669  37.196  1.00  0.00    -0.058 A 
HETATM   15  C15 UNL     1     -10.533  55.554  36.711  1.00  0.00     0.007 A 
HETATM   16  C16 UNL     1      -9.788  55.580  35.529  1.00  0.00     0.001 A 
HETATM   17  C17 UNL     1      -9.691  56.779  34.863  1.00  0.00     0.000 A 
HETATM   18  C18 UNL     1     -10.300  57.897  35.342  1.00  0.00     0.001 A 
HETATM   19  C19 UNL     1     -11.023  57.852  36.498  1.00  0.00     0.007 A 
ENDBRANCH  13  14
ENDBRANCH  12  13
ENDBRANCH  11  12
ENDBRANCH  10  11
BRANCH   1  20
HETATM   20  N3  UNL     1     -10.380  51.981  38.863  1.00  0.00    -0.244 N 
ATOM     21  H3  UNL     1      -9.961  51.579  39.701  1.00  0.00     0.197 HD
BRANCH  20  22
HETATM   22  N2  UNL     1      -9.962  51.652  37.761  1.00  0.00    -0.248 NA
BRANCH  22  23
HETATM   23  N1  UNL     1      -9.696  51.461  36.588  1.00  0.00    -0.261 N 
ATOM     24  H12 UNL     1     -10.387  50.711  36.577  1.00  0.00     0.193 HD
ATOM     25  H11 UNL     1      -9.355  51.437  35.627  1.00  0.00     0.193 HD
ENDBRANCH  22  23
ENDBRANCH  20  22
ENDBRANCH   1  20
TORSDOF 7
ENDMDL
MODEL 3
REMARK VINA RESULT: -8.964999807      2.490      7.211
REMARK  7 active torsions:
REMARK  status: ('A' for Active; 'I' for Inactive)
REMARK    1  A    between atoms: N1_1  and  N2_4 
REMARK    2  A    between atoms: N2_4  and  N3_5 
REMARK    3  A    between atoms: N3_5  and  C1_7 
REMARK    4  A    between atoms: C10_16  and  C11_17 
REMARK    5  A    between atoms: C11_17  and  C12_18 
REMARK    6  A    between atoms: C12_18  and  C13_19 
REMARK    7  A    between atoms: C13_19  and  C14_20 
ROOT
HETATM    1  C1  UNL     1     -12.299  56.705  39.169  1.00  0.00     0.145 C 
HETATM    2  C2  UNL     1     -12.910  57.925  38.659  1.00  0.00     0.002 C 
HETATM    3  C3  UNL     1     -12.617  58.495  37.528  1.00  0.00     0.010 C 
HETATM    4  C4  UNL     1     -11.603  57.866  36.686  1.00  0.00    -0.030 A 
HETATM    5  C5  UNL     1     -11.148  58.570  35.551  1.00  0.00     0.012 A 
HETATM    6  C6  UNL     1     -10.089  58.113  34.807  1.00  0.00     0.001 A 
HETATM    7  C7  UNL     1      -9.470  56.945  35.190  1.00  0.00     0.001 A 
HETATM    8  C8  UNL     1      -9.907  56.232  36.311  1.00  0.00     0.008 A 
HETATM    9  C9  UNL     1     -10.986  56.708  37.050  1.00  0.00    -0.041 A 
HETATM   10  C10 UNL     1     -11.551  55.871  38.161  1.00  0.00     0.048 C 
ENDROOT
BRANCH  10  11
HETATM   11  C11 UNL     1     -12.559  54.885  37.610  1.00  0.00     0.012 C 
BRANCH  11  12
HETATM   12  C12 UNL     1     -12.359  53.462  37.852  1.00  0.00     0.005 C 
BRANCH  12  13
HETATM   13  C13 UNL     1     -11.503  53.065  39.018  1.00  0.00     0.038 C 
BRANCH  13  14
HETATM   14  C14 UNL     1     -12.305  52.620  40.198  1.00  0.00    -0.058 A 
HETATM   15  C15 UNL     1     -11.815  52.790  41.457  1.00  0.00     0.007 A 
HETATM   16  C16 UNL     1     -12.536  52.391  42.586  1.00  0.00     0.001 A 
HETATM   17  C17 UNL     1     -13.768  51.815  42.386  1.00  0.00     0.000 A 
HETATM   18  C18 UNL     1     -14.263  51.642  41.131  1.00  0.00     0.001 A 
HETATM   19  C19 UNL     1     -13.546  52.038  40.040  1.00  0.00     0.007 A 
ENDBRANCH  13  14
ENDBRANCH  12  13
ENDBRANCH  11  12
ENDBRANCH  10  11
BRANCH   1  20
HETATM   20  N3  UNL     1     -11.350  57.092  40.223  1.00  0.00    -0.244 N 
ATOM     21  H3  UNL     1     -10.350  57.103  40.023  1.00  0.00     0.197 HD
BRANCH  20  22
HETATM   22  N2  UNL     1     -11.747  57.401  41.338  1.00  0.00    -0.248 NA
BRANCH  22  23
HETATM   23  N1  UNL     1     -12.315  57.787  42.344  1.00  0.00    -0.261 N 
ATOM     24  H12 UNL     1     -13.088  57.160  42.121  1.00  0.00     0.193 HD
ATOM     25  H11 UNL     1     -12.644  58.215  43.209  1.00  0.00     0.193 HD
ENDBRANCH  22  23
ENDBRANCH  20  22
ENDBRANCH   1  20
TORSDOF 7
ENDMDL
MODEL 4
REMARK VINA RESULT: -8.957299743      2.492      7.214
REMARK  7 active torsions:
REMARK  status: ('A' for Active; 'I' for Inactive)
REMARK    1  A    between atoms: N1_1  and  N2_4 
REMARK    2  A    between atoms: N2_4  and  N3_5 
REMARK    3  A    between atoms: N3_5  and  C1_7 
REMARK    4  A    between atoms: C10_16  and  C11_17 
REMARK    5  A    between atoms: C11_17  and  C12_18 
REMARK    6  A    between atoms: C12_18  and  C13_19 
REMARK    7  A    between atoms: C13_19  and  C14_20 
ROOT
HETATM    1  C1  UNL     1     -12.293  56.707  39.175  1.00  0.00     0.145 C 
HETATM    2  C2  UNL     1     -12.903  57.929  38.669  1.00  0.00     0.002 C 
HETATM    3  C3  UNL     1     -12.616  58.498  37.536  1.00  0.00     0.010 C 
HETATM    4  C4  UNL     1     -11.609  57.866  36.688  1.00  0.00    -0.030 A 
HETATM    5  C5  UNL     1     -11.159  58.568  35.551  1.00  0.00     0.012 A 
HETATM    6  C6  UNL     1     -10.105  58.109  34.800  1.00  0.00     0.001 A 
HETATM    7  C7  UNL     1      -9.487  56.939  35.179  1.00  0.00     0.001 A 
HETATM    8  C8  UNL     1      -9.920  56.227  36.303  1.00  0.00     0.008 A 
HETATM    9  C9  UNL     1     -10.993  56.707  37.049  1.00  0.00    -0.041 A 
HETATM   10  C10 UNL     1     -11.554  55.871  38.163  1.00  0.00     0.048 C 
ENDROOT
BRANCH  10  11
HETATM   11  C11 UNL     1     -12.568  54.887  37.618  1.00  0.00     0.012 C 
BRANCH  11  12
HETATM   12  C12 UNL     1     -12.360  53.463  37.842  1.00  0.00     0.005 C 
BRANCH  12  13
HETATM   13  C13 UNL     1     -11.497  53.056  38.998  1.00  0.00     0.038 C 
BRANCH  13  14
HETATM   14  C14 UNL     1     -12.292  52.626  40.189  1.00  0.00    -0.058 A 
HETATM   15  C15 UNL     1     -13.515  52.052  40.020  1.00  0.00     0.007 A 
HETATM   16  C16 UNL     1     -14.287  51.634  41.108  1.00  0.00     0.001 A 
HETATM   17  C17 UNL     1     -13.769  51.821  42.368  1.00  0.00     0.000 A 
HETATM   18  C18 UNL     1     -12.547  52.394  42.543  1.00  0.00     0.001 A 
HETATM   19  C19 UNL     1     -11.808  52.796  41.470  1.00  0.00     0.007 A 
ENDBRANCH  13  14
ENDBRANCH  12  13
ENDBRANCH  11  12
ENDBRANCH  10  11
BRANCH   1  20
HETATM   20  N3  UNL     1     -11.337  57.091  40.224  1.00  0.00    -0.244 N 
ATOM     21  H3  UNL     1     -10.337  57.082  40.023  1.00  0.00     0.197 HD
BRANCH  20  22
HETATM   22  N2  UNL     1     -11.727  57.422  41.335  1.00  0.00    -0.248 NA
BRANCH  22  23
HETATM   23  N1  UNL     1     -12.306  57.785  42.343  1.00  0.00    -0.261 N 
ATOM     24  H12 UNL     1     -12.903  56.962  42.270  1.00  0.00     0.193 HD
ATOM     25  H11 UNL     1     -12.676  58.230  43.184  1.00  0.00     0.193 HD
ENDBRANCH  22  23
ENDBRANCH  20  22
ENDBRANCH   1  20
TORSDOF 7
ENDMDL
MODEL 5
REMARK VINA RESULT: -8.934815858      2.834      4.245
REMARK  7 active torsions:
REMARK  status: ('A' for Active; 'I' for Inactive)
REMARK    1  A    between atoms: N1_1  and  N2_4 
REMARK    2  A    between atoms: N2_4  and  N3_5 
REMARK    3  A    between atoms: N3_5  and  C1_7 
REMARK    4  A    between atoms: C10_16  and  C11_17 
REMARK    5  A    between atoms: C11_17  and  C12_18 
REMARK    6  A    between atoms: C12_18  and  C13_19 
REMARK    7  A    between atoms: C13_19  and  C14_20 
ROOT
HETATM    1  C1  UNL     1     -14.229  53.827  40.595  1.00  0.00     0.145 C 
HETATM    2  C2  UNL     1     -14.183  52.391  40.836  1.00  0.00     0.002 C 
HETATM    3  C3  UNL     1     -13.432  51.546  40.193  1.00  0.00     0.010 C 
HETATM    4  C4  UNL     1     -12.553  52.067  39.150  1.00  0.00    -0.030 A 
HETATM    5  C5  UNL     1     -11.876  51.144  38.326  1.00  0.00     0.012 A 
HETATM    6  C6  UNL     1     -11.160  51.557  37.230  1.00  0.00     0.001 A 
HETATM    7  C7  UNL     1     -11.115  52.903  36.943  1.00  0.00     0.001 A 
HETATM    8  C8  UNL     1     -11.778  53.834  37.748  1.00  0.00     0.008 A 
HETATM    9  C9  UNL     1     -12.494  53.396  38.858  1.00  0.00    -0.041 A 
HETATM   10  C10 UNL     1     -13.080  54.401  39.807  1.00  0.00     0.048 C 
ENDROOT
BRANCH  10  11
HETATM   11  C11 UNL     1     -12.045  54.820  40.829  1.00  0.00     0.012 C 
BRANCH  11  12
HETATM   12  C12 UNL     1     -12.093  56.173  41.367  1.00  0.00     0.005 C 
BRANCH  12  13
HETATM   13  C13 UNL     1     -11.097  57.167  40.850  1.00  0.00     0.038 C 
BRANCH  13  14
HETATM   14  C14 UNL     1     -11.158  57.326  39.365  1.00  0.00    -0.058 A 
HETATM   15  C15 UNL     1     -10.152  56.841  38.585  1.00  0.00     0.007 A 
HETATM   16  C16 UNL     1     -10.174  56.967  37.194  1.00  0.00     0.001 A 
HETATM   17  C17 UNL     1     -11.254  57.603  36.628  1.00  0.00     0.000 A 
HETATM   18  C18 UNL     1     -12.262  58.090  37.401  1.00  0.00     0.001 A 
HETATM   19  C19 UNL     1     -12.224  57.959  38.758  1.00  0.00     0.007 A 
ENDBRANCH  13  14
ENDBRANCH  12  13
ENDBRANCH  11  12
ENDBRANCH  10  11
BRANCH   1  20
HETATM   20  N3  UNL     1     -15.468  54.112  39.855  1.00  0.00    -0.244 N 
ATOM     21  H3  UNL     1     -15.433  54.693  39.018  1.00  0.00     0.197 HD
BRANCH  20  22
HETATM   22  N2  UNL     1     -16.540  53.660  40.233  1.00  0.00    -0.248 NA
BRANCH  22  23
HETATM   23  N1  UNL     1     -17.665  53.418  40.629  1.00  0.00    -0.261 N 
ATOM     24  H12 UNL     1     -17.274  53.220  41.551  1.00  0.00     0.193 HD
ATOM     25  H11 UNL     1     -18.659  53.253  40.791  1.00  0.00     0.193 HD
ENDBRANCH  22  23
ENDBRANCH  20  22
ENDBRANCH   1  20
TORSDOF 7
ENDMDL
