MODEL 1
REMARK VINA RESULT: -9.118579006      0.000      0.000
REMARK  5 active torsions:
REMARK  status: ('A' for Active; 'I' for Inactive)
REMARK    1  A    between atoms: C4_4  and  C5_5 
REMARK    2  A    between atoms: C5_5  and  S1_6 
REMARK    3  A    between atoms: S1_6  and  C6_7 
REMARK    4  A    between atoms: C6_7  and  C7_8 
REMARK    5  A    between atoms: C12_13  and  C13_14 
ROOT
HETATM    1  C7  UNL     1     -12.771  53.845  39.399  1.00  0.00    -0.038 A 
HETATM    2  C8  UNL     1     -12.379  54.100  38.101  1.00  0.00     0.009 A 
HETATM    3  C9  UNL     1     -12.019  53.056  37.291  1.00  0.00     0.001 A 
HETATM    4  C10 UNL     1     -12.036  51.753  37.728  1.00  0.00     0.001 A 
HETATM    5  C11 UNL     1     -12.430  51.532  39.017  1.00  0.00     0.013 A 
HETATM    6  C12 UNL     1     -12.809  52.562  39.890  1.00  0.00    -0.019 A 
ENDROOT
BRANCH   1   7
HETATM    7  C6  UNL     1     -13.171  54.976  40.309  1.00  0.00     0.113 C 
BRANCH   7   8
HETATM    8  S1  UNL     1     -11.744  55.731  41.126  1.00  0.00    -0.160 SA
BRANCH   8   9
HETATM    9  C5  UNL     1     -11.494  57.421  40.566  1.00  0.00     0.112 C 
BRANCH   9  10
HETATM   10  C4  UNL     1     -11.275  57.457  39.096  1.00  0.00    -0.049 A 
HETATM   11  C3  UNL     1     -10.220  56.819  38.484  1.00  0.00     0.008 A 
HETATM   12  C2  UNL     1     -10.064  56.886  37.107  1.00  0.00     0.001 A 
HETATM   13  C1  UNL     1     -10.976  57.600  36.343  1.00  0.00     0.000 A 
HETATM   14  C20 UNL     1     -12.032  58.240  36.949  1.00  0.00     0.001 A 
HETATM   15  C19 UNL     1     -12.176  58.166  38.318  1.00  0.00     0.008 A 
ENDBRANCH   9  10
ENDBRANCH   8   9
ENDBRANCH   7   8
ENDBRANCH   1   7
BRANCH   6  16
HETATM   16  C13 UNL     1     -13.238  52.206  41.245  1.00  0.00    -0.025 A 
HETATM   17  C14 UNL     1     -14.520  51.692  41.397  1.00  0.00     0.012 A 
HETATM   18  C15 UNL     1     -15.027  51.352  42.630  1.00  0.00     0.001 A 
HETATM   19  C16 UNL     1     -14.266  51.515  43.766  1.00  0.00     0.000 A 
HETATM   20  C17 UNL     1     -12.981  52.026  43.643  1.00  0.00     0.001 A 
HETATM   21  C18 UNL     1     -12.500  52.360  42.382  1.00  0.00     0.012 A 
ENDBRANCH   6  16
TORSDOF 5
ENDMDL
MODEL 2
REMARK VINA RESULT: -9.111090198      0.056      1.043
REMARK  5 active torsions:
REMARK  status: ('A' for Active; 'I' for Inactive)
REMARK    1  A    between atoms: C4_4  and  C5_5 
REMARK    2  A    between atoms: C5_5  and  S1_6 
REMARK    3  A    between atoms: S1_6  and  C6_7 
REMARK    4  A    between atoms: C6_7  and  C7_8 
REMARK    5  A    between atoms: C12_13  and  C13_14 
ROOT
HETATM    1  C7  UNL     1     -12.770  53.819  39.390  1.00  0.00    -0.038 A 
HETATM    2  C8  UNL     1     -12.378  54.064  38.091  1.00  0.00     0.009 A 
HETATM    3  C9  UNL     1     -12.025  53.012  37.286  1.00  0.00     0.001 A 
HETATM    4  C10 UNL     1     -12.050  51.712  37.731  1.00  0.00     0.001 A 
HETATM    5  C11 UNL     1     -12.443  51.502  39.022  1.00  0.00     0.013 A 
HETATM    6  C12 UNL     1     -12.815  52.539  39.889  1.00  0.00    -0.019 A 
ENDROOT
BRANCH   1   7
HETATM    7  C6  UNL     1     -13.161  54.957  40.294  1.00  0.00     0.113 C 
BRANCH   7   8
HETATM    8  S1  UNL     1     -11.726  55.723  41.087  1.00  0.00    -0.160 SA
BRANCH   8   9
HETATM    9  C5  UNL     1     -11.543  57.438  40.581  1.00  0.00     0.112 C 
BRANCH   9  10
HETATM   10  C4  UNL     1     -11.366  57.531  39.107  1.00  0.00    -0.049 A 
HETATM   11  C3  UNL     1     -12.206  58.267  38.301  1.00  0.00     0.008 A 
HETATM   12  C2  UNL     1     -11.993  58.319  36.931  1.00  0.00     0.001 A 
HETATM   13  C1  UNL     1     -10.929  57.626  36.371  1.00  0.00     0.000 A 
HETATM   14  C20 UNL     1     -10.087  56.890  37.172  1.00  0.00     0.001 A 
HETATM   15  C19 UNL     1     -10.309  56.847  38.531  1.00  0.00     0.008 A 
ENDBRANCH   9  10
ENDBRANCH   8   9
ENDBRANCH   7   8
ENDBRANCH   1   7
BRANCH   6  16
HETATM   16  C13 UNL     1     -13.244  52.193  41.247  1.00  0.00    -0.025 A 
HETATM   17  C14 UNL     1     -14.526  51.681  41.403  1.00  0.00     0.012 A 
HETATM   18  C15 UNL     1     -15.033  51.351  42.638  1.00  0.00     0.001 A 
HETATM   19  C16 UNL     1     -14.273  51.522  43.773  1.00  0.00     0.000 A 
HETATM   20  C17 UNL     1     -12.987  52.032  43.646  1.00  0.00     0.001 A 
HETATM   21  C18 UNL     1     -12.506  52.356  42.383  1.00  0.00     0.012 A 
ENDBRANCH   6  16
TORSDOF 5
ENDMDL
MODEL 3
REMARK VINA RESULT: -9.089499414      0.107      1.468
REMARK  5 active torsions:
REMARK  status: ('A' for Active; 'I' for Inactive)
REMARK    1  A    between atoms: C4_4  and  C5_5 
REMARK    2  A    between atoms: C5_5  and  S1_6 
REMARK    3  A    between atoms: S1_6  and  C6_7 
REMARK    4  A    between atoms: C6_7  and  C7_8 
REMARK    5  A    between atoms: C12_13  and  C13_14 
ROOT
HETATM    1  C7  UNL     1     -12.781  53.802  39.329  1.00  0.00    -0.038 A 
HETATM    2  C8  UNL     1     -12.311  54.026  38.052  1.00  0.00     0.009 A 
HETATM    3  C9  UNL     1     -11.941  52.960  37.275  1.00  0.00     0.001 A 
HETATM    4  C10 UNL     1     -12.024  51.664  37.727  1.00  0.00     0.001 A 
HETATM    5  C11 UNL     1     -12.494  51.474  38.995  1.00  0.00     0.013 A 
HETATM    6  C12 UNL     1     -12.886  52.527  39.832  1.00  0.00    -0.019 A 
ENDROOT
BRANCH   1   7
HETATM    7  C6  UNL     1     -13.193  54.957  40.202  1.00  0.00     0.113 C 
BRANCH   7   8
HETATM    8  S1  UNL     1     -11.788  55.679  41.086  1.00  0.00    -0.160 SA
BRANCH   8   9
HETATM    9  C5  UNL     1     -11.502  57.378  40.571  1.00  0.00     0.112 C 
BRANCH   9  10
HETATM   10  C4  UNL     1     -11.344  57.457  39.095  1.00  0.00    -0.049 A 
HETATM   11  C3  UNL     1     -12.234  58.127  38.285  1.00  0.00     0.008 A 
HETATM   12  C2  UNL     1     -12.038  58.169  36.912  1.00  0.00     0.001 A 
HETATM   13  C1  UNL     1     -10.939  57.531  36.353  1.00  0.00     0.000 A 
HETATM   14  C20 UNL     1     -10.047  56.860  37.157  1.00  0.00     0.001 A 
HETATM   15  C19 UNL     1     -10.254  56.827  38.519  1.00  0.00     0.008 A 
ENDBRANCH   9  10
ENDBRANCH   8   9
ENDBRANCH   7   8
ENDBRANCH   1   7
BRANCH   6  16
HETATM   16  C13 UNL     1     -13.400  52.204  41.167  1.00  0.00    -0.025 A 
HETATM   17  C14 UNL     1     -12.528  52.345  42.240  1.00  0.00     0.012 A 
HETATM   18  C15 UNL     1     -12.904  52.042  43.528  1.00  0.00     0.001 A 
HETATM   19  C16 UNL     1     -14.174  51.583  43.794  1.00  0.00     0.000 A 
HETATM   20  C17 UNL     1     -15.066  51.432  42.740  1.00  0.00     0.001 A 
HETATM   21  C18 UNL     1     -14.653  51.747  41.450  1.00  0.00     0.012 A 
ENDBRANCH   6  16
TORSDOF 5
ENDMDL
MODEL 4
REMARK VINA RESULT: -8.979996404      1.360      7.138
REMARK  5 active torsions:
REMARK  status: ('A' for Active; 'I' for Inactive)
REMARK    1  A    between atoms: C4_4  and  C5_5 
REMARK    2  A    between atoms: C5_5  and  S1_6 
REMARK    3  A    between atoms: S1_6  and  C6_7 
REMARK    4  A    between atoms: C6_7  and  C7_8 
REMARK    5  A    between atoms: C12_13  and  C13_14 
ROOT
HETATM    1  C7  UNL     1     -12.136  55.551  39.143  1.00  0.00    -0.038 A 
HETATM    2  C8  UNL     1     -12.598  55.577  40.442  1.00  0.00     0.009 A 
HETATM    3  C9  UNL     1     -12.147  56.548  41.296  1.00  0.00     0.001 A 
HETATM    4  C10 UNL     1     -11.244  57.506  40.902  1.00  0.00     0.001 A 
HETATM    5  C11 UNL     1     -10.805  57.455  39.609  1.00  0.00     0.013 A 
HETATM    6  C12 UNL     1     -11.233  56.485  38.692  1.00  0.00    -0.019 A 
ENDROOT
BRANCH   1   7
HETATM    7  C6  UNL     1     -12.615  54.494  38.184  1.00  0.00     0.113 C 
BRANCH   7   8
HETATM    8  S1  UNL     1     -12.043  52.841  38.649  1.00  0.00    -0.160 SA
BRANCH   8   9
HETATM    9  C5  UNL     1     -13.392  51.846  39.299  1.00  0.00     0.112 C 
BRANCH   9  10
HETATM   10  C4  UNL     1     -13.404  51.889  40.786  1.00  0.00    -0.049 A 
HETATM   11  C3  UNL     1     -12.342  52.360  41.526  1.00  0.00     0.008 A 
HETATM   12  C2  UNL     1     -12.407  52.377  42.911  1.00  0.00     0.001 A 
HETATM   13  C1  UNL     1     -13.547  51.917  43.554  1.00  0.00     0.000 A 
HETATM   14  C20 UNL     1     -14.611  51.445  42.820  1.00  0.00     0.001 A 
HETATM   15  C19 UNL     1     -14.533  51.433  41.444  1.00  0.00     0.008 A 
ENDBRANCH   9  10
ENDBRANCH   8   9
ENDBRANCH   7   8
ENDBRANCH   1   7
BRANCH   6  16
HETATM   16  C13 UNL     1     -10.714  56.542  37.323  1.00  0.00    -0.025 A 
HETATM   17  C14 UNL     1     -10.798  57.758  36.656  1.00  0.00     0.012 A 
HETATM   18  C15 UNL     1     -10.364  57.909  35.359  1.00  0.00     0.001 A 
HETATM   19  C16 UNL     1      -9.825  56.843  34.675  1.00  0.00     0.000 A 
HETATM   20  C17 UNL     1      -9.728  55.615  35.318  1.00  0.00     0.001 A 
HETATM   21  C18 UNL     1     -10.177  55.498  36.629  1.00  0.00     0.012 A 
ENDBRANCH   6  16
TORSDOF 5
ENDMDL
MODEL 5
REMARK VINA RESULT: -8.978348732      1.360      7.169
REMARK  5 active torsions:
REMARK  status: ('A' for Active; 'I' for Inactive)
REMARK    1  A    between atoms: C4_4  and  C5_5 
REMARK    2  A    between atoms: C5_5  and  S1_6 
REMARK    3  A    between atoms: S1_6  and  C6_7 
REMARK    4  A    between atoms: C6_7  and  C7_8 
REMARK    5  A    between atoms: C12_13  and  C13_14 
ROOT
HETATM    1  C7  UNL     1     -12.125  55.533  39.176  1.00  0.00    -0.038 A 
HETATM    2  C8  UNL     1     -12.588  55.571  40.474  1.00  0.00     0.009 A 
HETATM    3  C9  UNL     1     -12.143  56.556  41.317  1.00  0.00     0.001 A 
HETATM    4  C10 UNL     1     -11.245  57.514  40.911  1.00  0.00     0.001 A 
HETATM    5  C11 UNL     1     -10.806  57.450  39.620  1.00  0.00     0.013 A 
HETATM    6  C12 UNL     1     -11.228  56.466  38.714  1.00  0.00    -0.019 A 
ENDROOT
BRANCH   1   7
HETATM    7  C6  UNL     1     -12.599  54.461  38.230  1.00  0.00     0.113 C 
BRANCH   7   8
HETATM    8  S1  UNL     1     -12.023  52.817  38.719  1.00  0.00    -0.160 SA
BRANCH   8   9
HETATM    9  C5  UNL     1     -13.384  51.801  39.309  1.00  0.00     0.112 C 
BRANCH   9  10
HETATM   10  C4  UNL     1     -13.456  51.836  40.794  1.00  0.00    -0.049 A 
HETATM   11  C3  UNL     1     -14.553  51.389  41.497  1.00  0.00     0.008 A 
HETATM   12  C2  UNL     1     -14.567  51.445  42.883  1.00  0.00     0.001 A 
HETATM   13  C1  UNL     1     -13.469  51.954  43.564  1.00  0.00     0.000 A 
HETATM   14  C20 UNL     1     -12.371  52.402  42.866  1.00  0.00     0.001 A 
HETATM   15  C19 UNL     1     -12.371  52.340  41.490  1.00  0.00     0.008 A 
ENDBRANCH   9  10
ENDBRANCH   8   9
ENDBRANCH   7   8
ENDBRANCH   1   7
BRANCH   6  16
HETATM   16  C13 UNL     1     -10.709  56.509  37.344  1.00  0.00    -0.025 A 
HETATM   17  C14 UNL     1     -10.778  57.723  36.671  1.00  0.00     0.012 A 
HETATM   18  C15 UNL     1     -10.343  57.862  35.374  1.00  0.00     0.001 A 
HETATM   19  C16 UNL     1      -9.818  56.786  34.695  1.00  0.00     0.000 A 
HETATM   20  C17 UNL     1      -9.737  55.560  35.343  1.00  0.00     0.001 A 
HETATM   21  C18 UNL     1     -10.187  55.455  36.655  1.00  0.00     0.012 A 
ENDBRANCH   6  16
TORSDOF 5
ENDMDL
