MODEL 1
REMARK VINA RESULT: -9.125115767      0.000      0.000
REMARK  5 active torsions:
REMARK  status: ('A' for Active; 'I' for Inactive)
REMARK    1  A    between atoms: C4_4  and  C5_5 
REMARK    2  A    between atoms: C5_5  and  C6_6 
REMARK    3  A    between atoms: C6_6  and  C7_7 
REMARK    4  A    between atoms: C7_7  and  C8_8 
REMARK    5  A    between atoms: C11_11  and  C12_12 
ROOT
HETATM    1  C8  UNL     1     -11.887  54.817  37.525  1.00  0.00    -0.058 A 
HETATM    2  C9  UNL     1     -10.833  55.545  37.040  1.00  0.00     0.008 A 
HETATM    3  C10 UNL     1     -10.997  56.896  36.816  1.00  0.00     0.013 A 
HETATM    4  C11 UNL     1     -12.189  57.546  37.062  1.00  0.00    -0.025 A 
HETATM    5  C16 UNL     1     -13.231  56.789  37.550  1.00  0.00     0.013 A 
HETATM    6  C17 UNL     1     -13.076  55.430  37.778  1.00  0.00     0.008 A 
ENDROOT
BRANCH   1   7
HETATM    7  C7  UNL     1     -11.739  53.363  37.775  1.00  0.00     0.039 C 
BRANCH   7   8
HETATM    8  C6  UNL     1     -12.601  52.991  38.950  1.00  0.00     0.009 C 
BRANCH   8   9
HETATM    9  C5  UNL     1     -11.786  52.745  40.200  1.00  0.00     0.039 C 
BRANCH   9  10
HETATM   10  C4  UNL     1     -12.725  52.286  41.250  1.00  0.00    -0.058 A 
HETATM   11  C3  UNL     1     -13.948  51.718  40.940  1.00  0.00     0.007 A 
HETATM   12  C2  UNL     1     -14.818  51.295  41.915  1.00  0.00     0.001 A 
HETATM   13  C1  UNL     1     -14.516  51.416  43.248  1.00  0.00     0.000 A 
HETATM   14  C19 UNL     1     -13.290  51.986  43.575  1.00  0.00     0.001 A 
HETATM   15  C18 UNL     1     -12.404  52.416  42.584  1.00  0.00     0.007 A 
ENDBRANCH   9  10
ENDBRANCH   8   9
ENDBRANCH   7   8
ENDBRANCH   1   7
BRANCH   4  16
HETATM   16  C12 UNL     1     -12.330  59.008  36.806  1.00  0.00    -0.019 A 
HETATM   17  C13 UNL     1     -12.828  59.849  37.722  1.00  0.00     0.020 A 
HETATM   18  C14 UNL     1     -12.910  61.174  37.378  1.00  0.00     0.050 A 
HETATM   19  S1  UNL     1     -12.290  61.197  35.791  1.00  0.00    -0.113 SA
HETATM   20  C15 UNL     1     -11.944  59.541  35.605  1.00  0.00     0.061 A 
ENDBRANCH   4  16
TORSDOF 5
ENDMDL
MODEL 2
REMARK VINA RESULT: -9.108300659      0.073      1.058
REMARK  5 active torsions:
REMARK  status: ('A' for Active; 'I' for Inactive)
REMARK    1  A    between atoms: C4_4  and  C5_5 
REMARK    2  A    between atoms: C5_5  and  C6_6 
REMARK    3  A    between atoms: C6_6  and  C7_7 
REMARK    4  A    between atoms: C7_7  and  C8_8 
REMARK    5  A    between atoms: C11_11  and  C12_12 
ROOT
HETATM    1  C8  UNL     1     -11.886  54.855  37.534  1.00  0.00    -0.058 A 
HETATM    2  C9  UNL     1     -10.834  55.580  37.039  1.00  0.00     0.008 A 
HETATM    3  C10 UNL     1     -10.997  56.930  36.813  1.00  0.00     0.013 A 
HETATM    4  C11 UNL     1     -12.185  57.583  37.068  1.00  0.00    -0.025 A 
HETATM    5  C16 UNL     1     -13.225  56.829  37.566  1.00  0.00     0.013 A 
HETATM    6  C17 UNL     1     -13.071  55.470  37.796  1.00  0.00     0.008 A 
ENDROOT
BRANCH   1   7
HETATM    7  C7  UNL     1     -11.739  53.401  37.786  1.00  0.00     0.039 C 
BRANCH   7   8
HETATM    8  C6  UNL     1     -12.577  53.037  38.980  1.00  0.00     0.009 C 
BRANCH   8   9
HETATM    9  C5  UNL     1     -11.735  52.784  40.211  1.00  0.00     0.039 C 
BRANCH   9  10
HETATM   10  C4  UNL     1     -12.653  52.333  41.283  1.00  0.00    -0.058 A 
HETATM   11  C3  UNL     1     -12.328  52.455  42.623  1.00  0.00     0.007 A 
HETATM   12  C2  UNL     1     -13.180  52.035  43.615  1.00  0.00     0.001 A 
HETATM   13  C1  UNL     1     -14.398  51.473  43.326  1.00  0.00     0.000 A 
HETATM   14  C19 UNL     1     -14.738  51.345  41.984  1.00  0.00     0.001 A 
HETATM   15  C18 UNL     1     -13.873  51.771  40.973  1.00  0.00     0.007 A 
ENDBRANCH   9  10
ENDBRANCH   8   9
ENDBRANCH   7   8
ENDBRANCH   1   7
BRANCH   4  16
HETATM   16  C12 UNL     1     -12.324  59.046  36.811  1.00  0.00    -0.019 A 
HETATM   17  C13 UNL     1     -12.828  59.887  37.724  1.00  0.00     0.020 A 
HETATM   18  C14 UNL     1     -12.908  61.211  37.378  1.00  0.00     0.050 A 
HETATM   19  S1  UNL     1     -12.279  61.234  35.794  1.00  0.00    -0.113 SA
HETATM   20  C15 UNL     1     -11.933  59.578  35.611  1.00  0.00     0.061 A 
ENDBRANCH   4  16
TORSDOF 5
ENDMDL
MODEL 3
REMARK VINA RESULT: -9.103914031      0.054      1.056
REMARK  5 active torsions:
REMARK  status: ('A' for Active; 'I' for Inactive)
REMARK    1  A    between atoms: C4_4  and  C5_5 
REMARK    2  A    between atoms: C5_5  and  C6_6 
REMARK    3  A    between atoms: C6_6  and  C7_7 
REMARK    4  A    between atoms: C7_7  and  C8_8 
REMARK    5  A    between atoms: C11_11  and  C12_12 
ROOT
HETATM    1  C8  UNL     1     -11.867  54.784  37.566  1.00  0.00    -0.058 A 
HETATM    2  C9  UNL     1     -13.066  55.401  37.802  1.00  0.00     0.008 A 
HETATM    3  C10 UNL     1     -13.186  56.753  37.555  1.00  0.00     0.013 A 
HETATM    4  C11 UNL     1     -12.137  57.512  37.078  1.00  0.00    -0.025 A 
HETATM    5  C16 UNL     1     -10.943  56.864  36.849  1.00  0.00     0.013 A 
HETATM    6  C17 UNL     1     -10.813  55.505  37.094  1.00  0.00     0.008 A 
ENDROOT
BRANCH   1   7
HETATM    7  C7  UNL     1     -11.710  53.332  37.822  1.00  0.00     0.039 C 
BRANCH   7   8
HETATM    8  C6  UNL     1     -12.583  52.957  38.987  1.00  0.00     0.009 C 
BRANCH   8   9
HETATM    9  C5  UNL     1     -11.788  52.778  40.261  1.00  0.00     0.039 C 
BRANCH   9  10
HETATM   10  C4  UNL     1     -12.731  52.303  41.301  1.00  0.00    -0.058 A 
HETATM   11  C3  UNL     1     -13.951  51.735  40.978  1.00  0.00     0.007 A 
HETATM   12  C2  UNL     1     -14.824  51.297  41.944  1.00  0.00     0.001 A 
HETATM   13  C1  UNL     1     -14.529  51.401  43.280  1.00  0.00     0.000 A 
HETATM   14  C19 UNL     1     -13.305  51.969  43.619  1.00  0.00     0.001 A 
HETATM   15  C18 UNL     1     -12.416  52.415  42.638  1.00  0.00     0.007 A 
ENDBRANCH   9  10
ENDBRANCH   8   9
ENDBRANCH   7   8
ENDBRANCH   1   7
BRANCH   4  16
HETATM   16  C12 UNL     1     -12.303  58.972  36.824  1.00  0.00    -0.019 A 
HETATM   17  C13 UNL     1     -12.795  59.807  37.749  1.00  0.00     0.020 A 
HETATM   18  C14 UNL     1     -12.902  61.129  37.405  1.00  0.00     0.050 A 
HETATM   19  S1  UNL     1     -12.313  61.160  35.806  1.00  0.00    -0.113 SA
HETATM   20  C15 UNL     1     -11.948  59.508  35.615  1.00  0.00     0.061 A 
ENDBRANCH   4  16
TORSDOF 5
ENDMDL
MODEL 4
REMARK VINA RESULT: -9.101210525      0.044      1.493
REMARK  5 active torsions:
REMARK  status: ('A' for Active; 'I' for Inactive)
REMARK    1  A    between atoms: C4_4  and  C5_5 
REMARK    2  A    between atoms: C5_5  and  C6_6 
REMARK    3  A    between atoms: C6_6  and  C7_7 
REMARK    4  A    between atoms: C7_7  and  C8_8 
REMARK    5  A    between atoms: C11_11  and  C12_12 
ROOT
HETATM    1  C8  UNL     1     -11.882  54.826  37.542  1.00  0.00    -0.058 A 
HETATM    2  C9  UNL     1     -13.073  55.450  37.803  1.00  0.00     0.008 A 
HETATM    3  C10 UNL     1     -13.190  56.803  37.562  1.00  0.00     0.013 A 
HETATM    4  C11 UNL     1     -12.147  57.556  37.065  1.00  0.00    -0.025 A 
HETATM    5  C16 UNL     1     -10.961  56.902  36.811  1.00  0.00     0.013 A 
HETATM    6  C17 UNL     1     -10.834  55.542  37.051  1.00  0.00     0.008 A 
ENDROOT
BRANCH   1   7
HETATM    7  C7  UNL     1     -11.729  53.372  37.793  1.00  0.00     0.039 C 
BRANCH   7   8
HETATM    8  C6  UNL     1     -12.582  52.999  38.973  1.00  0.00     0.009 C 
BRANCH   8   9
HETATM    9  C5  UNL     1     -11.761  52.783  40.224  1.00  0.00     0.039 C 
BRANCH   9  10
HETATM   10  C4  UNL     1     -12.691  52.322  41.282  1.00  0.00    -0.058 A 
HETATM   11  C3  UNL     1     -12.379  52.427  42.626  1.00  0.00     0.007 A 
HETATM   12  C2  UNL     1     -13.241  51.998  43.605  1.00  0.00     0.001 A 
HETATM   13  C1  UNL     1     -14.457  51.441  43.298  1.00  0.00     0.000 A 
HETATM   14  C19 UNL     1     -14.784  51.329  41.950  1.00  0.00     0.001 A 
HETATM   15  C18 UNL     1     -13.908  51.766  40.954  1.00  0.00     0.007 A 
ENDBRANCH   9  10
ENDBRANCH   8   9
ENDBRANCH   7   8
ENDBRANCH   1   7
BRANCH   4  16
HETATM   16  C12 UNL     1     -12.309  59.018  36.817  1.00  0.00    -0.019 A 
HETATM   17  C13 UNL     1     -12.818  59.847  37.739  1.00  0.00     0.020 A 
HETATM   18  C14 UNL     1     -12.920  61.171  37.401  1.00  0.00     0.050 A 
HETATM   19  S1  UNL     1     -12.303  61.212  35.813  1.00  0.00    -0.113 SA
HETATM   20  C15 UNL     1     -11.934  59.562  35.619  1.00  0.00     0.061 A 
ENDBRANCH   4  16
TORSDOF 5
ENDMDL
MODEL 5
REMARK VINA RESULT: -8.840748786      1.725      2.437
REMARK  5 active torsions:
REMARK  status: ('A' for Active; 'I' for Inactive)
REMARK    1  A    between atoms: C4_4  and  C5_5 
REMARK    2  A    between atoms: C5_5  and  C6_6 
REMARK    3  A    between atoms: C6_6  and  C7_7 
REMARK    4  A    between atoms: C7_7  and  C8_8 
REMARK    5  A    between atoms: C11_11  and  C12_12 
ROOT
HETATM    1  C8  UNL     1     -12.374  56.092  40.025  1.00  0.00    -0.058 A 
HETATM    2  C9  UNL     1     -13.416  55.698  39.228  1.00  0.00     0.008 A 
HETATM    3  C10 UNL     1     -13.798  56.502  38.175  1.00  0.00     0.013 A 
HETATM    4  C11 UNL     1     -13.168  57.697  37.892  1.00  0.00    -0.025 A 
HETATM    5  C16 UNL     1     -12.123  58.068  38.710  1.00  0.00     0.013 A 
HETATM    6  C17 UNL     1     -11.732  57.266  39.772  1.00  0.00     0.008 A 
ENDROOT
BRANCH   1   7
HETATM    7  C7  UNL     1     -11.942  55.247  41.164  1.00  0.00     0.039 C 
BRANCH   7   8
HETATM    8  C6  UNL     1     -12.037  53.805  40.751  1.00  0.00     0.009 C 
BRANCH   8   9
HETATM    9  C5  UNL     1     -11.671  52.864  41.877  1.00  0.00     0.039 C 
BRANCH   9  10
HETATM   10  C4  UNL     1     -12.920  52.196  42.312  1.00  0.00    -0.058 A 
HETATM   11  C3  UNL     1     -13.209  51.984  43.648  1.00  0.00     0.007 A 
HETATM   12  C2  UNL     1     -14.366  51.363  44.049  1.00  0.00     0.001 A 
HETATM   13  C1  UNL     1     -15.295  50.919  43.141  1.00  0.00     0.000 A 
HETATM   14  C19 UNL     1     -15.018  51.125  41.794  1.00  0.00     0.001 A 
HETATM   15  C18 UNL     1     -13.841  51.758  41.385  1.00  0.00     0.007 A 
ENDBRANCH   9  10
ENDBRANCH   8   9
ENDBRANCH   7   8
ENDBRANCH   1   7
BRANCH   4  16
HETATM   16  C12 UNL     1     -13.610  58.541  36.745  1.00  0.00    -0.019 A 
HETATM   17  C13 UNL     1     -14.899  58.665  36.403  1.00  0.00     0.020 A 
HETATM   18  C14 UNL     1     -15.189  59.468  35.331  1.00  0.00     0.050 A 
HETATM   19  S1  UNL     1     -13.654  60.022  34.840  1.00  0.00    -0.113 SA
HETATM   20  C15 UNL     1     -12.691  59.227  35.997  1.00  0.00     0.061 A 
ENDBRANCH   4  16
TORSDOF 5
ENDMDL
