MODEL 1
REMARK VINA RESULT: -8.745599774      0.000      0.000
REMARK  5 active torsions:
REMARK  status: ('A' for Active; 'I' for Inactive)
REMARK    1  A    between atoms: C4_4  and  C5_5 
REMARK    2  A    between atoms: C5_5  and  C6_6 
REMARK    3  A    between atoms: C6_6  and  C7_7 
REMARK    4  A    between atoms: C7_7  and  C8_8 
REMARK    5  A    between atoms: C7_7  and  C14_14 
ROOT
HETATM    1  C7  UNL     1     -12.583  57.980  37.791  1.00  0.00     0.059 C 
ENDROOT
BRANCH   1   2
HETATM    2  C6  UNL     1     -12.644  59.454  38.007  1.00  0.00     0.019 C 
BRANCH   2   3
HETATM    3  C5  UNL     1     -13.961  60.095  37.724  1.00  0.00     0.039 C 
BRANCH   3   4
HETATM    4  C4  UNL     1     -13.906  61.307  36.890  1.00  0.00    -0.058 A 
HETATM    5  C3  UNL     1     -13.322  62.461  37.424  1.00  0.00     0.007 A 
HETATM    6  C2  UNL     1     -13.256  63.626  36.680  1.00  0.00     0.001 A 
HETATM    7  C1  UNL     1     -13.762  63.677  35.397  1.00  0.00     0.000 A 
HETATM    8  C19 UNL     1     -14.341  62.545  34.859  1.00  0.00     0.001 A 
HETATM    9  C18 UNL     1     -14.396  61.387  35.626  1.00  0.00     0.007 A 
ENDBRANCH   3   4
ENDBRANCH   2   3
ENDBRANCH   1   2
BRANCH   1  10
HETATM   10  C8  UNL     1     -11.554  57.571  36.813  1.00  0.00    -0.049 A 
HETATM   11  C9  UNL     1     -11.068  58.460  35.890  1.00  0.00     0.008 A 
HETATM   12  C10 UNL     1     -10.093  58.057  34.969  1.00  0.00     0.001 A 
HETATM   13  C11 UNL     1      -9.609  56.776  34.975  1.00  0.00     0.000 A 
HETATM   14  C12 UNL     1     -10.093  55.877  35.902  1.00  0.00     0.001 A 
HETATM   15  C13 UNL     1     -11.042  56.287  36.790  1.00  0.00     0.008 A 
ENDBRANCH   1  10
BRANCH   1  16
HETATM   16  C14 UNL     1     -12.248  57.259  39.074  1.00  0.00    -0.009 A 
HETATM   17  C15 UNL     1     -11.301  57.614  39.995  1.00  0.00     0.016 A 
HETATM   18  C16 UNL     1     -11.174  56.820  41.071  1.00  0.00     0.008 A 
HETATM   19  C17 UNL     1     -11.996  55.730  41.156  1.00  0.00     0.050 A 
HETATM   20  S1  UNL     1     -12.924  55.845  39.730  1.00  0.00    -0.106 SA
ENDBRANCH   1  16
TORSDOF 5
ENDMDL
MODEL 2
REMARK VINA RESULT: -8.724545154      0.043      1.059
REMARK  5 active torsions:
REMARK  status: ('A' for Active; 'I' for Inactive)
REMARK    1  A    between atoms: C4_4  and  C5_5 
REMARK    2  A    between atoms: C5_5  and  C6_6 
REMARK    3  A    between atoms: C6_6  and  C7_7 
REMARK    4  A    between atoms: C7_7  and  C8_8 
REMARK    5  A    between atoms: C7_7  and  C14_14 
ROOT
HETATM    1  C7  UNL     1     -12.600  57.946  37.804  1.00  0.00     0.059 C 
ENDROOT
BRANCH   1   2
HETATM    2  C6  UNL     1     -12.666  59.418  38.028  1.00  0.00     0.019 C 
BRANCH   2   3
HETATM    3  C5  UNL     1     -13.971  60.064  37.706  1.00  0.00     0.039 C 
BRANCH   3   4
HETATM    4  C4  UNL     1     -13.882  61.324  36.950  1.00  0.00    -0.058 A 
HETATM    5  C3  UNL     1     -14.389  61.360  35.646  1.00  0.00     0.007 A 
HETATM    6  C2  UNL     1     -14.318  62.519  34.894  1.00  0.00     0.001 A 
HETATM    7  C1  UNL     1     -13.749  63.665  35.411  1.00  0.00     0.000 A 
HETATM    8  C19 UNL     1     -13.245  63.642  36.697  1.00  0.00     0.001 A 
HETATM    9  C18 UNL     1     -13.327  62.466  37.431  1.00  0.00     0.007 A 
ENDBRANCH   3   4
ENDBRANCH   2   3
ENDBRANCH   1   2
BRANCH   1  10
HETATM   10  C8  UNL     1     -11.565  57.546  36.830  1.00  0.00    -0.049 A 
HETATM   11  C9  UNL     1     -11.064  58.446  35.925  1.00  0.00     0.008 A 
HETATM   12  C10 UNL     1     -10.083  58.050  35.008  1.00  0.00     0.001 A 
HETATM   13  C11 UNL     1      -9.608  56.765  34.997  1.00  0.00     0.000 A 
HETATM   14  C12 UNL     1     -10.108  55.856  35.904  1.00  0.00     0.001 A 
HETATM   15  C13 UNL     1     -11.062  56.258  36.790  1.00  0.00     0.008 A 
ENDBRANCH   1  10
BRANCH   1  16
HETATM   16  C14 UNL     1     -12.270  57.218  39.085  1.00  0.00    -0.009 A 
HETATM   17  C15 UNL     1     -11.330  57.572  40.014  1.00  0.00     0.016 A 
HETATM   18  C16 UNL     1     -11.207  56.771  41.086  1.00  0.00     0.008 A 
HETATM   19  C17 UNL     1     -12.025  55.677  41.159  1.00  0.00     0.050 A 
HETATM   20  S1  UNL     1     -12.944  55.798  39.727  1.00  0.00    -0.106 SA
ENDBRANCH   1  16
TORSDOF 5
ENDMDL
MODEL 3
REMARK VINA RESULT: -8.571175863      3.759      8.314
REMARK  5 active torsions:
REMARK  status: ('A' for Active; 'I' for Inactive)
REMARK    1  A    between atoms: C4_4  and  C5_5 
REMARK    2  A    between atoms: C5_5  and  C6_6 
REMARK    3  A    between atoms: C6_6  and  C7_7 
REMARK    4  A    between atoms: C7_7  and  C8_8 
REMARK    5  A    between atoms: C7_7  and  C14_14 
ROOT
HETATM    1  C7  UNL     1     -12.797  54.221  39.771  1.00  0.00     0.059 C 
ENDROOT
BRANCH   1   2
HETATM    2  C6  UNL     1     -12.147  54.101  41.107  1.00  0.00     0.019 C 
BRANCH   2   3
HETATM    3  C5  UNL     1     -11.941  52.709  41.604  1.00  0.00     0.039 C 
BRANCH   3   4
HETATM    4  C4  UNL     1     -13.131  52.065  42.184  1.00  0.00    -0.058 A 
HETATM    5  C3  UNL     1     -13.276  52.055  43.575  1.00  0.00     0.007 A 
HETATM    6  C2  UNL     1     -14.373  51.453  44.165  1.00  0.00     0.001 A 
HETATM    7  C1  UNL     1     -15.349  50.850  43.398  1.00  0.00     0.000 A 
HETATM    8  C19 UNL     1     -15.216  50.852  42.023  1.00  0.00     0.001 A 
HETATM    9  C18 UNL     1     -14.106  51.463  41.454  1.00  0.00     0.007 A 
ENDBRANCH   3   4
ENDBRANCH   2   3
ENDBRANCH   1   2
BRANCH   1  10
HETATM   10  C8  UNL     1     -12.712  55.580  39.197  1.00  0.00    -0.049 A 
HETATM   11  C9  UNL     1     -11.888  56.527  39.748  1.00  0.00     0.008 A 
HETATM   12  C10 UNL     1     -11.819  57.810  39.191  1.00  0.00     0.001 A 
HETATM   13  C11 UNL     1     -12.569  58.140  38.093  1.00  0.00     0.000 A 
HETATM   14  C12 UNL     1     -13.399  57.192  37.535  1.00  0.00     0.001 A 
HETATM   15  C13 UNL     1     -13.453  55.949  38.089  1.00  0.00     0.008 A 
ENDBRANCH   1  10
BRANCH   1  16
HETATM   16  C14 UNL     1     -12.144  53.303  38.767  1.00  0.00    -0.009 A 
HETATM   17  C15 UNL     1     -12.632  52.114  38.301  1.00  0.00     0.016 A 
HETATM   18  C16 UNL     1     -11.876  51.458  37.403  1.00  0.00     0.008 A 
HETATM   19  C17 UNL     1     -10.690  52.030  37.034  1.00  0.00     0.050 A 
HETATM   20  S1  UNL     1     -10.663  53.468  37.951  1.00  0.00    -0.106 SA
ENDBRANCH   1  16
TORSDOF 5
ENDMDL
MODEL 4
REMARK VINA RESULT: -8.370459536      4.318      7.282
REMARK  5 active torsions:
REMARK  status: ('A' for Active; 'I' for Inactive)
REMARK    1  A    between atoms: C4_4  and  C5_5 
REMARK    2  A    between atoms: C5_5  and  C6_6 
REMARK    3  A    between atoms: C6_6  and  C7_7 
REMARK    4  A    between atoms: C7_7  and  C8_8 
REMARK    5  A    between atoms: C7_7  and  C14_14 
ROOT
HETATM    1  C7  UNL     1     -13.013  53.671  40.293  1.00  0.00     0.059 C 
ENDROOT
BRANCH   1   2
HETATM    2  C6  UNL     1     -14.149  54.354  39.612  1.00  0.00     0.019 C 
BRANCH   2   3
HETATM    3  C5  UNL     1     -13.931  55.790  39.271  1.00  0.00     0.039 C 
BRANCH   3   4
HETATM    4  C4  UNL     1     -12.615  56.109  38.696  1.00  0.00    -0.058 A 
HETATM    5  C3  UNL     1     -12.389  55.828  37.344  1.00  0.00     0.007 A 
HETATM    6  C2  UNL     1     -11.164  56.102  36.762  1.00  0.00     0.001 A 
HETATM    7  C1  UNL     1     -10.139  56.660  37.498  1.00  0.00     0.000 A 
HETATM    8  C19 UNL     1     -10.349  56.941  38.834  1.00  0.00     0.001 A 
HETATM    9  C18 UNL     1     -11.587  56.656  39.396  1.00  0.00     0.007 A 
ENDBRANCH   3   4
ENDBRANCH   2   3
ENDBRANCH   1   2
BRANCH   1  10
HETATM   10  C8  UNL     1     -13.416  52.918  41.498  1.00  0.00    -0.049 A 
HETATM   11  C9  UNL     1     -12.515  52.652  42.496  1.00  0.00     0.008 A 
HETATM   12  C10 UNL     1     -12.914  51.936  43.632  1.00  0.00     0.001 A 
HETATM   13  C11 UNL     1     -14.203  51.493  43.766  1.00  0.00     0.000 A 
HETATM   14  C12 UNL     1     -15.113  51.757  42.766  1.00  0.00     0.001 A 
HETATM   15  C13 UNL     1     -14.708  52.455  41.668  1.00  0.00     0.008 A 
ENDBRANCH   1  10
BRANCH   1  16
HETATM   16  C14 UNL     1     -12.355  52.668  39.376  1.00  0.00    -0.009 A 
HETATM   17  C15 UNL     1     -12.900  51.507  38.902  1.00  0.00     0.016 A 
HETATM   18  C16 UNL     1     -12.128  50.762  38.092  1.00  0.00     0.008 A 
HETATM   19  C17 UNL     1     -10.871  51.224  37.812  1.00  0.00     0.050 A 
HETATM   20  S1  UNL     1     -10.803  52.687  38.687  1.00  0.00    -0.106 SA
ENDBRANCH   1  16
TORSDOF 5
ENDMDL
MODEL 5
REMARK VINA RESULT: -8.345641366      4.315      7.210
REMARK  5 active torsions:
REMARK  status: ('A' for Active; 'I' for Inactive)
REMARK    1  A    between atoms: C4_4  and  C5_5 
REMARK    2  A    between atoms: C5_5  and  C6_6 
REMARK    3  A    between atoms: C6_6  and  C7_7 
REMARK    4  A    between atoms: C7_7  and  C8_8 
REMARK    5  A    between atoms: C7_7  and  C14_14 
ROOT
HETATM    1  C7  UNL     1     -13.021  53.664  40.314  1.00  0.00     0.059 C 
ENDROOT
BRANCH   1   2
HETATM    2  C6  UNL     1     -14.142  54.369  39.629  1.00  0.00     0.019 C 
BRANCH   2   3
HETATM    3  C5  UNL     1     -13.897  55.802  39.294  1.00  0.00     0.039 C 
BRANCH   3   4
HETATM    4  C4  UNL     1     -12.608  56.085  38.640  1.00  0.00    -0.058 A 
HETATM    5  C3  UNL     1     -11.586  56.665  39.399  1.00  0.00     0.007 A 
HETATM    6  C2  UNL     1     -10.361  56.957  38.825  1.00  0.00     0.001 A 
HETATM    7  C1  UNL     1     -10.119  56.683  37.494  1.00  0.00     0.000 A 
HETATM    8  C19 UNL     1     -11.121  56.111  36.735  1.00  0.00     0.001 A 
HETATM    9  C18 UNL     1     -12.342  55.828  37.334  1.00  0.00     0.007 A 
ENDBRANCH   3   4
ENDBRANCH   2   3
ENDBRANCH   1   2
BRANCH   1  10
HETATM   10  C8  UNL     1     -13.445  52.911  41.512  1.00  0.00    -0.049 A 
HETATM   11  C9  UNL     1     -14.738  52.479  41.651  1.00  0.00     0.008 A 
HETATM   12  C10 UNL     1     -15.124  51.767  42.793  1.00  0.00     0.001 A 
HETATM   13  C11 UNL     1     -14.222  51.491  43.786  1.00  0.00     0.000 A 
HETATM   14  C12 UNL     1     -12.920  51.923  43.653  1.00  0.00     0.001 A 
HETATM   15  C13 UNL     1     -12.562  52.614  42.534  1.00  0.00     0.008 A 
ENDBRANCH   1  10
BRANCH   1  16
HETATM   16  C14 UNL     1     -12.375  52.656  39.395  1.00  0.00    -0.009 A 
HETATM   17  C15 UNL     1     -12.929  51.496  38.927  1.00  0.00     0.016 A 
HETATM   18  C16 UNL     1     -12.165  50.745  38.115  1.00  0.00     0.008 A 
HETATM   19  C17 UNL     1     -10.908  51.198  37.827  1.00  0.00     0.050 A 
HETATM   20  S1  UNL     1     -10.826  52.663  38.699  1.00  0.00    -0.106 SA
ENDBRANCH   1  16
TORSDOF 5
ENDMDL
