MODEL 1
REMARK VINA RESULT: -7.506196925      0.000      0.000
REMARK  8 active torsions:
REMARK  status: ('A' for Active; 'I' for Inactive)
REMARK    1  A    between atoms: C6_6  and  O1_7 
REMARK    2  A    between atoms: O1_7  and  C7_8 
REMARK    3  A    between atoms: C7_8  and  C8_9 
REMARK    4  A    between atoms: C8_9  and  O2_10 
REMARK    5  A    between atoms: C10_13  and  C11_14 
REMARK    6  A    between atoms: C11_14  and  C13_16 
REMARK       I    between atoms: N1_20  and  C14_21 
REMARK    7  A    between atoms: C14_21  and  O4_23 
REMARK    8  A    between atoms: O4_23  and  C15_24 
ROOT
HETATM    1  C1  UNL     1      21.085   5.748  11.371  1.00  0.00     0.014 C 
HETATM    2  C2  UNL     1      19.777   5.813  11.548  1.00  0.00    -0.084 C 
HETATM    3  C3  UNL     1      18.932   5.991  10.349  1.00  0.00     0.059 C 
HETATM    4  C4  UNL     1      17.550   5.506  10.665  1.00  0.00     0.097 C 
HETATM    5  C5  UNL     1      17.710   4.383  11.667  1.00  0.00     0.066 C 
HETATM    6  C6  UNL     1      17.809   5.168  12.971  1.00  0.00     0.087 C 
HETATM    7  C9  UNL     1      19.197   5.708  12.936  1.00  0.00     0.073 C 
HETATM    8  C10 UNL     1      16.712   6.139  12.731  1.00  0.00     0.137 C 
HETATM    9  N1  UNL     1      16.883   6.586  11.373  1.00  0.00    -0.315 N 
HETATM   10  C14 UNL     1      16.522   7.783  10.702  1.00  0.00     0.364 C 
HETATM   11  O3  UNL     1      16.791   7.887   9.450  1.00  0.00    -0.238 OA
ENDROOT
BRANCH   8  12
HETATM   12  C11 UNL     1      16.332   7.167  13.679  1.00  0.00     0.115 C 
HETATM   13  C12 UNL     1      17.381   7.660  14.633  1.00  0.00     0.021 C 
BRANCH  12  14
HETATM   14  C13 UNL     1      15.102   6.894  14.548  1.00  0.00     0.393 C 
HETATM   15  F1  UNL     1      14.682   5.595  14.495  1.00  0.00    -0.171 F 
HETATM   16  F2  UNL     1      14.001   7.597  13.945  1.00  0.00    -0.171 F 
HETATM   17  F3  UNL     1      15.161   7.460  15.788  1.00  0.00    -0.171 F 
ENDBRANCH  12  14
ENDBRANCH   8  12
BRANCH  10  18
HETATM   18  O4  UNL     1      15.899   8.883  11.239  1.00  0.00    -0.294 OA
BRANCH  18  19
HETATM   19  C15 UNL     1      14.769   9.502  10.694  1.00  0.00     0.061 C 
HETATM   20  C16 UNL     1      15.149  10.918  10.273  1.00  0.00     0.046 C 
HETATM   21  C17 UNL     1      13.627   9.610  11.663  1.00  0.00     0.046 C 
HETATM   22  C18 UNL     1      14.254   8.809   9.448  1.00  0.00     0.046 C 
ENDBRANCH  18  19
ENDBRANCH  10  18
BRANCH   6  23
HETATM   23  O1  UNL     1      17.489   4.362  13.967  1.00  0.00    -0.376 OA
BRANCH  23  24
HETATM   24  C7  UNL     1      16.868   3.226  14.063  1.00  0.00     0.195 C 
BRANCH  24  25
HETATM   25  C8  UNL     1      16.737   2.582  15.399  1.00  0.00     0.190 C 
BRANCH  25  26
HETATM   26  O2  UNL     1      17.815   3.037  16.231  1.00  0.00    -0.399 OA
ATOM     27  H2  UNL     1      17.462   3.269  17.082  1.00  0.00     0.209 HD
ENDBRANCH  25  26
ENDBRANCH  24  25
ENDBRANCH  23  24
ENDBRANCH   6  23
TORSDOF 8
ENDMDL
MODEL 2
REMARK VINA RESULT: -7.289392032      1.866      2.562
REMARK  8 active torsions:
REMARK  status: ('A' for Active; 'I' for Inactive)
REMARK    1  A    between atoms: C6_6  and  O1_7 
REMARK    2  A    between atoms: O1_7  and  C7_8 
REMARK    3  A    between atoms: C7_8  and  C8_9 
REMARK    4  A    between atoms: C8_9  and  O2_10 
REMARK    5  A    between atoms: C10_13  and  C11_14 
REMARK    6  A    between atoms: C11_14  and  C13_16 
REMARK       I    between atoms: N1_20  and  C14_21 
REMARK    7  A    between atoms: C14_21  and  O4_23 
REMARK    8  A    between atoms: O4_23  and  C15_24 
ROOT
HETATM    1  C1  UNL     1      20.236   3.986  10.582  1.00  0.00     0.014 C 
HETATM    2  C2  UNL     1      19.181   4.635  11.043  1.00  0.00    -0.084 C 
HETATM    3  C3  UNL     1      18.588   5.678  10.180  1.00  0.00     0.059 C 
HETATM    4  C4  UNL     1      17.165   5.889  10.600  1.00  0.00     0.097 C 
HETATM    5  C5  UNL     1      16.667   4.554  11.110  1.00  0.00     0.066 C 
HETATM    6  C6  UNL     1      17.171   4.587  12.549  1.00  0.00     0.087 C 
HETATM    7  C9  UNL     1      18.625   4.302  12.405  1.00  0.00     0.073 C 
HETATM    8  C10 UNL     1      16.796   5.983  12.886  1.00  0.00     0.137 C 
HETATM    9  N1  UNL     1      17.200   6.775  11.753  1.00  0.00    -0.315 N 
HETATM   10  C14 UNL     1      17.569   8.137  11.613  1.00  0.00     0.364 C 
HETATM   11  O3  UNL     1      17.863   8.575  10.442  1.00  0.00    -0.238 OA
ENDROOT
BRANCH   8  12
HETATM   12  C11 UNL     1      17.039   6.586  14.181  1.00  0.00     0.115 C 
HETATM   13  C12 UNL     1      18.046   5.930  15.080  1.00  0.00     0.021 C 
BRANCH  12  14
HETATM   14  C13 UNL     1      15.820   6.841  15.071  1.00  0.00     0.393 C 
HETATM   15  F1  UNL     1      15.367   5.716  15.699  1.00  0.00    -0.171 F 
HETATM   16  F2  UNL     1      14.726   7.166  14.195  1.00  0.00    -0.171 F 
HETATM   17  F3  UNL     1      15.917   7.965  15.839  1.00  0.00    -0.171 F 
ENDBRANCH  12  14
ENDBRANCH   8  12
BRANCH  10  18
HETATM   18  O4  UNL     1      17.653   9.082  12.607  1.00  0.00    -0.294 OA
BRANCH  18  19
HETATM   19  C15 UNL     1      18.844   9.493  13.214  1.00  0.00     0.061 C 
HETATM   20  C16 UNL     1      19.222  10.864  12.660  1.00  0.00     0.046 C 
HETATM   21  C17 UNL     1      19.995   8.567  12.949  1.00  0.00     0.046 C 
HETATM   22  C18 UNL     1      18.720   9.658  14.716  1.00  0.00     0.046 C 
ENDBRANCH  18  19
ENDBRANCH  10  18
BRANCH   6  23
HETATM   23  O1  UNL     1      16.447   3.742  13.262  1.00  0.00    -0.376 OA
BRANCH  23  24
HETATM   24  C7  UNL     1      16.703   2.669  13.949  1.00  0.00     0.195 C 
BRANCH  24  25
HETATM   25  C8  UNL     1      16.419   2.661  15.411  1.00  0.00     0.190 C 
BRANCH  25  26
HETATM   26  O2  UNL     1      17.665   2.575  16.117  1.00  0.00    -0.399 OA
ATOM     27  H2  UNL     1      17.482   2.376  17.028  1.00  0.00     0.209 HD
ENDBRANCH  25  26
ENDBRANCH  24  25
ENDBRANCH  23  24
ENDBRANCH   6  23
TORSDOF 8
ENDMDL
MODEL 3
REMARK VINA RESULT: -7.194066862      3.504      5.142
REMARK  8 active torsions:
REMARK  status: ('A' for Active; 'I' for Inactive)
REMARK    1  A    between atoms: C6_6  and  O1_7 
REMARK    2  A    between atoms: O1_7  and  C7_8 
REMARK    3  A    between atoms: C7_8  and  C8_9 
REMARK    4  A    between atoms: C8_9  and  O2_10 
REMARK    5  A    between atoms: C10_13  and  C11_14 
REMARK    6  A    between atoms: C11_14  and  C13_16 
REMARK       I    between atoms: N1_20  and  C14_21 
REMARK    7  A    between atoms: C14_21  and  O4_23 
REMARK    8  A    between atoms: O4_23  and  C15_24 
ROOT
HETATM    1  C1  UNL     1      14.796   7.178  15.147  1.00  0.00     0.014 C 
HETATM    2  C2  UNL     1      15.861   6.544  14.688  1.00  0.00    -0.084 C 
HETATM    3  C3  UNL     1      17.156   7.254  14.743  1.00  0.00     0.059 C 
HETATM    4  C4  UNL     1      18.257   6.238  14.709  1.00  0.00     0.097 C 
HETATM    5  C5  UNL     1      17.719   5.002  15.398  1.00  0.00     0.066 C 
HETATM    6  C6  UNL     1      16.970   4.332  14.250  1.00  0.00     0.087 C 
HETATM    7  C9  UNL     1      15.729   5.148  14.135  1.00  0.00     0.073 C 
HETATM    8  C10 UNL     1      17.986   4.514  13.184  1.00  0.00     0.137 C 
HETATM    9  N1  UNL     1      18.444   5.873  13.314  1.00  0.00    -0.315 N 
HETATM   10  C14 UNL     1      18.998   6.795  12.389  1.00  0.00     0.364 C 
HETATM   11  O3  UNL     1      19.342   7.957  12.814  1.00  0.00    -0.238 OA
ENDROOT
BRANCH   8  12
HETATM   12  C11 UNL     1      17.811   4.047  11.823  1.00  0.00     0.115 C 
HETATM   13  C12 UNL     1      16.411   3.979  11.283  1.00  0.00     0.021 C 
BRANCH  12  14
HETATM   14  C13 UNL     1      18.442   2.701  11.461  1.00  0.00     0.393 C 
HETATM   15  F1  UNL     1      19.805   2.751  11.373  1.00  0.00    -0.171 F 
HETATM   16  F2  UNL     1      18.058   2.413  10.105  1.00  0.00    -0.171 F 
HETATM   17  F3  UNL     1      17.918   1.640  12.140  1.00  0.00    -0.171 F 
ENDBRANCH  12  14
ENDBRANCH   8  12
BRANCH  10  18
HETATM   18  O4  UNL     1      19.225   6.594  11.049  1.00  0.00    -0.294 OA
BRANCH  18  19
HETATM   19  C15 UNL     1      20.486   6.395  10.477  1.00  0.00     0.061 C 
HETATM   20  C16 UNL     1      20.332   5.466   9.276  1.00  0.00     0.046 C 
HETATM   21  C17 UNL     1      21.470   5.759  11.416  1.00  0.00     0.046 C 
HETATM   22  C18 UNL     1      21.109   7.673   9.951  1.00  0.00     0.046 C 
ENDBRANCH  18  19
ENDBRANCH  10  18
BRANCH   6  23
HETATM   23  O1  UNL     1      16.838   3.049  14.533  1.00  0.00    -0.376 OA
BRANCH  23  24
HETATM   24  C7  UNL     1      16.654   2.364  15.621  1.00  0.00     0.195 C 
BRANCH  24  25
HETATM   25  C8  UNL     1      15.475   2.671  16.479  1.00  0.00     0.190 C 
BRANCH  25  26
HETATM   26  O2  UNL     1      15.587   1.916  17.694  1.00  0.00    -0.399 OA
ATOM     27  H2  UNL     1      14.789   2.033  18.196  1.00  0.00     0.209 HD
ENDBRANCH  25  26
ENDBRANCH  24  25
ENDBRANCH  23  24
ENDBRANCH   6  23
TORSDOF 8
ENDMDL
MODEL 4
REMARK VINA RESULT: -7.173534955      2.869      4.292
REMARK  8 active torsions:
REMARK  status: ('A' for Active; 'I' for Inactive)
REMARK    1  A    between atoms: C6_6  and  O1_7 
REMARK    2  A    between atoms: O1_7  and  C7_8 
REMARK    3  A    between atoms: C7_8  and  C8_9 
REMARK    4  A    between atoms: C8_9  and  O2_10 
REMARK    5  A    between atoms: C10_13  and  C11_14 
REMARK    6  A    between atoms: C11_14  and  C13_16 
REMARK       I    between atoms: N1_20  and  C14_21 
REMARK    7  A    between atoms: C14_21  and  O4_23 
REMARK    8  A    between atoms: O4_23  and  C15_24 
ROOT
HETATM    1  C1  UNL     1      14.820   7.196  15.467  1.00  0.00     0.014 C 
HETATM    2  C2  UNL     1      15.832   6.657  14.811  1.00  0.00    -0.084 C 
HETATM    3  C3  UNL     1      16.951   7.544  14.429  1.00  0.00     0.059 C 
HETATM    4  C4  UNL     1      18.172   6.703  14.212  1.00  0.00     0.097 C 
HETATM    5  C5  UNL     1      18.054   5.526  15.157  1.00  0.00     0.066 C 
HETATM    6  C6  UNL     1      17.174   4.585  14.340  1.00  0.00     0.087 C 
HETATM    7  C9  UNL     1      15.818   5.187  14.476  1.00  0.00     0.073 C 
HETATM    8  C10 UNL     1      17.842   4.741  13.023  1.00  0.00     0.137 C 
HETATM    9  N1  UNL     1      18.066   6.155  12.870  1.00  0.00    -0.315 N 
HETATM   10  C14 UNL     1      18.197   6.990  11.731  1.00  0.00     0.364 C 
HETATM   11  O3  UNL     1      18.422   8.242  11.912  1.00  0.00    -0.238 OA
ENDROOT
BRANCH   8  12
HETATM   12  C11 UNL     1      17.417   4.047  11.824  1.00  0.00     0.115 C 
HETATM   13  C12 UNL     1      15.947   3.803  11.641  1.00  0.00     0.021 C 
BRANCH  12  14
HETATM   14  C13 UNL     1      18.083   2.702  11.525  1.00  0.00     0.393 C 
HETATM   15  F1  UNL     1      19.446   2.776  11.468  1.00  0.00    -0.171 F 
HETATM   16  F2  UNL     1      17.738   2.359  10.171  1.00  0.00    -0.171 F 
HETATM   17  F3  UNL     1      17.563   1.655  12.229  1.00  0.00    -0.171 F 
ENDBRANCH  12  14
ENDBRANCH   8  12
BRANCH  10  18
HETATM   18  O4  UNL     1      18.113   6.617  10.411  1.00  0.00    -0.294 OA
BRANCH  18  19
HETATM   19  C15 UNL     1      17.133   7.065   9.519  1.00  0.00     0.061 C 
HETATM   20  C16 UNL     1      17.792   7.993   8.502  1.00  0.00     0.046 C 
HETATM   21  C17 UNL     1      16.032   7.838  10.186  1.00  0.00     0.046 C 
HETATM   22  C18 UNL     1      16.494   5.944   8.724  1.00  0.00     0.046 C 
ENDBRANCH  18  19
ENDBRANCH  10  18
BRANCH   6  23
HETATM   23  O1  UNL     1      17.349   3.356  14.791  1.00  0.00    -0.376 OA
BRANCH  23  24
HETATM   24  C7  UNL     1      16.585   2.471  15.357  1.00  0.00     0.195 C 
BRANCH  24  25
HETATM   25  C8  UNL     1      15.933   2.800  16.655  1.00  0.00     0.190 C 
BRANCH  25  26
HETATM   26  O2  UNL     1      15.431   1.586  17.233  1.00  0.00    -0.399 OA
ATOM     27  H2  UNL     1      15.307   1.725  18.165  1.00  0.00     0.209 HD
ENDBRANCH  25  26
ENDBRANCH  24  25
ENDBRANCH  23  24
ENDBRANCH   6  23
TORSDOF 8
ENDMDL
MODEL 5
REMARK VINA RESULT: -7.095865459      3.011      4.498
REMARK  8 active torsions:
REMARK  status: ('A' for Active; 'I' for Inactive)
REMARK    1  A    between atoms: C6_6  and  O1_7 
REMARK    2  A    between atoms: O1_7  and  C7_8 
REMARK    3  A    between atoms: C7_8  and  C8_9 
REMARK    4  A    between atoms: C8_9  and  O2_10 
REMARK    5  A    between atoms: C10_13  and  C11_14 
REMARK    6  A    between atoms: C11_14  and  C13_16 
REMARK       I    between atoms: N1_20  and  C14_21 
REMARK    7  A    between atoms: C14_21  and  O4_23 
REMARK    8  A    between atoms: O4_23  and  C15_24 
ROOT
HETATM    1  C1  UNL     1      14.795   7.178  15.006  1.00  0.00     0.014 C 
HETATM    2  C2  UNL     1      15.989   6.881  14.526  1.00  0.00    -0.084 C 
HETATM    3  C3  UNL     1      17.097   7.815  14.816  1.00  0.00     0.059 C 
HETATM    4  C4  UNL     1      18.392   7.073  14.683  1.00  0.00     0.097 C 
HETATM    5  C5  UNL     1      18.108   5.642  15.083  1.00  0.00     0.066 C 
HETATM    6  C6  UNL     1      17.567   5.075  13.774  1.00  0.00     0.087 C 
HETATM    7  C9  UNL     1      16.185   5.625  13.713  1.00  0.00     0.073 C 
HETATM    8  C10 UNL     1      18.562   5.669  12.846  1.00  0.00     0.137 C 
HETATM    9  N1  UNL     1      18.708   7.040  13.264  1.00  0.00    -0.315 N 
HETATM   10  C14 UNL     1      19.086   8.221  12.575  1.00  0.00     0.364 C 
HETATM   11  O3  UNL     1      19.152   9.321  13.235  1.00  0.00    -0.238 OA
ENDROOT
BRANCH   8  12
HETATM   12  C11 UNL     1      18.544   5.458  11.412  1.00  0.00     0.115 C 
HETATM   13  C12 UNL     1      17.272   4.954  10.796  1.00  0.00     0.021 C 
BRANCH  12  14
HETATM   14  C13 UNL     1      19.647   4.573  10.825  1.00  0.00     0.393 C 
HETATM   15  F1  UNL     1      19.289   3.258  10.729  1.00  0.00    -0.171 F 
HETATM   16  F2  UNL     1      20.708   4.531  11.796  1.00  0.00    -0.171 F 
HETATM   17  F3  UNL     1      20.272   5.111   9.738  1.00  0.00    -0.171 F 
ENDBRANCH  12  14
ENDBRANCH   8  12
BRANCH  10  18
HETATM   18  O4  UNL     1      19.403   8.342  11.244  1.00  0.00    -0.294 OA
BRANCH  18  19
HETATM   19  C15 UNL     1      18.563   8.902  10.274  1.00  0.00     0.061 C 
HETATM   20  C16 UNL     1      18.752   8.135   8.968  1.00  0.00     0.046 C 
HETATM   21  C17 UNL     1      18.862  10.347   9.995  1.00  0.00     0.046 C 
HETATM   22  C18 UNL     1      17.093   8.794  10.626  1.00  0.00     0.046 C 
ENDBRANCH  18  19
ENDBRANCH  10  18
BRANCH   6  23
HETATM   23  O1  UNL     1      17.705   3.762  13.801  1.00  0.00    -0.376 OA
BRANCH  23  24
HETATM   24  C7  UNL     1      16.895   2.758  13.957  1.00  0.00     0.195 C 
BRANCH  24  25
HETATM   25  C8  UNL     1      16.588   2.284  15.334  1.00  0.00     0.190 C 
BRANCH  25  26
HETATM   26  O2  UNL     1      17.698   2.605  16.186  1.00  0.00    -0.399 OA
ATOM     27  H2  UNL     1      18.366   3.031  15.662  1.00  0.00     0.209 HD
ENDBRANCH  25  26
ENDBRANCH  24  25
ENDBRANCH  23  24
ENDBRANCH   6  23
TORSDOF 8
ENDMDL
