MODEL 1
REMARK VINA RESULT: -3.349393460      0.000      0.000
REMARK  5 active torsions:
REMARK  status: ('A' for Active; 'I' for Inactive)
REMARK    1  A    between atoms: S1_2  and  C2_3 
REMARK    2  A    between atoms: C2_3  and  C3_4 
REMARK    3  A    between atoms: C3_4  and  C4_5 
REMARK    4  A    between atoms: C16_34  and  C17_35 
REMARK    5  A    between atoms: C17_35  and  C18_36 
ROOT
HETATM    1  C4  UNL     1      22.831  34.012  34.202  1.00  0.00     0.177 C 
HETATM    2  N1  UNL     1      23.252  35.151  33.411  1.00  0.00    -0.347 N 
ATOM      3  H1  UNL     1      22.728  35.314  32.552  1.00  0.00     0.163 HD
HETATM    4  C5  UNL     1      24.288  36.057  33.676  1.00  0.00     0.230 C 
HETATM    5  O1  UNL     1      25.178  36.237  32.767  1.00  0.00    -0.273 OA
HETATM    6  C6  UNL     1      24.501  36.861  34.898  1.00  0.00     0.211 C 
HETATM    7  S2  UNL     1      25.422  38.364  34.519  1.00  0.00     0.025 S 
HETATM    8  O2  UNL     1      25.437  39.399  35.812  1.00  0.00    -0.258 OA
HETATM    9  C7  UNL     1      24.867  39.110  33.032  1.00  0.00     0.136 C 
HETATM   10  C8  UNL     1      25.273  40.572  33.055  1.00  0.00     0.244 C 
HETATM   11  N2  UNL     1      24.195  41.360  32.498  1.00  0.00    -0.074 N 
ATOM     12  H21 UNL     1      23.830  40.977  31.626  1.00  0.00     0.277 HD
ATOM     13  H22 UNL     1      24.507  42.258  32.127  1.00  0.00     0.277 HD
HETATM   14  C9  UNL     1      23.183  41.493  33.526  1.00  0.00     0.234 C 
HETATM   15  C10 UNL     1      22.472  42.805  33.501  1.00  0.00     0.055 C 
HETATM   16  C11 UNL     1      20.968  42.636  33.541  1.00  0.00     0.236 C 
HETATM   17  N3  UNL     1      20.463  42.472  34.881  1.00  0.00    -0.059 N 
ATOM     18  H31 UNL     1      19.642  43.058  35.036  1.00  0.00     0.279 HD
ATOM     19  H32 UNL     1      21.095  42.888  35.564  1.00  0.00     0.279 HD
HETATM   20  C12 UNL     1      20.182  41.086  35.210  1.00  0.00     0.357 C 
HETATM   21  N4  UNL     1      21.147  40.542  36.132  1.00  0.00    -0.337 N 
ATOM     22  H4  UNL     1      21.831  41.185  36.532  1.00  0.00     0.164 HD
HETATM   23  C13 UNL     1      21.219  39.194  36.524  1.00  0.00     0.236 C 
HETATM   24  O3  UNL     1      22.135  38.819  37.305  1.00  0.00    -0.272 OA
HETATM   25  C14 UNL     1      20.273  38.138  36.080  1.00  0.00     0.225 C 
HETATM   26  N5  UNL     1      20.596  37.615  34.764  1.00  0.00    -0.351 N 
ATOM     27  H5  UNL     1      21.195  38.176  34.158  1.00  0.00     0.163 HD
HETATM   28  C15 UNL     1      20.136  36.389  34.281  1.00  0.00     0.241 C 
HETATM   29  O4  UNL     1      19.912  36.265  33.050  1.00  0.00    -0.271 OA
HETATM   30  C16 UNL     1      19.889  35.195  35.154  1.00  0.00     0.186 C 
HETATM   31  N6  UNL     1      20.249  33.973  34.489  1.00  0.00    -0.346 N 
ATOM     32  H6  UNL     1      19.519  33.263  34.464  1.00  0.00     0.163 HD
HETATM   33  C19 UNL     1      21.442  33.614  33.873  1.00  0.00     0.241 C 
HETATM   34  O7  UNL     1      21.353  32.822  32.872  1.00  0.00    -0.271 OA
ENDROOT
BRANCH   1  35
HETATM   35  C3  UNL     1      23.127  34.164  35.665  1.00  0.00     0.045 C 
BRANCH  35  36
HETATM   36  C2  UNL     1      22.876  32.879  36.422  1.00  0.00     0.076 C 
BRANCH  36  37
HETATM   37  S1  UNL     1      24.058  32.760  37.820  1.00  0.00    -0.173 SA
HETATM   38  C1  UNL     1      23.577  33.886  39.150  1.00  0.00     0.089 C 
ENDBRANCH  36  37
ENDBRANCH  35  36
ENDBRANCH   1  35
BRANCH  30  39
HETATM   39  C17 UNL     1      18.425  35.229  35.546  1.00  0.00     0.147 C 
BRANCH  39  40
HETATM   40  C18 UNL     1      17.649  34.088  35.048  1.00  0.00     0.175 C 
HETATM   41  O5  UNL     1      16.877  34.177  34.075  1.00  0.00    -0.648 OA
HETATM   42  O6  UNL     1      17.798  32.854  35.711  1.00  0.00    -0.648 OA
ENDBRANCH  39  40
ENDBRANCH  30  39
TORSDOF 5
ENDMDL
MODEL 2
REMARK VINA RESULT: -3.146205644      2.887      7.505
REMARK  5 active torsions:
REMARK  status: ('A' for Active; 'I' for Inactive)
REMARK    1  A    between atoms: S1_2  and  C2_3 
REMARK    2  A    between atoms: C2_3  and  C3_4 
REMARK    3  A    between atoms: C3_4  and  C4_5 
REMARK    4  A    between atoms: C16_34  and  C17_35 
REMARK    5  A    between atoms: C17_35  and  C18_36 
ROOT
HETATM    1  C4  UNL     1      22.894  39.956  31.734  1.00  0.00     0.177 C 
HETATM    2  N1  UNL     1      22.767  38.530  31.514  1.00  0.00    -0.347 N 
ATOM      3  H1  UNL     1      23.642  38.013  31.427  1.00  0.00     0.163 HD
HETATM    4  C5  UNL     1      21.595  37.768  31.406  1.00  0.00     0.230 C 
HETATM    5  O1  UNL     1      21.450  37.031  30.363  1.00  0.00    -0.273 OA
HETATM    6  C6  UNL     1      20.469  37.694  32.361  1.00  0.00     0.211 C 
HETATM    7  S2  UNL     1      19.621  36.109  32.223  1.00  0.00     0.025 S 
HETATM    8  O2  UNL     1      18.536  35.902  33.458  1.00  0.00    -0.258 OA
HETATM    9  C7  UNL     1      20.751  34.778  32.054  1.00  0.00     0.136 C 
HETATM   10  C8  UNL     1      20.047  33.502  32.476  1.00  0.00     0.244 C 
HETATM   11  N2  UNL     1      20.979  32.685  33.222  1.00  0.00    -0.074 N 
ATOM     12  H21 UNL     1      21.889  32.604  32.770  1.00  0.00     0.277 HD
ATOM     13  H22 UNL     1      20.738  31.693  33.212  1.00  0.00     0.277 HD
HETATM   14  C9  UNL     1      21.059  33.234  34.560  1.00  0.00     0.234 C 
HETATM   15  C10 UNL     1      21.251  32.203  35.622  1.00  0.00     0.055 C 
HETATM   16  C11 UNL     1      22.384  32.559  36.559  1.00  0.00     0.236 C 
HETATM   17  N3  UNL     1      21.975  33.456  37.610  1.00  0.00    -0.059 N 
ATOM     18  H31 UNL     1      22.330  33.145  38.515  1.00  0.00     0.279 HD
ATOM     19  H32 UNL     1      20.974  33.377  37.790  1.00  0.00     0.279 HD
HETATM   20  C12 UNL     1      22.349  34.834  37.350  1.00  0.00     0.357 C 
HETATM   21  N4  UNL     1      21.210  35.649  37.008  1.00  0.00    -0.337 N 
ATOM     22  H4  UNL     1      20.286  35.225  37.090  1.00  0.00     0.164 HD
HETATM   23  C13 UNL     1      21.274  36.983  36.568  1.00  0.00     0.236 C 
HETATM   24  O3  UNL     1      20.214  37.588  36.253  1.00  0.00    -0.272 OA
HETATM   25  C14 UNL     1      22.530  37.766  36.442  1.00  0.00     0.225 C 
HETATM   26  N5  UNL     1      23.242  37.486  35.207  1.00  0.00    -0.351 N 
ATOM     27  H5  UNL     1      23.023  36.621  34.713  1.00  0.00     0.163 HD
HETATM   28  C15 UNL     1      24.208  38.331  34.658  1.00  0.00     0.241 C 
HETATM   29  O4  UNL     1      25.166  37.827  34.020  1.00  0.00    -0.271 OA
HETATM   30  C16 UNL     1      24.169  39.825  34.785  1.00  0.00     0.186 C 
HETATM   31  N6  UNL     1      24.639  40.467  33.589  1.00  0.00    -0.346 N 
ATOM     32  H6  UNL     1      25.384  41.149  33.728  1.00  0.00     0.163 HD
HETATM   33  C19 UNL     1      24.231  40.300  32.271  1.00  0.00     0.241 C 
HETATM   34  O7  UNL     1      25.126  40.463  31.371  1.00  0.00    -0.271 OA
ENDROOT
BRANCH   1  35
HETATM   35  C3  UNL     1      21.731  40.548  32.475  1.00  0.00     0.045 C 
BRANCH  35  36
HETATM   36  C2  UNL     1      21.978  41.995  32.837  1.00  0.00     0.076 C 
BRANCH  36  37
HETATM   37  S1  UNL     1      21.483  42.276  34.581  1.00  0.00    -0.173 SA
HETATM   38  C1  UNL     1      20.706  40.793  35.263  1.00  0.00     0.089 C 
ENDBRANCH  36  37
ENDBRANCH  35  36
ENDBRANCH   1  35
BRANCH  30  39
HETATM   39  C17 UNL     1      25.002  40.187  36.000  1.00  0.00     0.147 C 
BRANCH  39  40
HETATM   40  C18 UNL     1      24.279  40.976  37.003  1.00  0.00     0.175 C 
HETATM   41  O5  UNL     1      24.185  42.217  36.938  1.00  0.00    -0.648 OA
HETATM   42  O6  UNL     1      23.675  40.285  38.071  1.00  0.00    -0.648 OA
ENDBRANCH  39  40
ENDBRANCH  30  39
TORSDOF 5
ENDMDL
MODEL 3
REMARK VINA RESULT: -2.259227583      1.188      1.210
REMARK  5 active torsions:
REMARK  status: ('A' for Active; 'I' for Inactive)
REMARK    1  A    between atoms: S1_2  and  C2_3 
REMARK    2  A    between atoms: C2_3  and  C3_4 
REMARK    3  A    between atoms: C3_4  and  C4_5 
REMARK    4  A    between atoms: C16_34  and  C17_35 
REMARK    5  A    between atoms: C17_35  and  C18_36 
ROOT
HETATM    1  C4  UNL     1      22.848  34.928  33.511  1.00  0.00     0.177 C 
HETATM    2  N1  UNL     1      23.127  36.268  33.037  1.00  0.00    -0.347 N 
ATOM      3  H1  UNL     1      22.509  36.619  32.305  1.00  0.00     0.163 HD
HETATM    4  C5  UNL     1      24.138  37.145  33.454  1.00  0.00     0.230 C 
HETATM    5  O1  UNL     1      24.919  37.634  32.558  1.00  0.00    -0.273 OA
HETATM    6  C6  UNL     1      24.436  37.598  34.829  1.00  0.00     0.211 C 
HETATM    7  S2  UNL     1      25.236  39.215  34.807  1.00  0.00     0.025 S 
HETATM    8  O2  UNL     1      25.333  39.855  36.332  1.00  0.00    -0.258 OA
HETATM    9  C7  UNL     1      24.493  40.293  33.640  1.00  0.00     0.136 C 
HETATM   10  C8  UNL     1      24.825  41.720  34.036  1.00  0.00     0.244 C 
HETATM   11  N2  UNL     1      23.656  42.544  33.816  1.00  0.00    -0.074 N 
ATOM     12  H21 UNL     1      23.223  42.387  32.906  1.00  0.00     0.277 HD
ATOM     13  H22 UNL     1      23.883  43.531  33.685  1.00  0.00     0.277 HD
HETATM   14  C9  UNL     1      22.751  42.313  34.922  1.00  0.00     0.234 C 
HETATM   15  C10 UNL     1      21.977  43.523  35.326  1.00  0.00     0.055 C 
HETATM   16  C11 UNL     1      20.495  43.234  35.446  1.00  0.00     0.236 C 
HETATM   17  N3  UNL     1      20.140  42.672  36.725  1.00  0.00    -0.059 N 
ATOM     18  H31 UNL     1      19.312  43.129  37.108  1.00  0.00     0.279 HD
ATOM     19  H32 UNL     1      20.819  42.934  37.441  1.00  0.00     0.279 HD
HETATM   20  C12 UNL     1      19.965  41.232  36.678  1.00  0.00     0.357 C 
HETATM   21  N4  UNL     1      21.047  40.533  37.325  1.00  0.00    -0.337 N 
ATOM     22  H4  UNL     1      21.735  41.093  37.828  1.00  0.00     0.164 HD
HETATM   23  C13 UNL     1      21.227  39.139  37.317  1.00  0.00     0.236 C 
HETATM   24  O3  UNL     1      22.237  38.637  37.881  1.00  0.00    -0.272 OA
HETATM   25  C14 UNL     1      20.294  38.175  36.679  1.00  0.00     0.225 C 
HETATM   26  N5  UNL     1      20.505  38.058  35.247  1.00  0.00    -0.351 N 
ATOM     27  H5  UNL     1      21.009  38.807  34.772  1.00  0.00     0.163 HD
HETATM   28  C15 UNL     1      20.059  36.978  34.481  1.00  0.00     0.241 C 
HETATM   29  O4  UNL     1      19.715  37.178  33.289  1.00  0.00    -0.271 OA
HETATM   30  C16 UNL     1      19.965  35.576  35.004  1.00  0.00     0.186 C 
HETATM   31  N6  UNL     1      20.315  34.614  33.996  1.00  0.00    -0.346 N 
ATOM     32  H6  UNL     1      19.622  33.883  33.837  1.00  0.00     0.163 HD
HETATM   33  C19 UNL     1      21.454  34.529  33.205  1.00  0.00     0.241 C 
HETATM   34  O7  UNL     1      21.302  34.035  32.034  1.00  0.00    -0.271 OA
ENDROOT
BRANCH   1  35
HETATM   35  C3  UNL     1      23.286  34.697  34.928  1.00  0.00     0.045 C 
BRANCH  35  36
HETATM   36  C2  UNL     1      22.830  33.349  35.441  1.00  0.00     0.076 C 
BRANCH  36  37
HETATM   37  S1  UNL     1      22.767  33.388  37.274  1.00  0.00    -0.173 SA
HETATM   38  C1  UNL     1      24.216  32.563  37.971  1.00  0.00     0.089 C 
ENDBRANCH  36  37
ENDBRANCH  35  36
ENDBRANCH   1  35
BRANCH  30  39
HETATM   39  C17 UNL     1      18.549  35.388  35.515  1.00  0.00     0.147 C 
BRANCH  39  40
HETATM   40  C18 UNL     1      17.900  34.164  35.032  1.00  0.00     0.175 C 
HETATM   41  O5  UNL     1      17.110  34.161  34.069  1.00  0.00    -0.648 OA
HETATM   42  O6  UNL     1      18.196  32.959  35.697  1.00  0.00    -0.648 OA
ENDBRANCH  39  40
ENDBRANCH  30  39
TORSDOF 5
ENDMDL
MODEL 4
REMARK VINA RESULT: -2.093652814      1.730      2.050
REMARK  5 active torsions:
REMARK  status: ('A' for Active; 'I' for Inactive)
REMARK    1  A    between atoms: S1_2  and  C2_3 
REMARK    2  A    between atoms: C2_3  and  C3_4 
REMARK    3  A    between atoms: C3_4  and  C4_5 
REMARK    4  A    between atoms: C16_34  and  C17_35 
REMARK    5  A    between atoms: C17_35  and  C18_36 
ROOT
HETATM    1  C4  UNL     1      22.531  35.740  32.809  1.00  0.00     0.177 C 
HETATM    2  N1  UNL     1      22.601  37.157  32.514  1.00  0.00    -0.347 N 
ATOM      3  H1  UNL     1      21.811  37.543  31.996  1.00  0.00     0.163 HD
HETATM    4  C5  UNL     1      23.614  38.065  32.848  1.00  0.00     0.230 C 
HETATM    5  O1  UNL     1      24.138  38.758  31.902  1.00  0.00    -0.273 OA
HETATM    6  C6  UNL     1      24.179  38.343  34.187  1.00  0.00     0.211 C 
HETATM    7  S2  UNL     1      24.836  40.020  34.263  1.00  0.00     0.025 S 
HETATM    8  O2  UNL     1      25.226  40.439  35.818  1.00  0.00    -0.258 OA
HETATM    9  C7  UNL     1      23.776  41.172  33.473  1.00  0.00     0.136 C 
HETATM   10  C8  UNL     1      24.086  42.554  34.019  1.00  0.00     0.244 C 
HETATM   11  N2  UNL     1      22.842  43.273  34.188  1.00  0.00    -0.074 N 
ATOM     12  H21 UNL     1      22.228  43.205  33.376  1.00  0.00     0.277 HD
ATOM     13  H22 UNL     1      22.962  44.287  34.177  1.00  0.00     0.277 HD
HETATM   14  C9  UNL     1      22.225  42.790  35.406  1.00  0.00     0.234 C 
HETATM   15  C10 UNL     1      21.477  43.840  36.157  1.00  0.00     0.055 C 
HETATM   16  C11 UNL     1      20.084  43.381  36.535  1.00  0.00     0.236 C 
HETATM   17  N3  UNL     1      20.065  42.605  37.750  1.00  0.00    -0.059 N 
ATOM     18  H31 UNL     1      19.313  42.912  38.368  1.00  0.00     0.279 HD
ATOM     19  H32 UNL     1      20.866  42.830  38.340  1.00  0.00     0.279 HD
HETATM   20  C12 UNL     1      19.987  41.177  37.504  1.00  0.00     0.357 C 
HETATM   21  N4  UNL     1      21.233  40.510  37.785  1.00  0.00    -0.337 N 
ATOM     22  H4  UNL     1      21.975  41.061  38.218  1.00  0.00     0.164 HD
HETATM   23  C13 UNL     1      21.506  39.159  37.510  1.00  0.00     0.236 C 
HETATM   24  O3  UNL     1      22.649  38.689  37.760  1.00  0.00    -0.272 OA
HETATM   25  C14 UNL     1      20.525  38.204  36.932  1.00  0.00     0.225 C 
HETATM   26  N5  UNL     1      20.419  38.319  35.488  1.00  0.00    -0.351 N 
ATOM     27  H5  UNL     1      20.748  39.178  35.049  1.00  0.00     0.163 HD
HETATM   28  C15 UNL     1      19.891  37.321  34.666  1.00  0.00     0.241 C 
HETATM   29  O4  UNL     1      19.276  37.654  33.622  1.00  0.00    -0.271 OA
HETATM   30  C16 UNL     1      20.016  35.856  34.959  1.00  0.00     0.186 C 
HETATM   31  N6  UNL     1      20.199  35.092  33.755  1.00  0.00    -0.346 N 
ATOM     32  H6  UNL     1      19.543  34.323  33.627  1.00  0.00     0.163 HD
HETATM   33  C19 UNL     1      21.136  35.244  32.740  1.00  0.00     0.241 C 
HETATM   34  O7  UNL     1      20.761  34.913  31.562  1.00  0.00    -0.271 OA
ENDROOT
BRANCH   1  35
HETATM   35  C3  UNL     1      23.290  35.353  34.044  1.00  0.00     0.045 C 
BRANCH  35  36
HETATM   36  C2  UNL     1      23.131  33.883  34.360  1.00  0.00     0.076 C 
BRANCH  36  37
HETATM   37  S1  UNL     1      22.667  33.688  36.124  1.00  0.00    -0.173 SA
HETATM   38  C1  UNL     1      22.023  32.026  36.427  1.00  0.00     0.089 C 
ENDBRANCH  36  37
ENDBRANCH  35  36
ENDBRANCH   1  35
BRANCH  30  39
HETATM   39  C17 UNL     1      18.767  35.448  35.717  1.00  0.00     0.147 C 
BRANCH  39  40
HETATM   40  C18 UNL     1      18.181  34.183  35.259  1.00  0.00     0.175 C 
HETATM   41  O5  UNL     1      17.219  34.138  34.469  1.00  0.00    -0.648 OA
HETATM   42  O6  UNL     1      18.742  32.987  35.746  1.00  0.00    -0.648 OA
ENDBRANCH  39  40
ENDBRANCH  30  39
TORSDOF 5
ENDMDL
MODEL 5
REMARK VINA RESULT: -1.720526760      3.866      8.597
REMARK  5 active torsions:
REMARK  status: ('A' for Active; 'I' for Inactive)
REMARK    1  A    between atoms: S1_2  and  C2_3 
REMARK    2  A    between atoms: C2_3  and  C3_4 
REMARK    3  A    between atoms: C3_4  and  C4_5 
REMARK    4  A    between atoms: C16_34  and  C17_35 
REMARK    5  A    between atoms: C17_35  and  C18_36 
ROOT
HETATM    1  C4  UNL     1      24.469  43.817  33.619  1.00  0.00     0.177 C 
HETATM    2  N1  UNL     1      23.287  43.244  34.229  1.00  0.00    -0.347 N 
ATOM      3  H1  UNL     1      22.444  43.247  33.655  1.00  0.00     0.163 HD
HETATM    4  C5  UNL     1      23.152  42.687  35.508  1.00  0.00     0.230 C 
HETATM    5  O1  UNL     1      22.225  43.146  36.271  1.00  0.00    -0.273 OA
HETATM    6  C6  UNL     1      23.957  41.607  36.117  1.00  0.00     0.211 C 
HETATM    7  S2  UNL     1      22.998  40.725  37.365  1.00  0.00     0.025 S 
HETATM    8  O2  UNL     1      23.783  39.354  37.863  1.00  0.00    -0.258 OA
HETATM    9  C7  UNL     1      21.351  40.437  36.837  1.00  0.00     0.136 C 
HETATM   10  C8  UNL     1      20.790  39.280  37.644  1.00  0.00     0.244 C 
HETATM   11  N2  UNL     1      19.994  38.449  36.767  1.00  0.00    -0.074 N 
ATOM     12  H21 UNL     1      19.350  38.985  36.186  1.00  0.00     0.277 HD
ATOM     13  H22 UNL     1      19.294  37.899  37.266  1.00  0.00     0.277 HD
HETATM   14  C9  UNL     1      20.909  37.635  35.996  1.00  0.00     0.234 C 
HETATM   15  C10 UNL     1      20.389  36.269  35.695  1.00  0.00     0.055 C 
HETATM   16  C11 UNL     1      20.526  35.921  34.228  1.00  0.00     0.236 C 
HETATM   17  N3  UNL     1      21.834  35.414  33.896  1.00  0.00    -0.059 N 
ATOM     18  H31 UNL     1      21.765  34.582  33.310  1.00  0.00     0.279 HD
ATOM     19  H32 UNL     1      22.285  35.003  34.714  1.00  0.00     0.279 HD
HETATM   20  C12 UNL     1      22.686  36.415  33.281  1.00  0.00     0.357 C 
HETATM   21  N4  UNL     1      23.725  36.864  34.173  1.00  0.00    -0.337 N 
ATOM     22  H4  UNL     1      23.826  36.375  35.063  1.00  0.00     0.164 HD
HETATM   23  C13 UNL     1      24.612  37.923  33.912  1.00  0.00     0.236 C 
HETATM   24  O3  UNL     1      25.457  38.259  34.785  1.00  0.00    -0.272 OA
HETATM   25  C14 UNL     1      24.638  38.705  32.650  1.00  0.00     0.225 C 
HETATM   26  N5  UNL     1      23.626  39.746  32.616  1.00  0.00    -0.351 N 
ATOM     27  H5  UNL     1      22.835  39.668  33.255  1.00  0.00     0.163 HD
HETATM   28  C15 UNL     1      23.671  40.847  31.758  1.00  0.00     0.241 C 
HETATM   29  O4  UNL     1      22.593  41.332  31.332  1.00  0.00    -0.271 OA
HETATM   30  C16 UNL     1      24.948  41.494  31.309  1.00  0.00     0.186 C 
HETATM   31  N6  UNL     1      24.806  42.920  31.204  1.00  0.00    -0.346 N 
ATOM     32  H6  UNL     1      25.078  43.316  30.305  1.00  0.00     0.163 HD
HETATM   33  C19 UNL     1      24.354  43.840  32.142  1.00  0.00     0.241 C 
HETATM   34  O7  UNL     1      23.746  44.870  31.685  1.00  0.00    -0.271 OA
ENDROOT
BRANCH   1  35
HETATM   35  C3  UNL     1      25.749  43.245  34.154  1.00  0.00     0.045 C 
BRANCH  35  36
HETATM   36  C2  UNL     1      26.959  43.905  33.532  1.00  0.00     0.076 C 
BRANCH  36  37
HETATM   37  S1  UNL     1      28.193  42.619  33.095  1.00  0.00    -0.173 SA
HETATM   38  C1  UNL     1      29.866  43.300  33.171  1.00  0.00     0.089 C 
ENDBRANCH  36  37
ENDBRANCH  35  36
ENDBRANCH   1  35
BRANCH  30  39
HETATM   39  C17 UNL     1      25.328  40.852  29.989  1.00  0.00     0.147 C 
BRANCH  39  40
HETATM   40  C18 UNL     1      26.531  41.425  29.374  1.00  0.00     0.175 C 
HETATM   41  O5  UNL     1      27.043  40.956  28.340  1.00  0.00    -0.648 OA
HETATM   42  O6  UNL     1      27.112  42.548  29.995  1.00  0.00    -0.648 OA
ENDBRANCH  39  40
ENDBRANCH  30  39
TORSDOF 5
ENDMDL
