MODEL 1
REMARK VINA RESULT: -6.351452996      0.000      0.000
REMARK  4 active torsions:
REMARK  status: ('A' for Active; 'I' for Inactive)
REMARK    1  A    between atoms: C5_6  and  C6_7 
REMARK    2  A    between atoms: C12_24  and  C13_25 
REMARK    3  A    between atoms: C13_25  and  C14_26 
REMARK    4  A    between atoms: C19_37  and  C20_38 
ROOT
HETATM    1  C14 UNL     1      25.955  45.793  32.050  1.00  0.00     0.126 C 
HETATM    2  C15 UNL     1      27.289  45.741  31.401  1.00  0.00     0.059 C 
HETATM    3  N6  UNL     1      28.322  45.705  30.880  1.00  0.00    -0.197 NA
ENDROOT
BRANCH   1   4
HETATM    4  C13 UNL     1      25.228  44.565  31.624  1.00  0.00     0.047 C 
BRANCH   4   5
HETATM    5  C12 UNL     1      24.957  43.589  32.744  1.00  0.00     0.152 C 
HETATM    6  C11 UNL     1      25.945  42.512  32.823  1.00  0.00     0.093 C 
HETATM    7  N4  UNL     1      25.817  41.218  32.285  1.00  0.00    -0.377 N 
HETATM    8  N5  UNL     1      27.059  42.795  33.461  1.00  0.00    -0.387 N 
HETATM    9  C10 UNL     1      24.649  40.401  32.213  1.00  0.00     0.148 C 
ATOM     10  H4  UNL     1      26.669  40.812  31.896  1.00  0.00     0.160 HD
HETATM   11  C9  UNL     1      25.044  38.943  32.325  1.00  0.00     0.252 C 
HETATM   12  N3  UNL     1      23.968  38.128  32.819  1.00  0.00    -0.065 N 
HETATM   13  C8  UNL     1      24.535  37.101  33.668  1.00  0.00     0.334 C 
ATOM     14  H32 UNL     1      23.388  37.746  32.071  1.00  0.00     0.277 HD
ATOM     15  H31 UNL     1      23.244  38.673  33.288  1.00  0.00     0.277 HD
HETATM   16  C7  UNL     1      23.650  35.914  33.772  1.00  0.00     0.244 C 
HETATM   17  N2  UNL     1      22.385  35.938  34.370  1.00  0.00    -0.344 N 
HETATM   18  O1  UNL     1      24.075  34.831  33.289  1.00  0.00    -0.272 OA
HETATM   19  C6  UNL     1      22.055  36.714  35.564  1.00  0.00     0.210 C 
ATOM     20  H2  UNL     1      21.645  35.379  33.945  1.00  0.00     0.163 HD
HETATM   21  C21 UNL     1      21.075  37.772  35.197  1.00  0.00     0.243 C 
HETATM   22  N8  UNL     1      21.275  39.149  35.413  1.00  0.00    -0.344 N 
HETATM   23  O6  UNL     1      20.001  37.372  34.657  1.00  0.00    -0.271 OA
HETATM   24  C19 UNL     1      21.864  39.713  36.612  1.00  0.00     0.197 C 
ATOM     25  H8  UNL     1      20.987  39.793  34.677  1.00  0.00     0.163 HD
HETATM   26  C18 UNL     1      22.805  40.824  36.205  1.00  0.00     0.145 C 
HETATM   27  S1  UNL     1      21.956  42.372  36.031  1.00  0.00     0.026 S 
HETATM   28  C17 UNL     1      22.860  43.516  35.044  1.00  0.00     0.211 C 
HETATM   29  O3  UNL     1      20.408  42.184  35.452  1.00  0.00    -0.258 OA
HETATM   30  C16 UNL     1      22.595  43.393  33.603  1.00  0.00     0.229 C 
HETATM   31  N7  UNL     1      23.591  43.167  32.619  1.00  0.00    -0.349 N 
HETATM   32  O2  UNL     1      21.403  43.496  33.211  1.00  0.00    -0.273 OA
ATOM     33  H7  UNL     1      23.319  42.673  31.769  1.00  0.00     0.163 HD
ATOM     34  H52 UNL     1      27.747  42.044  33.516  1.00  0.00     0.157 HD
ATOM     35  H51 UNL     1      27.150  43.733  33.851  1.00  0.00     0.157 HD
BRANCH  19  36
HETATM   36  C5  UNL     1      21.350  35.753  36.528  1.00  0.00     0.254 C 
HETATM   37  N1  UNL     1      22.272  34.930  37.247  1.00  0.00     0.091 N 
HETATM   38  C1  UNL     1      22.071  35.019  38.697  1.00  0.00     0.310 C 
HETATM   39  C2  UNL     1      22.018  33.559  36.880  1.00  0.00     0.272 C 
HETATM   40  C3  UNL     1      20.541  33.546  36.539  1.00  0.00     0.032 C 
HETATM   41  C4  UNL     1      20.393  34.856  35.793  1.00  0.00     0.040 C 
ENDBRANCH  19  36
BRANCH  24  42
HETATM   42  C20 UNL     1      20.839  40.183  37.567  1.00  0.00     0.197 C 
HETATM   43  O4  UNL     1      19.633  39.984  37.309  1.00  0.00    -0.646 OA
HETATM   44  O5  UNL     1      21.189  40.831  38.725  1.00  0.00    -0.646 OA
ENDBRANCH  24  42
ENDBRANCH   4   5
ENDBRANCH   1   4
TORSDOF 4
ENDMDL
MODEL 2
REMARK VINA RESULT: -6.014079250      2.411      4.607
REMARK  4 active torsions:
REMARK  status: ('A' for Active; 'I' for Inactive)
REMARK    1  A    between atoms: C5_6  and  C6_7 
REMARK    2  A    between atoms: C12_24  and  C13_25 
REMARK    3  A    between atoms: C13_25  and  C14_26 
REMARK    4  A    between atoms: C19_37  and  C20_38 
ROOT
HETATM    1  C14 UNL     1      26.482  44.135  32.549  1.00  0.00     0.126 C 
HETATM    2  C15 UNL     1      25.826  45.120  31.653  1.00  0.00     0.059 C 
HETATM    3  N6  UNL     1      25.320  45.901  30.964  1.00  0.00    -0.197 NA
ENDROOT
BRANCH   1   4
HETATM    4  C13 UNL     1      25.580  43.964  33.721  1.00  0.00     0.047 C 
BRANCH   4   5
HETATM    5  C12 UNL     1      24.561  42.861  33.560  1.00  0.00     0.152 C 
HETATM    6  C11 UNL     1      23.235  43.221  34.063  1.00  0.00     0.093 C 
HETATM    7  N4  UNL     1      22.702  42.899  35.324  1.00  0.00    -0.377 N 
HETATM    8  N5  UNL     1      22.477  43.918  33.246  1.00  0.00    -0.387 N 
HETATM    9  C10 UNL     1      22.870  41.695  36.075  1.00  0.00     0.148 C 
ATOM     10  H4  UNL     1      22.122  43.616  35.759  1.00  0.00     0.160 HD
HETATM   11  C9  UNL     1      21.619  41.426  36.884  1.00  0.00     0.252 C 
HETATM   12  N3  UNL     1      21.469  40.031  37.198  1.00  0.00    -0.065 N 
HETATM   13  C8  UNL     1      20.058  39.709  37.153  1.00  0.00     0.334 C 
ATOM     14  H32 UNL     1      21.903  39.778  38.086  1.00  0.00     0.277 HD
ATOM     15  H31 UNL     1      22.030  39.428  36.595  1.00  0.00     0.277 HD
HETATM   16  C7  UNL     1      19.733  38.516  37.974  1.00  0.00     0.244 C 
HETATM   17  N2  UNL     1      20.201  37.228  37.689  1.00  0.00    -0.344 N 
HETATM   18  O1  UNL     1      18.994  38.688  38.978  1.00  0.00    -0.272 OA
HETATM   19  C6  UNL     1      20.346  36.685  36.340  1.00  0.00     0.210 C 
ATOM     20  H2  UNL     1      20.458  36.629  38.474  1.00  0.00     0.163 HD
HETATM   21  C21 UNL     1      21.790  36.459  36.063  1.00  0.00     0.243 C 
HETATM   22  N8  UNL     1      22.488  37.022  34.977  1.00  0.00    -0.344 N 
HETATM   23  O6  UNL     1      22.401  35.705  36.877  1.00  0.00    -0.271 OA
HETATM   24  C19 UNL     1      21.957  37.137  33.633  1.00  0.00     0.197 C 
ATOM     25  H8  UNL     1      23.430  37.373  35.147  1.00  0.00     0.163 HD
HETATM   26  C18 UNL     1      22.342  38.490  33.081  1.00  0.00     0.145 C 
HETATM   27  S1  UNL     1      23.945  38.459  32.322  1.00  0.00     0.026 S 
HETATM   28  C17 UNL     1      24.646  40.069  32.187  1.00  0.00     0.211 C 
HETATM   29  O3  UNL     1      24.990  37.420  33.094  1.00  0.00    -0.258 OA
HETATM   30  C16 UNL     1      25.397  40.489  33.379  1.00  0.00     0.229 C 
HETATM   31  N7  UNL     1      25.132  41.669  34.120  1.00  0.00    -0.349 N 
HETATM   32  O2  UNL     1      26.341  39.755  33.772  1.00  0.00    -0.273 OA
ATOM     33  H7  UNL     1      25.361  41.670  35.114  1.00  0.00     0.163 HD
ATOM     34  H52 UNL     1      21.553  44.170  33.597  1.00  0.00     0.157 HD
ATOM     35  H51 UNL     1      22.864  44.152  32.332  1.00  0.00     0.157 HD
BRANCH  19  36
HETATM   36  C5  UNL     1      19.662  35.313  36.346  1.00  0.00     0.254 C 
HETATM   37  N1  UNL     1      20.427  34.320  35.659  1.00  0.00     0.091 N 
HETATM   38  C1  UNL     1      20.671  33.141  36.496  1.00  0.00     0.310 C 
HETATM   39  C2  UNL     1      19.652  33.869  34.530  1.00  0.00     0.272 C 
HETATM   40  C3  UNL     1      18.217  34.059  34.980  1.00  0.00     0.032 C 
HETATM   41  C4  UNL     1      18.303  35.386  35.705  1.00  0.00     0.040 C 
ENDBRANCH  19  36
BRANCH  24  42
HETATM   42  C20 UNL     1      22.415  36.037  32.759  1.00  0.00     0.197 C 
HETATM   43  O4  UNL     1      21.873  35.882  31.644  1.00  0.00    -0.646 OA
HETATM   44  O5  UNL     1      23.421  35.188  33.151  1.00  0.00    -0.646 OA
ENDBRANCH  24  42
ENDBRANCH   4   5
ENDBRANCH   1   4
TORSDOF 4
ENDMDL
MODEL 3
REMARK VINA RESULT: -4.653245256      2.472      8.533
REMARK  4 active torsions:
REMARK  status: ('A' for Active; 'I' for Inactive)
REMARK    1  A    between atoms: C5_6  and  C6_7 
REMARK    2  A    between atoms: C12_24  and  C13_25 
REMARK    3  A    between atoms: C13_25  and  C14_26 
REMARK    4  A    between atoms: C19_37  and  C20_38 
ROOT
HETATM    1  C14 UNL     1      21.302  33.895  34.732  1.00  0.00     0.126 C 
HETATM    2  C15 UNL     1      20.631  33.130  35.812  1.00  0.00     0.059 C 
HETATM    3  N6  UNL     1      20.102  32.522  36.643  1.00  0.00    -0.197 NA
ENDROOT
BRANCH   1   4
HETATM    4  C13 UNL     1      20.228  34.609  33.988  1.00  0.00     0.047 C 
BRANCH   4   5
HETATM    5  C12 UNL     1      20.410  36.106  33.927  1.00  0.00     0.152 C 
HETATM    6  C11 UNL     1      20.348  36.641  32.566  1.00  0.00     0.093 C 
HETATM    7  N4  UNL     1      21.442  36.939  31.733  1.00  0.00    -0.377 N 
HETATM    8  N5  UNL     1      19.144  36.859  32.085  1.00  0.00    -0.387 N 
HETATM    9  C10 UNL     1      22.708  37.491  32.097  1.00  0.00     0.148 C 
ATOM     10  H4  UNL     1      21.315  36.734  30.742  1.00  0.00     0.160 HD
HETATM   11  C9  UNL     1      23.233  38.343  30.961  1.00  0.00     0.252 C 
HETATM   12  N3  UNL     1      24.157  39.344  31.420  1.00  0.00    -0.065 N 
HETATM   13  C8  UNL     1      23.957  40.538  30.624  1.00  0.00     0.334 C 
ATOM     14  H32 UNL     1      25.125  39.022  31.410  1.00  0.00     0.277 HD
ATOM     15  H31 UNL     1      24.081  39.521  32.422  1.00  0.00     0.277 HD
HETATM   16  C7  UNL     1      25.164  41.402  30.605  1.00  0.00     0.244 C 
HETATM   17  N2  UNL     1      25.675  42.046  31.738  1.00  0.00    -0.344 N 
HETATM   18  O1  UNL     1      25.749  41.554  29.501  1.00  0.00    -0.272 OA
HETATM   19  C6  UNL     1      24.851  42.636  32.791  1.00  0.00     0.210 C 
ATOM     20  H2  UNL     1      26.689  42.109  31.834  1.00  0.00     0.163 HD
HETATM   21  C21 UNL     1      25.062  41.875  34.052  1.00  0.00     0.243 C 
HETATM   22  N8  UNL     1      24.033  41.258  34.788  1.00  0.00    -0.344 N 
HETATM   23  O6  UNL     1      26.258  41.798  34.461  1.00  0.00    -0.271 OA
HETATM   24  C19 UNL     1      22.730  41.847  35.029  1.00  0.00     0.197 C 
ATOM     25  H8  UNL     1      24.215  40.333  35.179  1.00  0.00     0.163 HD
HETATM   26  C18 UNL     1      21.682  40.769  34.874  1.00  0.00     0.145 C 
HETATM   27  S1  UNL     1      21.430  39.876  36.385  1.00  0.00     0.026 S 
HETATM   28  C17 UNL     1      20.674  38.309  36.111  1.00  0.00     0.211 C 
HETATM   29  O3  UNL     1      22.832  39.711  37.265  1.00  0.00    -0.258 OA
HETATM   30  C16 UNL     1      21.633  37.232  35.823  1.00  0.00     0.229 C 
HETATM   31  N7  UNL     1      21.604  36.420  34.661  1.00  0.00    -0.349 N 
HETATM   32  O2  UNL     1      22.543  37.011  36.664  1.00  0.00    -0.273 OA
ATOM     33  H7  UNL     1      22.486  36.036  34.325  1.00  0.00     0.163 HD
ATOM     34  H52 UNL     1      19.101  37.231  31.136  1.00  0.00     0.157 HD
ATOM     35  H51 UNL     1      18.352  36.643  32.690  1.00  0.00     0.157 HD
BRANCH  19  36
HETATM   36  C5  UNL     1      25.383  44.055  33.019  1.00  0.00     0.254 C 
HETATM   37  N1  UNL     1      24.798  45.006  32.126  1.00  0.00     0.091 N 
HETATM   38  C1  UNL     1      24.204  46.138  32.843  1.00  0.00     0.310 C 
HETATM   39  C2  UNL     1      25.854  45.547  31.306  1.00  0.00     0.272 C 
HETATM   40  C3  UNL     1      27.080  45.456  32.192  1.00  0.00     0.032 C 
HETATM   41  C4  UNL     1      26.876  44.106  32.848  1.00  0.00     0.040 C 
ENDBRANCH  19  36
BRANCH  24  42
HETATM   42  C20 UNL     1      22.653  42.503  36.351  1.00  0.00     0.197 C 
HETATM   43  O4  UNL     1      23.656  42.491  37.094  1.00  0.00    -0.646 OA
HETATM   44  O5  UNL     1      21.501  43.122  36.772  1.00  0.00    -0.646 OA
ENDBRANCH  24  42
ENDBRANCH   4   5
ENDBRANCH   1   4
TORSDOF 4
ENDMDL
MODEL 4
REMARK VINA RESULT: -4.311007370      2.680      8.602
REMARK  4 active torsions:
REMARK  status: ('A' for Active; 'I' for Inactive)
REMARK    1  A    between atoms: C5_6  and  C6_7 
REMARK    2  A    between atoms: C12_24  and  C13_25 
REMARK    3  A    between atoms: C13_25  and  C14_26 
REMARK    4  A    between atoms: C19_37  and  C20_38 
ROOT
HETATM    1  C14 UNL     1      18.961  34.219  34.592  1.00  0.00     0.126 C 
HETATM    2  C15 UNL     1      18.119  33.550  33.570  1.00  0.00     0.059 C 
HETATM    3  N6  UNL     1      17.472  33.013  32.774  1.00  0.00    -0.197 NA
ENDROOT
BRANCH   1   4
HETATM    4  C13 UNL     1      20.208  34.647  33.900  1.00  0.00     0.047 C 
BRANCH   4   5
HETATM    5  C12 UNL     1      20.403  36.144  33.848  1.00  0.00     0.152 C 
HETATM    6  C11 UNL     1      20.356  36.686  32.490  1.00  0.00     0.093 C 
HETATM    7  N4  UNL     1      21.458  36.979  31.666  1.00  0.00    -0.377 N 
HETATM    8  N5  UNL     1      19.157  36.917  32.001  1.00  0.00    -0.387 N 
HETATM    9  C10 UNL     1      22.726  37.518  32.043  1.00  0.00     0.148 C 
ATOM     10  H4  UNL     1      21.337  36.780  30.673  1.00  0.00     0.160 HD
HETATM   11  C9  UNL     1      23.267  38.371  30.915  1.00  0.00     0.252 C 
HETATM   12  N3  UNL     1      24.196  39.362  31.387  1.00  0.00    -0.065 N 
HETATM   13  C8  UNL     1      24.012  40.562  30.596  1.00  0.00     0.334 C 
ATOM     14  H32 UNL     1      25.161  39.031  31.382  1.00  0.00     0.277 HD
ATOM     15  H31 UNL     1      24.114  39.535  32.389  1.00  0.00     0.277 HD
HETATM   16  C7  UNL     1      25.227  41.416  30.590  1.00  0.00     0.244 C 
HETATM   17  N2  UNL     1      25.735  42.049  31.730  1.00  0.00    -0.344 N 
HETATM   18  O1  UNL     1      25.821  41.568  29.491  1.00  0.00    -0.272 OA
HETATM   19  C6  UNL     1      24.908  42.640  32.780  1.00  0.00     0.210 C 
ATOM     20  H2  UNL     1      26.748  42.102  31.834  1.00  0.00     0.163 HD
HETATM   21  C21 UNL     1      25.103  41.871  34.038  1.00  0.00     0.243 C 
HETATM   22  N8  UNL     1      24.063  41.259  34.764  1.00  0.00    -0.344 N 
HETATM   23  O6  UNL     1      26.296  41.781  34.456  1.00  0.00    -0.271 OA
HETATM   24  C19 UNL     1      22.764  41.858  34.998  1.00  0.00     0.197 C 
ATOM     25  H8  UNL     1      24.235  40.331  35.151  1.00  0.00     0.163 HD
HETATM   26  C18 UNL     1      21.708  40.790  34.829  1.00  0.00     0.145 C 
HETATM   27  S1  UNL     1      21.437  39.891  36.334  1.00  0.00     0.026 S 
HETATM   28  C17 UNL     1      20.669  38.332  36.046  1.00  0.00     0.211 C 
HETATM   29  O3  UNL     1      22.830  39.710  37.224  1.00  0.00    -0.258 OA
HETATM   30  C16 UNL     1      21.621  37.249  35.760  1.00  0.00     0.229 C 
HETATM   31  N7  UNL     1      21.594  36.443  34.592  1.00  0.00    -0.349 N 
HETATM   32  O2  UNL     1      22.523  37.016  36.606  1.00  0.00    -0.273 OA
ATOM     33  H7  UNL     1      22.475  36.053  34.261  1.00  0.00     0.163 HD
ATOM     34  H52 UNL     1      19.125  37.294  31.054  1.00  0.00     0.157 HD
ATOM     35  H51 UNL     1      18.358  36.704  32.599  1.00  0.00     0.157 HD
BRANCH  19  36
HETATM   36  C5  UNL     1      25.450  44.054  33.020  1.00  0.00     0.254 C 
HETATM   37  N1  UNL     1      24.858  45.020  32.148  1.00  0.00     0.091 N 
HETATM   38  C1  UNL     1      24.280  46.145  32.889  1.00  0.00     0.310 C 
HETATM   39  C2  UNL     1      25.905  45.567  31.320  1.00  0.00     0.272 C 
HETATM   40  C3  UNL     1      27.143  45.457  32.187  1.00  0.00     0.032 C 
HETATM   41  C4  UNL     1      26.942  44.099  32.828  1.00  0.00     0.040 C 
ENDBRANCH  19  36
BRANCH  24  42
HETATM   42  C20 UNL     1      22.682  42.508  36.323  1.00  0.00     0.197 C 
HETATM   43  O4  UNL     1      23.654  42.421  37.102  1.00  0.00    -0.646 OA
HETATM   44  O5  UNL     1      21.561  43.202  36.707  1.00  0.00    -0.646 OA
ENDBRANCH  24  42
ENDBRANCH   4   5
ENDBRANCH   1   4
TORSDOF 4
ENDMDL
MODEL 5
REMARK VINA RESULT: -4.303411810      2.584      3.359
REMARK  4 active torsions:
REMARK  status: ('A' for Active; 'I' for Inactive)
REMARK    1  A    between atoms: C5_6  and  C6_7 
REMARK    2  A    between atoms: C12_24  and  C13_25 
REMARK    3  A    between atoms: C13_25  and  C14_26 
REMARK    4  A    between atoms: C19_37  and  C20_38 
ROOT
HETATM    1  C14 UNL     1      24.209  44.415  33.101  1.00  0.00     0.126 C 
HETATM    2  C15 UNL     1      24.947  45.011  31.960  1.00  0.00     0.059 C 
HETATM    3  N6  UNL     1      25.523  45.459  31.061  1.00  0.00    -0.197 NA
ENDROOT
BRANCH   1   4
HETATM    4  C13 UNL     1      25.212  43.673  33.913  1.00  0.00     0.047 C 
BRANCH   4   5
HETATM    5  C12 UNL     1      24.924  42.198  34.053  1.00  0.00     0.152 C 
HETATM    6  C11 UNL     1      25.356  41.412  32.897  1.00  0.00     0.093 C 
HETATM    7  N4  UNL     1      24.553  40.996  31.820  1.00  0.00    -0.377 N 
HETATM    8  N5  UNL     1      26.626  41.069  32.874  1.00  0.00    -0.387 N 
HETATM    9  C10 UNL     1      23.193  40.563  31.845  1.00  0.00     0.148 C 
ATOM     10  H4  UNL     1      25.000  41.004  30.903  1.00  0.00     0.160 HD
HETATM   11  C9  UNL     1      22.972  39.527  30.763  1.00  0.00     0.252 C 
HETATM   12  N3  UNL     1      21.864  38.661  31.064  1.00  0.00    -0.065 N 
HETATM   13  C8  UNL     1      22.192  37.331  30.591  1.00  0.00     0.334 C 
ATOM     14  H32 UNL     1      20.980  39.006  30.689  1.00  0.00     0.277 HD
ATOM     15  H31 UNL     1      21.608  38.676  32.052  1.00  0.00     0.277 HD
HETATM   16  C7  UNL     1      20.978  36.518  30.332  1.00  0.00     0.244 C 
HETATM   17  N2  UNL     1      20.084  36.118  31.332  1.00  0.00    -0.344 N 
HETATM   18  O1  UNL     1      20.754  36.177  29.141  1.00  0.00    -0.272 OA
HETATM   19  C6  UNL     1      20.483  35.714  32.679  1.00  0.00     0.210 C 
ATOM     20  H2  UNL     1      19.089  36.107  31.106  1.00  0.00     0.163 HD
HETATM   21  C21 UNL     1      19.961  36.707  33.655  1.00  0.00     0.243 C 
HETATM   22  N8  UNL     1      20.762  37.421  34.567  1.00  0.00    -0.344 N 
HETATM   23  O6  UNL     1      18.709  36.899  33.638  1.00  0.00    -0.271 OA
HETATM   24  C19 UNL     1      21.866  36.848  35.312  1.00  0.00     0.197 C 
ATOM     25  H8  UNL     1      20.552  38.408  34.715  1.00  0.00     0.163 HD
HETATM   26  C18 UNL     1      23.004  37.843  35.320  1.00  0.00     0.145 C 
HETATM   27  S1  UNL     1      22.854  39.000  36.657  1.00  0.00     0.026 S 
HETATM   28  C17 UNL     1      23.796  40.461  36.378  1.00  0.00     0.211 C 
HETATM   29  O3  UNL     1      21.269  39.373  36.997  1.00  0.00    -0.258 OA
HETATM   30  C16 UNL     1      23.076  41.493  35.618  1.00  0.00     0.229 C 
HETATM   31  N7  UNL     1      23.538  42.067  34.406  1.00  0.00    -0.349 N 
HETATM   32  O2  UNL     1      21.973  41.898  36.070  1.00  0.00    -0.273 OA
ATOM     33  H7  UNL     1      22.842  42.408  33.743  1.00  0.00     0.163 HD
ATOM     34  H52 UNL     1      26.927  40.522  32.068  1.00  0.00     0.157 HD
ATOM     35  H51 UNL     1      27.207  41.371  33.656  1.00  0.00     0.157 HD
BRANCH  19  36
HETATM   36  C5  UNL     1      19.781  34.382  32.962  1.00  0.00     0.254 C 
HETATM   37  N1  UNL     1      18.717  34.516  33.908  1.00  0.00     0.091 N 
HETATM   38  C1  UNL     1      17.454  33.982  33.392  1.00  0.00     0.310 C 
HETATM   39  C2  UNL     1      19.055  33.727  35.066  1.00  0.00     0.272 C 
HETATM   40  C3  UNL     1      19.913  32.612  34.503  1.00  0.00     0.032 C 
HETATM   41  C4  UNL     1      20.752  33.361  33.488  1.00  0.00     0.040 C 
ENDBRANCH  19  36
BRANCH  24  42
HETATM   42  C20 UNL     1      21.470  36.454  36.679  1.00  0.00     0.197 C 
HETATM   43  O4  UNL     1      20.333  36.764  37.094  1.00  0.00    -0.646 OA
HETATM   44  O5  UNL     1      22.326  35.756  37.495  1.00  0.00    -0.646 OA
ENDBRANCH  24  42
ENDBRANCH   4   5
ENDBRANCH   1   4
TORSDOF 4
ENDMDL
