MODEL 1
REMARK VINA RESULT: -9.814366232      0.000      0.000
REMARK  8 active torsions:
REMARK  status: ('A' for Active; 'I' for Inactive)
REMARK    1  A    between atoms: N3_4  and  C2_6 
REMARK    2  A    between atoms: C2_6  and  C3_7 
REMARK    3  A    between atoms: C4_8  and  O1_9 
REMARK    4  A    between atoms: C5_11  and  O2_12 
REMARK    5  A    between atoms: C6_14  and  C7_15 
REMARK       I    between atoms: C7_15  and  N4_17 
REMARK    6  A    between atoms: N4_17  and  C8_19 
REMARK    7  A    between atoms: C13_24  and  C14_25 
REMARK       I    between atoms: N6_35  and  C20_36 
REMARK    8  A    between atoms: C20_36  and  C21_38 
ROOT
HETATM    1  C3  UNL     1      25.872  42.223  32.132  1.00  0.00     0.137 C 
HETATM    2  C4  UNL     1      25.317  41.019  31.351  1.00  0.00     0.173 C 
HETATM    3  C5  UNL     1      23.906  40.913  31.917  1.00  0.00     0.181 C 
HETATM    4  C6  UNL     1      23.515  42.308  32.306  1.00  0.00     0.211 C 
HETATM    5  N6  UNL     1      24.744  43.095  32.294  1.00  0.00    -0.325 N 
HETATM    6  C20 UNL     1      24.761  44.495  32.391  1.00  0.00     0.253 C 
HETATM    7  O5  UNL     1      23.676  45.159  32.529  1.00  0.00    -0.271 OA
ENDROOT
BRANCH   4   8
HETATM    8  C7  UNL     1      22.925  42.286  33.658  1.00  0.00     0.243 C 
HETATM    9  O3  UNL     1      22.994  43.326  34.394  1.00  0.00    -0.271 OA
HETATM   10  N4  UNL     1      22.273  41.140  34.182  1.00  0.00    -0.354 N 
ATOM     11  H4  UNL     1      22.200  40.295  33.617  1.00  0.00     0.162 HD
BRANCH  10  12
HETATM   12  C8  UNL     1      21.722  41.166  35.489  1.00  0.00     0.091 C 
HETATM   13  C9  UNL     1      20.301  41.750  35.436  1.00  0.00     0.026 C 
HETATM   14  C10 UNL     1      20.007  42.271  36.826  1.00  0.00     0.002 C 
HETATM   15  C11 UNL     1      20.619  41.331  37.843  1.00  0.00     0.001 C 
HETATM   16  C12 UNL     1      20.691  39.911  37.310  1.00  0.00     0.009 C 
HETATM   17  C13 UNL     1      21.752  39.862  36.215  1.00  0.00     0.046 C 
BRANCH  17  18
HETATM   18  C14 UNL     1      21.581  38.646  35.382  1.00  0.00     0.260 C 
HETATM   19  N5  UNL     1      20.264  38.406  34.891  1.00  0.00    -0.064 N 
HETATM   20  C15 UNL     1      20.300  37.349  33.898  1.00  0.00     0.233 C 
ATOM     21  H52 UNL     1      19.603  38.205  35.642  1.00  0.00     0.278 HD
ATOM     22  H51 UNL     1      19.826  39.255  34.534  1.00  0.00     0.278 HD
HETATM   23  C16 UNL     1      20.694  36.025  34.488  1.00  0.00     0.028 C 
HETATM   24  C17 UNL     1      20.206  35.832  35.900  1.00  0.00     0.009 C 
HETATM   25  C18 UNL     1      21.104  36.467  36.922  1.00  0.00     0.080 C 
HETATM   26  C19 UNL     1      21.966  37.466  36.240  1.00  0.00     0.158 C 
HETATM   27  O4  UNL     1      23.190  37.326  36.388  1.00  0.00    -0.296 OA
ENDBRANCH  17  18
ENDBRANCH  10  12
ENDBRANCH   4   8
BRANCH   3  28
HETATM   28  O2  UNL     1      23.023  40.400  30.982  1.00  0.00    -0.390 OA
ATOM     29  H2  UNL     1      23.103  39.456  30.908  1.00  0.00     0.210 HD
ENDBRANCH   3  28
BRANCH   2  30
HETATM   30  O1  UNL     1      25.263  41.383  30.018  1.00  0.00    -0.391 OA
ATOM     31  H1  UNL     1      24.416  41.113  29.686  1.00  0.00     0.210 HD
ENDBRANCH   2  30
BRANCH   1  32
HETATM   32  C2  UNL     1      26.416  41.731  33.438  1.00  0.00     0.150 C 
BRANCH  32  33
HETATM   33  N3  UNL     1      26.257  40.283  33.528  1.00  0.00    -0.365 N 
HETATM   34  C1  UNL     1      25.752  39.790  34.587  1.00  0.00     0.197 C 
HETATM   35  N1  UNL     1      25.353  40.624  35.650  1.00  0.00    -0.067 NA
HETATM   36  N2  UNL     1      25.589  38.391  34.703  1.00  0.00    -0.067 NA
ATOM     37  H3  UNL     1      26.545  39.678  32.758  1.00  0.00     0.161 HD
ENDBRANCH  32  33
ENDBRANCH   1  32
BRANCH   6  38
HETATM   38  C21 UNL     1      26.005  45.296  32.340  1.00  0.00     0.294 C 
HETATM   39  C22 UNL     1      25.684  46.688  31.840  1.00  0.00     0.156 C 
HETATM   40  N7  UNL     1      26.818  47.506  31.636  1.00  0.00    -0.417 N 
HETATM   41  C23 UNL     1      28.070  46.872  31.497  1.00  0.00     0.141 C 
ATOM     42  H7  UNL     1      26.733  48.521  31.590  1.00  0.00     0.153 HD
HETATM   43  C24 UNL     1      28.101  45.410  31.347  1.00  0.00     0.252 C 
HETATM   44  N8  UNL     1      26.834  44.744  31.238  1.00  0.00    -0.059 N 
ATOM     45  H82 UNL     1      26.903  43.727  31.244  1.00  0.00     0.278 HD
ATOM     46  H81 UNL     1      26.403  44.828  30.317  1.00  0.00     0.278 HD
ENDBRANCH   6  38
TORSDOF 8
ENDMDL
MODEL 2
REMARK VINA RESULT: -9.637627600      3.275      9.021
REMARK  8 active torsions:
REMARK  status: ('A' for Active; 'I' for Inactive)
REMARK    1  A    between atoms: N3_4  and  C2_6 
REMARK    2  A    between atoms: C2_6  and  C3_7 
REMARK    3  A    between atoms: C4_8  and  O1_9 
REMARK    4  A    between atoms: C5_11  and  O2_12 
REMARK    5  A    between atoms: C6_14  and  C7_15 
REMARK       I    between atoms: C7_15  and  N4_17 
REMARK    6  A    between atoms: N4_17  and  C8_19 
REMARK    7  A    between atoms: C13_24  and  C14_25 
REMARK       I    between atoms: N6_35  and  C20_36 
REMARK    8  A    between atoms: C20_36  and  C21_38 
ROOT
HETATM    1  C3  UNL     1      20.859  35.494  32.813  1.00  0.00     0.137 C 
HETATM    2  C4  UNL     1      22.392  35.541  32.927  1.00  0.00     0.173 C 
HETATM    3  C5  UNL     1      22.579  36.398  34.173  1.00  0.00     0.181 C 
HETATM    4  C6  UNL     1      21.371  36.147  35.027  1.00  0.00     0.211 C 
HETATM    5  N6  UNL     1      20.399  35.473  34.172  1.00  0.00    -0.325 N 
HETATM    6  C20 UNL     1      19.226  34.879  34.662  1.00  0.00     0.253 C 
HETATM    7  O5  UNL     1      18.934  34.928  35.907  1.00  0.00    -0.271 OA
ENDROOT
BRANCH   4   8
HETATM    8  C7  UNL     1      20.839  37.438  35.504  1.00  0.00     0.243 C 
HETATM    9  O3  UNL     1      19.732  37.469  36.136  1.00  0.00    -0.271 OA
HETATM   10  N4  UNL     1      21.518  38.664  35.286  1.00  0.00    -0.354 N 
ATOM     11  H4  UNL     1      22.406  38.671  34.786  1.00  0.00     0.162 HD
BRANCH  10  12
HETATM   12  C8  UNL     1      20.965  39.881  35.762  1.00  0.00     0.091 C 
HETATM   13  C9  UNL     1      21.193  39.991  37.278  1.00  0.00     0.026 C 
HETATM   14  C10 UNL     1      20.142  40.948  37.795  1.00  0.00     0.002 C 
HETATM   15  C11 UNL     1      19.936  42.048  36.776  1.00  0.00     0.001 C 
HETATM   16  C12 UNL     1      21.198  42.301  35.972  1.00  0.00     0.009 C 
HETATM   17  C13 UNL     1      21.427  41.108  35.049  1.00  0.00     0.046 C 
BRANCH  17  18
HETATM   18  C14 UNL     1      22.828  41.093  34.560  1.00  0.00     0.260 C 
HETATM   19  N5  UNL     1      23.792  41.714  35.408  1.00  0.00    -0.064 N 
HETATM   20  C15 UNL     1      25.128  41.399  34.939  1.00  0.00     0.233 C 
ATOM     21  H52 UNL     1      23.640  42.720  35.491  1.00  0.00     0.278 HD
ATOM     22  H51 UNL     1      23.659  41.465  36.388  1.00  0.00     0.278 HD
HETATM   23  C16 UNL     1      25.416  42.000  33.593  1.00  0.00     0.028 C 
HETATM   24  C17 UNL     1      24.743  43.331  33.376  1.00  0.00     0.009 C 
HETATM   25  C18 UNL     1      23.317  43.199  32.927  1.00  0.00     0.080 C 
HETATM   26  C19 UNL     1      22.844  41.827  33.243  1.00  0.00     0.158 C 
HETATM   27  O4  UNL     1      22.390  41.171  32.292  1.00  0.00    -0.296 OA
ENDBRANCH  17  18
ENDBRANCH  10  12
ENDBRANCH   4   8
BRANCH   3  28
HETATM   28  O2  UNL     1      23.737  36.058  34.852  1.00  0.00    -0.390 OA
ATOM     29  H2  UNL     1      23.740  36.410  35.734  1.00  0.00     0.210 HD
ENDBRANCH   3  28
BRANCH   2  30
HETATM   30  O1  UNL     1      22.825  34.252  33.173  1.00  0.00    -0.391 OA
ATOM     31  H1  UNL     1      23.459  34.297  33.879  1.00  0.00     0.210 HD
ENDBRANCH   2  30
BRANCH   1  32
HETATM   32  C2  UNL     1      20.402  36.710  32.066  1.00  0.00     0.150 C 
BRANCH  32  33
HETATM   33  N3  UNL     1      19.896  36.325  30.752  1.00  0.00    -0.365 N 
HETATM   34  C1  UNL     1      20.638  36.512  29.735  1.00  0.00     0.197 C 
HETATM   35  N1  UNL     1      21.920  37.079  29.873  1.00  0.00    -0.067 NA
HETATM   36  N2  UNL     1      20.173  36.152  28.450  1.00  0.00    -0.067 NA
ATOM     37  H3  UNL     1      18.968  35.914  30.651  1.00  0.00     0.161 HD
ENDBRANCH  32  33
ENDBRANCH   1  32
BRANCH   6  38
HETATM   38  C21 UNL     1      18.259  34.162  33.800  1.00  0.00     0.294 C 
HETATM   39  C22 UNL     1      16.887  34.211  34.438  1.00  0.00     0.156 C 
HETATM   40  N7  UNL     1      15.906  33.454  33.760  1.00  0.00    -0.417 N 
HETATM   41  C23 UNL     1      16.347  32.444  32.880  1.00  0.00     0.141 C 
ATOM     42  H7  UNL     1      14.913  33.631  33.903  1.00  0.00     0.153 HD
HETATM   43  C24 UNL     1      17.773  32.085  32.885  1.00  0.00     0.252 C 
HETATM   44  N8  UNL     1      18.596  32.717  33.876  1.00  0.00    -0.059 N 
ATOM     45  H82 UNL     1      19.591  32.521  33.771  1.00  0.00     0.278 HD
ATOM     46  H81 UNL     1      18.494  32.320  34.810  1.00  0.00     0.278 HD
ENDBRANCH   6  38
TORSDOF 8
ENDMDL
MODEL 3
REMARK VINA RESULT: -9.561389801      1.219      1.641
REMARK  8 active torsions:
REMARK  status: ('A' for Active; 'I' for Inactive)
REMARK    1  A    between atoms: N3_4  and  C2_6 
REMARK    2  A    between atoms: C2_6  and  C3_7 
REMARK    3  A    between atoms: C4_8  and  O1_9 
REMARK    4  A    between atoms: C5_11  and  O2_12 
REMARK    5  A    between atoms: C6_14  and  C7_15 
REMARK       I    between atoms: C7_15  and  N4_17 
REMARK    6  A    between atoms: N4_17  and  C8_19 
REMARK    7  A    between atoms: C13_24  and  C14_25 
REMARK       I    between atoms: N6_35  and  C20_36 
REMARK    8  A    between atoms: C20_36  and  C21_38 
ROOT
HETATM    1  C3  UNL     1      26.047  42.369  31.904  1.00  0.00     0.137 C 
HETATM    2  C4  UNL     1      25.505  41.151  31.137  1.00  0.00     0.173 C 
HETATM    3  C5  UNL     1      24.163  40.929  31.825  1.00  0.00     0.181 C 
HETATM    4  C6  UNL     1      23.717  42.282  32.295  1.00  0.00     0.211 C 
HETATM    5  N6  UNL     1      24.882  43.155  32.197  1.00  0.00    -0.325 N 
HETATM    6  C20 UNL     1      24.814  44.548  32.339  1.00  0.00     0.253 C 
HETATM    7  O5  UNL     1      23.704  45.130  32.597  1.00  0.00    -0.271 OA
ENDROOT
BRANCH   4   8
HETATM    8  C7  UNL     1      23.258  42.181  33.693  1.00  0.00     0.243 C 
HETATM    9  O3  UNL     1      23.904  42.783  34.614  1.00  0.00    -0.271 OA
HETATM   10  N4  UNL     1      22.111  41.433  34.063  1.00  0.00    -0.354 N 
ATOM     11  H4  UNL     1      21.573  40.944  33.349  1.00  0.00     0.162 HD
BRANCH  10  12
HETATM   12  C8  UNL     1      21.710  41.364  35.422  1.00  0.00     0.091 C 
HETATM   13  C9  UNL     1      20.258  41.852  35.555  1.00  0.00     0.026 C 
HETATM   14  C10 UNL     1      20.089  42.290  36.993  1.00  0.00     0.002 C 
HETATM   15  C11 UNL     1      20.869  41.351  37.887  1.00  0.00     0.001 C 
HETATM   16  C12 UNL     1      20.970  39.964  37.278  1.00  0.00     0.009 C 
HETATM   17  C13 UNL     1      21.902  40.035  36.073  1.00  0.00     0.046 C 
BRANCH  17  18
HETATM   18  C14 UNL     1      21.715  38.848  35.203  1.00  0.00     0.260 C 
HETATM   19  N5  UNL     1      20.366  38.438  34.987  1.00  0.00    -0.064 N 
HETATM   20  C15 UNL     1      20.322  37.446  33.928  1.00  0.00     0.233 C 
ATOM     21  H52 UNL     1      19.923  38.105  35.844  1.00  0.00     0.278 HD
ATOM     22  H51 UNL     1      19.750  39.229  34.800  1.00  0.00     0.278 HD
HETATM   23  C16 UNL     1      21.012  36.169  34.314  1.00  0.00     0.028 C 
HETATM   24  C17 UNL     1      20.883  35.839  35.779  1.00  0.00     0.009 C 
HETATM   25  C18 UNL     1      21.891  36.552  36.631  1.00  0.00     0.080 C 
HETATM   26  C19 UNL     1      22.437  37.699  35.863  1.00  0.00     0.158 C 
HETATM   27  O4  UNL     1      23.671  37.735  35.733  1.00  0.00    -0.296 OA
ENDBRANCH  17  18
ENDBRANCH  10  12
ENDBRANCH   4   8
BRANCH   3  28
HETATM   28  O2  UNL     1      23.234  40.381  30.957  1.00  0.00    -0.390 OA
ATOM     29  H2  UNL     1      23.344  39.440  30.878  1.00  0.00     0.210 HD
ENDBRANCH   3  28
BRANCH   2  30
HETATM   30  O1  UNL     1      25.302  41.545  29.828  1.00  0.00    -0.391 OA
ATOM     31  H1  UNL     1      24.738  42.309  29.847  1.00  0.00     0.210 HD
ENDBRANCH   2  30
BRANCH   1  32
HETATM   32  C2  UNL     1      26.742  41.881  33.137  1.00  0.00     0.150 C 
BRANCH  32  33
HETATM   33  N3  UNL     1      28.182  41.820  32.906  1.00  0.00    -0.365 N 
HETATM   34  C1  UNL     1      28.901  42.803  33.278  1.00  0.00     0.197 C 
HETATM   35  N1  UNL     1      28.320  43.924  33.901  1.00  0.00    -0.067 NA
HETATM   36  N2  UNL     1      30.297  42.773  33.063  1.00  0.00    -0.067 NA
ATOM     37  H3  UNL     1      28.603  41.008  32.455  1.00  0.00     0.161 HD
ENDBRANCH  32  33
ENDBRANCH   1  32
BRANCH   6  38
HETATM   38  C21 UNL     1      25.990  45.437  32.201  1.00  0.00     0.294 C 
HETATM   39  C22 UNL     1      25.548  46.771  31.639  1.00  0.00     0.156 C 
HETATM   40  N7  UNL     1      26.608  47.659  31.352  1.00  0.00    -0.417 N 
HETATM   41  C23 UNL     1      27.900  47.114  31.204  1.00  0.00     0.141 C 
ATOM     42  H7  UNL     1      26.444  48.660  31.255  1.00  0.00     0.153 HD
HETATM   43  C24 UNL     1      28.039  45.652  31.131  1.00  0.00     0.252 C 
HETATM   44  N8  UNL     1      26.825  44.888  31.102  1.00  0.00    -0.059 N 
ATOM     45  H82 UNL     1      26.971  43.880  31.161  1.00  0.00     0.278 HD
ATOM     46  H81 UNL     1      26.361  44.888  30.194  1.00  0.00     0.278 HD
ENDBRANCH   6  38
TORSDOF 8
ENDMDL
MODEL 4
REMARK VINA RESULT: -9.556896187      3.112      6.446
REMARK  8 active torsions:
REMARK  status: ('A' for Active; 'I' for Inactive)
REMARK    1  A    between atoms: N3_4  and  C2_6 
REMARK    2  A    between atoms: C2_6  and  C3_7 
REMARK    3  A    between atoms: C4_8  and  O1_9 
REMARK    4  A    between atoms: C5_11  and  O2_12 
REMARK    5  A    between atoms: C6_14  and  C7_15 
REMARK       I    between atoms: C7_15  and  N4_17 
REMARK    6  A    between atoms: N4_17  and  C8_19 
REMARK    7  A    between atoms: C13_24  and  C14_25 
REMARK       I    between atoms: N6_35  and  C20_36 
REMARK    8  A    between atoms: C20_36  and  C21_38 
ROOT
HETATM    1  C3  UNL     1      23.152  39.715  33.585  1.00  0.00     0.137 C 
HETATM    2  C4  UNL     1      23.320  39.566  32.063  1.00  0.00     0.173 C 
HETATM    3  C5  UNL     1      22.850  38.133  31.843  1.00  0.00     0.181 C 
HETATM    4  C6  UNL     1      21.838  37.864  32.918  1.00  0.00     0.211 C 
HETATM    5  N6  UNL     1      21.983  38.940  33.893  1.00  0.00    -0.325 N 
HETATM    6  C20 UNL     1      21.069  39.163  34.934  1.00  0.00     0.253 C 
HETATM    7  O5  UNL     1      20.058  38.397  35.097  1.00  0.00    -0.271 OA
ENDROOT
BRANCH   4   8
HETATM    8  C7  UNL     1      22.127  36.558  33.538  1.00  0.00     0.243 C 
HETATM    9  O3  UNL     1      23.177  35.917  33.198  1.00  0.00    -0.271 OA
HETATM   10  N4  UNL     1      21.275  35.975  34.511  1.00  0.00    -0.354 N 
ATOM     11  H4  UNL     1      20.431  36.464  34.804  1.00  0.00     0.162 HD
BRANCH  10  12
HETATM   12  C8  UNL     1      21.594  34.714  35.077  1.00  0.00     0.091 C 
HETATM   13  C9  UNL     1      21.715  34.852  36.604  1.00  0.00     0.026 C 
HETATM   14  C10 UNL     1      22.577  33.698  37.065  1.00  0.00     0.002 C 
HETATM   15  C11 UNL     1      22.244  32.475  36.238  1.00  0.00     0.001 C 
HETATM   16  C12 UNL     1      20.805  32.507  35.757  1.00  0.00     0.009 C 
HETATM   17  C13 UNL     1      20.676  33.599  34.700  1.00  0.00     0.046 C 
BRANCH  17  18
HETATM   18  C14 UNL     1      19.251  33.964  34.502  1.00  0.00     0.260 C 
HETATM   19  N5  UNL     1      18.310  33.264  35.313  1.00  0.00    -0.064 N 
HETATM   20  C15 UNL     1      17.008  33.896  35.203  1.00  0.00     0.233 C 
ATOM     21  H52 UNL     1      18.274  32.269  35.090  1.00  0.00     0.278 HD
ATOM     22  H51 UNL     1      18.620  33.187  36.282  1.00  0.00     0.278 HD
HETATM   23  C16 UNL     1      16.430  33.774  33.822  1.00  0.00     0.028 C 
HETATM   24  C17 UNL     1      16.798  32.486  33.131  1.00  0.00     0.009 C 
HETATM   25  C18 UNL     1      18.149  32.537  32.479  1.00  0.00     0.080 C 
HETATM   26  C19 UNL     1      18.916  33.668  33.061  1.00  0.00     0.158 C 
HETATM   27  O4  UNL     1      19.354  34.505  32.257  1.00  0.00    -0.296 OA
ENDBRANCH  17  18
ENDBRANCH  10  12
ENDBRANCH   4   8
BRANCH   3  28
HETATM   28  O2  UNL     1      22.285  37.973  30.589  1.00  0.00    -0.390 OA
ATOM     29  H2  UNL     1      21.337  38.027  30.625  1.00  0.00     0.210 HD
ENDBRANCH   3  28
BRANCH   2  30
HETATM   30  O1  UNL     1      22.439  40.447  31.464  1.00  0.00    -0.391 OA
ATOM     31  H1  UNL     1      21.625  40.408  31.952  1.00  0.00     0.210 HD
ENDBRANCH   2  30
BRANCH   1  32
HETATM   32  C2  UNL     1      24.387  39.189  34.251  1.00  0.00     0.150 C 
BRANCH  32  33
HETATM   33  N3  UNL     1      25.567  39.844  33.697  1.00  0.00    -0.365 N 
HETATM   34  C1  UNL     1      25.949  40.946  34.208  1.00  0.00     0.197 C 
HETATM   35  N1  UNL     1      25.249  41.521  35.285  1.00  0.00    -0.067 NA
HETATM   36  N2  UNL     1      27.087  41.604  33.689  1.00  0.00    -0.067 NA
ATOM     37  H3  UNL     1      26.075  39.428  32.916  1.00  0.00     0.161 HD
ENDBRANCH  32  33
ENDBRANCH   1  32
BRANCH   6  38
HETATM   38  C21 UNL     1      21.195  40.278  35.900  1.00  0.00     0.294 C 
HETATM   39  C22 UNL     1      20.625  39.851  37.236  1.00  0.00     0.156 C 
HETATM   40  N7  UNL     1      20.583  40.879  38.203  1.00  0.00    -0.417 N 
HETATM   41  C23 UNL     1      20.652  42.213  37.748  1.00  0.00     0.141 C 
ATOM     42  H7  UNL     1      20.506  40.664  39.196  1.00  0.00     0.153 HD
HETATM   43  C24 UNL     1      20.536  42.467  36.305  1.00  0.00     0.252 C 
HETATM   44  N8  UNL     1      20.245  41.337  35.471  1.00  0.00    -0.059 N 
ATOM     45  H82 UNL     1      20.282  41.542  34.472  1.00  0.00     0.278 HD
ATOM     46  H81 UNL     1      19.268  41.047  35.497  1.00  0.00     0.278 HD
ENDBRANCH   6  38
TORSDOF 8
ENDMDL
MODEL 5
REMARK VINA RESULT: -9.340153202      1.756      2.338
REMARK  8 active torsions:
REMARK  status: ('A' for Active; 'I' for Inactive)
REMARK    1  A    between atoms: N3_4  and  C2_6 
REMARK    2  A    between atoms: C2_6  and  C3_7 
REMARK    3  A    between atoms: C4_8  and  O1_9 
REMARK    4  A    between atoms: C5_11  and  O2_12 
REMARK    5  A    between atoms: C6_14  and  C7_15 
REMARK       I    between atoms: C7_15  and  N4_17 
REMARK    6  A    between atoms: N4_17  and  C8_19 
REMARK    7  A    between atoms: C13_24  and  C14_25 
REMARK       I    between atoms: N6_35  and  C20_36 
REMARK    8  A    between atoms: C20_36  and  C21_38 
ROOT
HETATM    1  C3  UNL     1      27.124  43.003  31.818  1.00  0.00     0.137 C 
HETATM    2  C4  UNL     1      26.783  41.715  31.049  1.00  0.00     0.173 C 
HETATM    3  C5  UNL     1      25.363  41.440  31.528  1.00  0.00     0.181 C 
HETATM    4  C6  UNL     1      24.769  42.782  31.840  1.00  0.00     0.211 C 
HETATM    5  N6  UNL     1      25.883  43.723  31.877  1.00  0.00    -0.325 N 
HETATM    6  C20 UNL     1      25.712  45.115  31.924  1.00  0.00     0.253 C 
HETATM    7  O5  UNL     1      24.544  45.634  31.967  1.00  0.00    -0.271 OA
ENDROOT
BRANCH   4   8
HETATM    8  C7  UNL     1      24.097  42.720  33.152  1.00  0.00     0.243 C 
HETATM    9  O3  UNL     1      24.468  43.503  34.088  1.00  0.00    -0.271 OA
HETATM   10  N4  UNL     1      23.039  41.814  33.420  1.00  0.00    -0.354 N 
ATOM     11  H4  UNL     1      22.719  41.177  32.690  1.00  0.00     0.162 HD
BRANCH  10  12
HETATM   12  C8  UNL     1      22.424  41.789  34.698  1.00  0.00     0.091 C 
HETATM   13  C9  UNL     1      20.936  42.151  34.560  1.00  0.00     0.026 C 
HETATM   14  C10 UNL     1      20.496  42.656  35.916  1.00  0.00     0.002 C 
HETATM   15  C11 UNL     1      21.189  41.847  36.991  1.00  0.00     0.001 C 
HETATM   16  C12 UNL     1      21.500  40.441  36.510  1.00  0.00     0.009 C 
HETATM   17  C13 UNL     1      22.611  40.525  35.467  1.00  0.00     0.046 C 
BRANCH  17  18
HETATM   18  C14 UNL     1      22.667  39.276  34.669  1.00  0.00     0.260 C 
HETATM   19  N5  UNL     1      21.464  38.910  33.996  1.00  0.00    -0.064 N 
HETATM   20  C15 UNL     1      21.736  37.833  33.063  1.00  0.00     0.233 C 
ATOM     21  H52 UNL     1      20.715  38.674  34.647  1.00  0.00     0.278 HD
ATOM     22  H51 UNL     1      21.019  39.709  33.543  1.00  0.00     0.278 HD
HETATM   23  C16 UNL     1      22.140  36.564  33.758  1.00  0.00     0.028 C 
HETATM   24  C17 UNL     1      21.460  36.369  35.088  1.00  0.00     0.009 C 
HETATM   25  C18 UNL     1      22.137  37.108  36.206  1.00  0.00     0.080 C 
HETATM   26  C19 UNL     1      23.010  38.157  35.622  1.00  0.00     0.158 C 
HETATM   27  O4  UNL     1      24.205  38.126  35.956  1.00  0.00    -0.296 OA
ENDBRANCH  17  18
ENDBRANCH  10  12
ENDBRANCH   4   8
BRANCH   3  28
HETATM   28  O2  UNL     1      24.619  40.789  30.558  1.00  0.00    -0.390 OA
ATOM     29  H2  UNL     1      24.931  40.994  29.684  1.00  0.00     0.210 HD
ENDBRANCH   3  28
BRANCH   2  30
HETATM   30  O1  UNL     1      26.772  42.031  29.703  1.00  0.00    -0.391 OA
ATOM     31  H1  UNL     1      25.866  42.162  29.451  1.00  0.00     0.210 HD
ENDBRANCH   2  30
BRANCH   1  32
HETATM   32  C2  UNL     1      27.637  42.624  33.173  1.00  0.00     0.150 C 
BRANCH  32  33
HETATM   33  N3  UNL     1      29.094  42.704  33.193  1.00  0.00    -0.365 N 
HETATM   34  C1  UNL     1      29.640  43.735  33.703  1.00  0.00     0.197 C 
HETATM   35  N1  UNL     1      28.856  44.775  34.238  1.00  0.00    -0.067 NA
HETATM   36  N2  UNL     1      31.049  43.841  33.733  1.00  0.00    -0.067 NA
ATOM     37  H3  UNL     1      29.662  41.951  32.806  1.00  0.00     0.161 HD
ENDBRANCH  32  33
ENDBRANCH   1  32
BRANCH   6  38
HETATM   38  C21 UNL     1      26.842  46.072  31.921  1.00  0.00     0.294 C 
HETATM   39  C22 UNL     1      26.421  47.343  31.216  1.00  0.00     0.156 C 
HETATM   40  N7  UNL     1      27.461  48.284  31.049  1.00  0.00    -0.417 N 
HETATM   41  C23 UNL     1      28.790  47.819  31.141  1.00  0.00     0.141 C 
ATOM     42  H7  UNL     1      27.258  49.267  30.867  1.00  0.00     0.153 HD
HETATM   43  C24 UNL     1      29.022  46.368  31.180  1.00  0.00     0.252 C 
HETATM   44  N8  UNL     1      27.875  45.525  31.004  1.00  0.00    -0.059 N 
ATOM     45  H82 UNL     1      28.068  44.533  31.146  1.00  0.00     0.278 HD
ATOM     46  H81 UNL     1      27.565  45.448  30.035  1.00  0.00     0.278 HD
ENDBRANCH   6  38
TORSDOF 8
ENDMDL
