MODEL 1
REMARK VINA RESULT: -5.887181513      0.000      0.000
REMARK  6 active torsions:
REMARK  status: ('A' for Active; 'I' for Inactive)
REMARK    1  A    between atoms: N1_1  and  C1_5 
REMARK    2  A    between atoms: C1_5  and  C2_6 
REMARK    3  A    between atoms: C8_14  and  C9_15 
REMARK    4  A    between atoms: C9_15  and  C10_16 
REMARK    5  A    between atoms: C10_16  and  C11_17 
REMARK    6  A    between atoms: C11_17  and  N3_18 
ROOT
HETATM    1  C2  UNL     1      19.947  40.705  37.249  1.00  0.00     0.156 C 
HETATM    2  C3  UNL     1      20.141  39.578  38.220  1.00  0.00     0.034 C 
HETATM    3  C4  UNL     1      19.590  38.315  37.614  1.00  0.00     0.004 C 
HETATM    4  C5  UNL     1      20.639  37.249  37.451  1.00  0.00     0.020 C 
HETATM    5  C6  UNL     1      21.953  37.786  36.975  1.00  0.00     0.134 C 
HETATM    6  N2  UNL     1      21.813  38.662  35.804  1.00  0.00    -0.292 N 
HETATM    7  C7  UNL     1      21.905  37.753  34.743  1.00  0.00     0.248 C 
HETATM    8  O1  UNL     1      21.797  36.497  34.991  1.00  0.00    -0.271 OA
HETATM    9  C8  UNL     1      22.119  38.040  33.306  1.00  0.00     0.179 C 
HETATM   10  N6  UNL     1      23.308  37.355  32.805  1.00  0.00    -0.330 N 
ATOM     11  H6  UNL     1      23.187  36.409  32.442  1.00  0.00     0.165 HD
HETATM   12  C13 UNL     1      24.608  37.895  32.782  1.00  0.00     0.316 C 
HETATM   13  O2  UNL     1      25.548  37.132  33.217  1.00  0.00    -0.247 OA
HETATM   14  N7  UNL     1      24.998  39.176  32.337  1.00  0.00    -0.342 N 
ATOM     15  H7  UNL     1      25.618  39.705  32.949  1.00  0.00     0.164 HD
HETATM   16  C14 UNL     1      24.604  39.814  31.100  1.00  0.00     0.144 C 
HETATM   17  C15 UNL     1      23.975  41.166  31.317  1.00  0.00     0.142 C 
HETATM   18  N8  UNL     1      24.916  42.253  31.118  1.00  0.00    -0.359 N 
ATOM     19  H8  UNL     1      25.098  42.539  30.156  1.00  0.00     0.162 HD
HETATM   20  C16 UNL     1      25.595  42.943  32.126  1.00  0.00     0.227 C 
HETATM   21  O3  UNL     1      26.812  43.265  31.872  1.00  0.00    -0.273 OA
HETATM   22  C17 UNL     1      25.068  43.335  33.432  1.00  0.00     0.182 C 
HETATM   23  S1  UNL     1      23.314  43.668  33.480  1.00  0.00    -0.115 SA
HETATM   24  C18 UNL     1      22.425  42.868  34.798  1.00  0.00     0.137 C 
HETATM   25  N9  UNL     1      23.226  42.124  35.711  1.00  0.00    -0.324 N 
ATOM     26  H9  UNL     1      24.124  42.496  36.018  1.00  0.00     0.169 HD
HETATM   27  C19 UNL     1      22.781  40.867  36.195  1.00  0.00     0.297 C 
HETATM   28  O4  UNL     1      23.446  40.379  37.140  1.00  0.00    -0.263 OA
HETATM   29  C20 UNL     1      21.622  40.106  35.688  1.00  0.00     0.217 C 
HETATM   30  O5  UNL     1      20.405  40.566  36.010  1.00  0.00    -0.324 OA
ENDROOT
BRANCH   9  31
HETATM   31  C9  UNL     1      20.936  37.458  32.529  1.00  0.00     0.037 C 
BRANCH  31  32
HETATM   32  C10 UNL     1      21.276  37.333  31.060  1.00  0.00     0.022 C 
BRANCH  32  33
HETATM   33  C11 UNL     1      20.511  36.185  30.432  1.00  0.00     0.122 C 
BRANCH  33  34
HETATM   34  N3  UNL     1      20.299  36.527  29.044  1.00  0.00    -0.367 N 
HETATM   35  C12 UNL     1      20.044  35.604  28.205  1.00  0.00     0.196 C 
HETATM   36  N4  UNL     1      19.844  36.010  26.842  1.00  0.00    -0.067 NA
HETATM   37  N5  UNL     1      19.963  34.254  28.595  1.00  0.00    -0.067 NA
ATOM     38  H3  UNL     1      20.352  37.499  28.740  1.00  0.00     0.161 HD
ENDBRANCH  33  34
ENDBRANCH  32  33
ENDBRANCH  31  32
ENDBRANCH   9  31
BRANCH   1  39
HETATM   39  C1  UNL     1      20.298  42.025  37.953  1.00  0.00     0.262 C 
BRANCH  39  40
HETATM   40  N1  UNL     1      20.011  43.138  37.032  1.00  0.00    -0.077 N 
ATOM     41  H13 UNL     1      19.895  42.827  36.067  1.00  0.00     0.274 HD
ATOM     42  H12 UNL     1      19.077  43.527  37.167  1.00  0.00     0.274 HD
ATOM     43  H11 UNL     1      20.744  43.839  37.132  1.00  0.00     0.274 HD
ENDBRANCH  39  40
ENDBRANCH   1  39
TORSDOF 6
ENDMDL
MODEL 2
REMARK VINA RESULT: -5.482892057      1.897      2.282
REMARK  6 active torsions:
REMARK  status: ('A' for Active; 'I' for Inactive)
REMARK    1  A    between atoms: N1_1  and  C1_5 
REMARK    2  A    between atoms: C1_5  and  C2_6 
REMARK    3  A    between atoms: C8_14  and  C9_15 
REMARK    4  A    between atoms: C9_15  and  C10_16 
REMARK    5  A    between atoms: C10_16  and  C11_17 
REMARK    6  A    between atoms: C11_17  and  N3_18 
ROOT
HETATM    1  C2  UNL     1      20.030  41.065  37.302  1.00  0.00     0.156 C 
HETATM    2  C3  UNL     1      20.105  39.996  38.352  1.00  0.00     0.034 C 
HETATM    3  C4  UNL     1      19.436  38.753  37.828  1.00  0.00     0.004 C 
HETATM    4  C5  UNL     1      20.376  37.581  37.754  1.00  0.00     0.020 C 
HETATM    5  C6  UNL     1      21.740  37.951  37.260  1.00  0.00     0.134 C 
HETATM    6  N2  UNL     1      21.696  38.753  36.029  1.00  0.00    -0.292 N 
HETATM    7  C7  UNL     1      21.705  37.766  35.035  1.00  0.00     0.248 C 
HETATM    8  O1  UNL     1      21.472  36.548  35.368  1.00  0.00    -0.271 OA
HETATM    9  C8  UNL     1      21.957  37.929  33.584  1.00  0.00     0.179 C 
HETATM   10  N6  UNL     1      23.075  37.097  33.149  1.00  0.00    -0.330 N 
ATOM     11  H6  UNL     1      22.864  36.144  32.851  1.00  0.00     0.165 HD
HETATM   12  C13 UNL     1      24.423  37.504  33.107  1.00  0.00     0.316 C 
HETATM   13  O2  UNL     1      25.280  36.685  33.607  1.00  0.00    -0.247 OA
HETATM   14  N7  UNL     1      24.940  38.706  32.579  1.00  0.00    -0.342 N 
ATOM     15  H7  UNL     1      25.605  39.213  33.162  1.00  0.00     0.164 HD
HETATM   16  C14 UNL     1      24.620  39.291  31.295  1.00  0.00     0.144 C 
HETATM   17  C15 UNL     1      24.126  40.710  31.410  1.00  0.00     0.142 C 
HETATM   18  N8  UNL     1      25.171  41.682  31.148  1.00  0.00    -0.359 N 
ATOM     19  H8  UNL     1      25.387  41.881  30.171  1.00  0.00     0.162 HD
HETATM   20  C16 UNL     1      25.908  42.372  32.116  1.00  0.00     0.227 C 
HETATM   21  O3  UNL     1      27.152  42.554  31.857  1.00  0.00    -0.273 OA
HETATM   22  C17 UNL     1      25.413  42.904  33.383  1.00  0.00     0.182 C 
HETATM   23  S1  UNL     1      23.700  43.411  33.384  1.00  0.00    -0.115 SA
HETATM   24  C18 UNL     1      22.727  42.797  34.741  1.00  0.00     0.137 C 
HETATM   25  N9  UNL     1      23.445  42.043  35.715  1.00  0.00    -0.324 N 
ATOM     26  H9  UNL     1      24.373  42.346  36.008  1.00  0.00     0.169 HD
HETATM   27  C19 UNL     1      22.874  40.874  36.279  1.00  0.00     0.297 C 
HETATM   28  O4  UNL     1      23.481  40.391  37.265  1.00  0.00    -0.263 OA
HETATM   29  C20 UNL     1      21.649  40.197  35.810  1.00  0.00     0.217 C 
HETATM   30  O5  UNL     1      20.481  40.795  36.082  1.00  0.00    -0.324 OA
ENDROOT
BRANCH   9  31
HETATM   31  C9  UNL     1      20.727  37.412  32.833  1.00  0.00     0.037 C 
BRANCH  31  32
HETATM   32  C10 UNL     1      21.068  36.159  32.057  1.00  0.00     0.022 C 
BRANCH  32  33
HETATM   33  C11 UNL     1      19.995  35.105  32.247  1.00  0.00     0.122 C 
BRANCH  33  34
HETATM   34  N3  UNL     1      19.821  34.931  33.671  1.00  0.00    -0.367 N 
HETATM   35  C12 UNL     1      18.750  34.399  34.109  1.00  0.00     0.196 C 
HETATM   36  N4  UNL     1      18.639  34.255  35.533  1.00  0.00    -0.067 NA
HETATM   37  N5  UNL     1      17.729  33.974  33.239  1.00  0.00    -0.067 NA
ATOM     38  H3  UNL     1      20.549  35.232  34.319  1.00  0.00     0.161 HD
ENDBRANCH  33  34
ENDBRANCH  32  33
ENDBRANCH  31  32
ENDBRANCH   9  31
BRANCH   1  39
HETATM   39  C1  UNL     1      20.505  42.391  37.918  1.00  0.00     0.262 C 
BRANCH  39  40
HETATM   40  N1  UNL     1      20.389  43.448  36.899  1.00  0.00    -0.077 N 
ATOM     41  H13 UNL     1      19.424  43.743  36.749  1.00  0.00     0.274 HD
ATOM     42  H12 UNL     1      20.761  44.343  37.219  1.00  0.00     0.274 HD
ATOM     43  H11 UNL     1      20.837  43.124  36.042  1.00  0.00     0.274 HD
ENDBRANCH  39  40
ENDBRANCH   1  39
TORSDOF 6
ENDMDL
MODEL 3
REMARK VINA RESULT: -4.864582024      2.971      6.679
REMARK  6 active torsions:
REMARK  status: ('A' for Active; 'I' for Inactive)
REMARK    1  A    between atoms: N1_1  and  C1_5 
REMARK    2  A    between atoms: C1_5  and  C2_6 
REMARK    3  A    between atoms: C8_14  and  C9_15 
REMARK    4  A    between atoms: C9_15  and  C10_16 
REMARK    5  A    between atoms: C10_16  and  C11_17 
REMARK    6  A    between atoms: C11_17  and  N3_18 
ROOT
HETATM    1  C2  UNL     1      22.565  40.874  37.015  1.00  0.00     0.156 C 
HETATM    2  C3  UNL     1      22.059  42.113  36.336  1.00  0.00     0.034 C 
HETATM    3  C4  UNL     1      23.000  42.474  35.219  1.00  0.00     0.004 C 
HETATM    4  C5  UNL     1      22.327  42.469  33.874  1.00  0.00     0.020 C 
HETATM    5  C6  UNL     1      21.374  41.327  33.699  1.00  0.00     0.134 C 
HETATM    6  N2  UNL     1      21.968  40.035  34.068  1.00  0.00    -0.292 N 
HETATM    7  C7  UNL     1      22.543  39.620  32.861  1.00  0.00     0.248 C 
HETATM    8  O1  UNL     1      22.675  40.473  31.910  1.00  0.00    -0.271 OA
HETATM    9  C8  UNL     1      23.047  38.274  32.501  1.00  0.00     0.179 C 
HETATM   10  N6  UNL     1      22.374  37.763  31.309  1.00  0.00    -0.330 N 
ATOM     11  H6  UNL     1      22.784  37.993  30.404  1.00  0.00     0.165 HD
HETATM   12  C13 UNL     1      21.204  36.978  31.310  1.00  0.00     0.316 C 
HETATM   13  O2  UNL     1      20.282  37.333  30.484  1.00  0.00    -0.247 OA
HETATM   14  N7  UNL     1      20.928  35.850  32.110  1.00  0.00    -0.342 N 
ATOM     15  H7  UNL     1      20.020  35.828  32.574  1.00  0.00     0.164 HD
HETATM   16  C14 UNL     1      21.804  34.722  32.339  1.00  0.00     0.144 C 
HETATM   17  C15 UNL     1      22.054  34.468  33.803  1.00  0.00     0.142 C 
HETATM   18  N8  UNL     1      21.208  33.414  34.334  1.00  0.00    -0.359 N 
ATOM     19  H8  UNL     1      21.500  32.452  34.161  1.00  0.00     0.162 HD
HETATM   20  C16 UNL     1      20.030  33.600  35.063  1.00  0.00     0.227 C 
HETATM   21  O3  UNL     1      19.077  32.775  34.820  1.00  0.00    -0.273 OA
HETATM   22  C17 UNL     1      19.771  34.629  36.068  1.00  0.00     0.182 C 
HETATM   23  S1  UNL     1      21.201  35.177  36.988  1.00  0.00    -0.115 SA
HETATM   24  C18 UNL     1      21.401  36.942  37.099  1.00  0.00     0.137 C 
HETATM   25  N9  UNL     1      20.354  37.713  36.516  1.00  0.00    -0.324 N 
ATOM     26  H9  UNL     1      19.384  37.424  36.635  1.00  0.00     0.169 HD
HETATM   27  C19 UNL     1      20.656  38.882  35.770  1.00  0.00     0.297 C 
HETATM   28  O4  UNL     1      19.675  39.603  35.467  1.00  0.00    -0.263 OA
HETATM   29  C20 UNL     1      22.000  39.306  35.334  1.00  0.00     0.217 C 
HETATM   30  O5  UNL     1      22.816  39.799  36.276  1.00  0.00    -0.324 OA
ENDROOT
BRANCH   9  31
HETATM   31  C9  UNL     1      24.525  38.410  32.127  1.00  0.00     0.037 C 
BRANCH  31  32
HETATM   32  C10 UNL     1      25.394  37.674  33.124  1.00  0.00     0.022 C 
BRANCH  32  33
HETATM   33  C11 UNL     1      25.932  38.630  34.169  1.00  0.00     0.122 C 
BRANCH  33  34
HETATM   34  N3  UNL     1      26.040  39.927  33.540  1.00  0.00    -0.367 N 
HETATM   35  C12 UNL     1      26.122  40.969  34.268  1.00  0.00     0.196 C 
HETATM   36  N4  UNL     1      26.227  42.226  33.582  1.00  0.00    -0.067 NA
HETATM   37  N5  UNL     1      26.109  40.891  35.673  1.00  0.00    -0.067 NA
ATOM     38  H3  UNL     1      26.052  40.007  32.524  1.00  0.00     0.161 HD
ENDBRANCH  33  34
ENDBRANCH  32  33
ENDBRANCH  31  32
ENDBRANCH   9  31
BRANCH   1  39
HETATM   39  C1  UNL     1      21.738  40.639  38.288  1.00  0.00     0.262 C 
BRANCH  39  40
HETATM   40  N1  UNL     1      20.380  41.165  38.068  1.00  0.00    -0.077 N 
ATOM     41  H13 UNL     1      20.268  42.117  38.418  1.00  0.00     0.274 HD
ATOM     42  H12 UNL     1      20.188  41.354  37.083  1.00  0.00     0.274 HD
ATOM     43  H11 UNL     1      19.710  40.516  38.478  1.00  0.00     0.274 HD
ENDBRANCH  39  40
ENDBRANCH   1  39
TORSDOF 6
ENDMDL
MODEL 4
REMARK VINA RESULT: -4.766623813      1.216      1.536
REMARK  6 active torsions:
REMARK  status: ('A' for Active; 'I' for Inactive)
REMARK    1  A    between atoms: N1_1  and  C1_5 
REMARK    2  A    between atoms: C1_5  and  C2_6 
REMARK    3  A    between atoms: C8_14  and  C9_15 
REMARK    4  A    between atoms: C9_15  and  C10_16 
REMARK    5  A    between atoms: C10_16  and  C11_17 
REMARK    6  A    between atoms: C11_17  and  N3_18 
ROOT
HETATM    1  C2  UNL     1      20.002  40.681  37.306  1.00  0.00     0.156 C 
HETATM    2  C3  UNL     1      20.216  39.513  38.223  1.00  0.00     0.034 C 
HETATM    3  C4  UNL     1      19.661  38.275  37.572  1.00  0.00     0.004 C 
HETATM    4  C5  UNL     1      20.711  37.222  37.346  1.00  0.00     0.020 C 
HETATM    5  C6  UNL     1      22.015  37.786  36.873  1.00  0.00     0.134 C 
HETATM    6  N2  UNL     1      21.853  38.712  35.744  1.00  0.00    -0.292 N 
HETATM    7  C7  UNL     1      21.932  37.850  34.643  1.00  0.00     0.248 C 
HETATM    8  O1  UNL     1      21.834  36.584  34.837  1.00  0.00    -0.271 OA
HETATM    9  C8  UNL     1      22.122  38.201  33.216  1.00  0.00     0.179 C 
HETATM   10  N6  UNL     1      23.306  37.544  32.666  1.00  0.00    -0.330 N 
ATOM     11  H6  UNL     1      23.183  36.614  32.265  1.00  0.00     0.165 HD
HETATM   12  C13 UNL     1      24.603  38.092  32.647  1.00  0.00     0.316 C 
HETATM   13  O2  UNL     1      25.553  37.315  33.033  1.00  0.00    -0.247 OA
HETATM   14  N7  UNL     1      24.979  39.393  32.252  1.00  0.00    -0.342 N 
ATOM     15  H7  UNL     1      25.607  39.898  32.876  1.00  0.00     0.164 HD
HETATM   16  C14 UNL     1      24.563  40.082  31.050  1.00  0.00     0.144 C 
HETATM   17  C15 UNL     1      23.932  41.420  31.336  1.00  0.00     0.142 C 
HETATM   18  N8  UNL     1      24.865  42.519  31.169  1.00  0.00    -0.359 N 
ATOM     19  H8  UNL     1      25.030  42.848  30.218  1.00  0.00     0.162 HD
HETATM   20  C16 UNL     1      25.557  43.168  32.196  1.00  0.00     0.227 C 
HETATM   21  O3  UNL     1      26.768  43.507  31.937  1.00  0.00    -0.273 OA
HETATM   22  C17 UNL     1      25.049  43.500  33.526  1.00  0.00     0.182 C 
HETATM   23  S1  UNL     1      23.294  43.822  33.616  1.00  0.00    -0.115 SA
HETATM   24  C18 UNL     1      22.431  42.961  34.912  1.00  0.00     0.137 C 
HETATM   25  N9  UNL     1      23.250  42.181  35.779  1.00  0.00    -0.324 N 
ATOM     26  H9  UNL     1      24.151  42.544  36.087  1.00  0.00     0.169 HD
HETATM   27  C19 UNL     1      22.817  40.902  36.215  1.00  0.00     0.297 C 
HETATM   28  O4  UNL     1      23.500  40.377  37.126  1.00  0.00    -0.263 OA
HETATM   29  C20 UNL     1      21.654  40.159  35.693  1.00  0.00     0.217 C 
HETATM   30  O5  UNL     1      20.441  40.598  36.054  1.00  0.00    -0.324 OA
ENDROOT
BRANCH   9  31
HETATM   31  C9  UNL     1      20.929  37.647  32.433  1.00  0.00     0.037 C 
BRANCH  31  32
HETATM   32  C10 UNL     1      21.323  37.355  31.001  1.00  0.00     0.022 C 
BRANCH  32  33
HETATM   33  C11 UNL     1      20.656  36.085  30.513  1.00  0.00     0.122 C 
BRANCH  33  34
HETATM   34  N3  UNL     1      19.478  35.886  31.327  1.00  0.00    -0.367 N 
HETATM   35  C12 UNL     1      19.508  35.031  32.270  1.00  0.00     0.196 C 
HETATM   36  N4  UNL     1      18.306  34.881  33.041  1.00  0.00    -0.067 NA
HETATM   37  N5  UNL     1      20.662  34.273  32.543  1.00  0.00    -0.067 NA
ATOM     38  H3  UNL     1      18.632  36.425  31.147  1.00  0.00     0.161 HD
ENDBRANCH  33  34
ENDBRANCH  32  33
ENDBRANCH  31  32
ENDBRANCH   9  31
BRANCH   1  39
HETATM   39  C1  UNL     1      20.358  41.970  38.061  1.00  0.00     0.262 C 
BRANCH  39  40
HETATM   40  N1  UNL     1      20.019  43.122  37.207  1.00  0.00    -0.077 N 
ATOM     41  H13 UNL     1      19.013  43.288  37.156  1.00  0.00     0.274 HD
ATOM     42  H12 UNL     1      20.287  44.012  37.627  1.00  0.00     0.274 HD
ATOM     43  H11 UNL     1      20.440  42.980  36.289  1.00  0.00     0.274 HD
ENDBRANCH  39  40
ENDBRANCH   1  39
TORSDOF 6
ENDMDL
MODEL 5
REMARK VINA RESULT: -4.650485590      3.124      5.835
REMARK  6 active torsions:
REMARK  status: ('A' for Active; 'I' for Inactive)
REMARK    1  A    between atoms: N1_1  and  C1_5 
REMARK    2  A    between atoms: C1_5  and  C2_6 
REMARK    3  A    between atoms: C8_14  and  C9_15 
REMARK    4  A    between atoms: C9_15  and  C10_16 
REMARK    5  A    between atoms: C10_16  and  C11_17 
REMARK    6  A    between atoms: C11_17  and  N3_18 
ROOT
HETATM    1  C2  UNL     1      20.465  36.010  33.856  1.00  0.00     0.156 C 
HETATM    2  C3  UNL     1      21.405  34.901  34.225  1.00  0.00     0.034 C 
HETATM    3  C4  UNL     1      22.447  34.768  33.147  1.00  0.00     0.004 C 
HETATM    4  C5  UNL     1      23.842  34.997  33.662  1.00  0.00     0.020 C 
HETATM    5  C6  UNL     1      23.928  36.128  34.639  1.00  0.00     0.134 C 
HETATM    6  N2  UNL     1      23.270  37.348  34.150  1.00  0.00    -0.292 N 
HETATM    7  C7  UNL     1      24.308  37.986  33.461  1.00  0.00     0.248 C 
HETATM    8  O1  UNL     1      25.370  37.319  33.182  1.00  0.00    -0.271 OA
HETATM    9  C8  UNL     1      24.365  39.386  32.981  1.00  0.00     0.179 C 
HETATM   10  N6  UNL     1      25.521  40.085  33.536  1.00  0.00    -0.330 N 
ATOM     11  H6  UNL     1      26.397  40.031  33.015  1.00  0.00     0.165 HD
HETATM   12  C13 UNL     1      25.525  40.828  34.732  1.00  0.00     0.316 C 
HETATM   13  O2  UNL     1      26.504  40.605  35.537  1.00  0.00    -0.247 OA
HETATM   14  N7  UNL     1      24.579  41.788  35.149  1.00  0.00    -0.342 N 
ATOM     15  H7  UNL     1      24.230  41.705  36.103  1.00  0.00     0.164 HD
HETATM   16  C14 UNL     1      24.053  42.879  34.357  1.00  0.00     0.144 C 
HETATM   17  C15 UNL     1      22.547  42.873  34.287  1.00  0.00     0.142 C 
HETATM   18  N8  UNL     1      21.946  43.794  35.235  1.00  0.00    -0.359 N 
ATOM     19  H8  UNL     1      21.913  44.778  34.969  1.00  0.00     0.162 HD
HETATM   20  C16 UNL     1      21.408  43.452  36.479  1.00  0.00     0.227 C 
HETATM   21  O3  UNL     1      21.617  44.284  37.434  1.00  0.00    -0.273 OA
HETATM   22  C17 UNL     1      20.637  42.255  36.804  1.00  0.00     0.182 C 
HETATM   23  S1  UNL     1      19.662  41.586  35.465  1.00  0.00    -0.115 SA
HETATM   24  C18 UNL     1      19.837  39.835  35.200  1.00  0.00     0.137 C 
HETATM   25  N9  UNL     1      20.667  39.155  36.137  1.00  0.00    -0.324 N 
ATOM     26  H9  UNL     1      20.617  39.395  37.126  1.00  0.00     0.169 HD
HETATM   27  C19 UNL     1      21.564  38.146  35.699  1.00  0.00     0.297 C 
HETATM   28  O4  UNL     1      22.104  37.467  36.605  1.00  0.00    -0.263 OA
HETATM   29  C20 UNL     1      21.902  37.839  34.296  1.00  0.00     0.217 C 
HETATM   30  O5  UNL     1      20.969  37.206  33.571  1.00  0.00    -0.324 OA
ENDROOT
BRANCH   9  31
HETATM   31  C9  UNL     1      24.576  39.355  31.465  1.00  0.00     0.037 C 
BRANCH  31  32
HETATM   32  C10 UNL     1      24.165  40.673  30.845  1.00  0.00     0.022 C 
BRANCH  32  33
HETATM   33  C11 UNL     1      25.360  41.595  30.712  1.00  0.00     0.122 C 
BRANCH  33  34
HETATM   34  N3  UNL     1      24.865  42.948  30.826  1.00  0.00    -0.367 N 
HETATM   35  C12 UNL     1      25.686  43.896  31.051  1.00  0.00     0.196 C 
HETATM   36  N4  UNL     1      25.130  45.216  31.154  1.00  0.00    -0.067 NA
HETATM   37  N5  UNL     1      27.066  43.660  31.191  1.00  0.00    -0.067 NA
ATOM     38  H3  UNL     1      23.869  43.142  30.727  1.00  0.00     0.161 HD
ENDBRANCH  33  34
ENDBRANCH  32  33
ENDBRANCH  31  32
ENDBRANCH   9  31
BRANCH   1  39
HETATM   39  C1  UNL     1      19.279  35.995  34.833  1.00  0.00     0.262 C 
BRANCH  39  40
HETATM   40  N1  UNL     1      19.697  35.303  36.064  1.00  0.00    -0.077 N 
ATOM     41  H13 UNL     1      20.633  34.902  35.990  1.00  0.00     0.274 HD
ATOM     42  H12 UNL     1      19.881  35.948  36.833  1.00  0.00     0.274 HD
ATOM     43  H11 UNL     1      18.991  34.606  36.301  1.00  0.00     0.274 HD
ENDBRANCH  39  40
ENDBRANCH   1  39
TORSDOF 6
ENDMDL
