MODEL 1
REMARK VINA RESULT: -9.877216356      0.000      0.000
REMARK  6 active torsions:
REMARK  status: ('A' for Active; 'I' for Inactive)
REMARK       I    between atoms: C1_2  and  N1_3 
REMARK       I    between atoms: C1_2  and  N4_23 
REMARK    1  A    between atoms: N1_3  and  C2_4 
REMARK    2  A    between atoms: C5_7  and  C6_8 
REMARK    3  A    between atoms: C8_11  and  C9_12 
REMARK    4  A    between atoms: N4_23  and  C16_25 
REMARK    5  A    between atoms: C21_30  and  O2_31 
REMARK    6  A    between atoms: O2_31  and  C22_32 
ROOT
HETATM    1  O1  UNL     1      41.453  15.306  56.544  1.00  0.00    -0.230 OA
HETATM    2  C1  UNL     1      40.804  14.291  56.811  1.00  0.00     0.398 C 
HETATM    3  N1  UNL     1      41.014  13.387  57.815  1.00  0.00    -0.352 NA
HETATM    4  N4  UNL     1      39.659  14.040  55.918  1.00  0.00    -0.294 N 
ATOM      5  H4  UNL     1      39.102  13.214  56.139  1.00  0.00     0.172 HD
ENDROOT
BRANCH   3   6
HETATM    6  C2  UNL     1      41.220  12.497  58.804  1.00  0.00     0.112 A 
HETATM    7  C3  UNL     1      42.420  11.873  59.087  1.00  0.00     0.045 A 
HETATM    8  C4  UNL     1      42.531  11.069  60.195  1.00  0.00     0.017 A 
HETATM    9  C5  UNL     1      41.495  10.847  61.051  1.00  0.00    -0.009 A 
HETATM   10  C14 UNL     1      40.296  11.457  60.773  1.00  0.00     0.017 A 
HETATM   11  C15 UNL     1      40.143  12.268  59.678  1.00  0.00     0.045 A 
BRANCH   9  12
HETATM   12  C6  UNL     1      41.647  10.072  62.302  1.00  0.00     0.050 A 
HETATM   13  C7  UNL     1      42.887   9.591  62.727  1.00  0.00     0.082 A 
HETATM   14  S1  UNL     1      42.482   8.761  64.145  1.00  0.00    -0.081 SA
HETATM   15  C8  UNL     1      40.777   9.051  64.149  1.00  0.00     0.085 A 
HETATM   16  N3  UNL     1      40.631   9.763  63.068  1.00  0.00    -0.349 N 
ATOM     17  H3  UNL     1      39.699  10.088  62.811  1.00  0.00     0.166 HD
BRANCH  15  18
HETATM   18  C9  UNL     1      39.791   8.556  65.108  1.00  0.00     0.000 A 
HETATM   19  C10 UNL     1      40.246   7.951  66.256  1.00  0.00     0.031 A 
HETATM   20  C11 UNL     1      39.319   7.484  67.166  1.00  0.00     0.088 A 
HETATM   21  N2  UNL     1      38.015   7.629  66.904  1.00  0.00    -0.375 N 
HETATM   22  C12 UNL     1      37.542   8.216  65.789  1.00  0.00     0.088 A 
ATOM     23  H2  UNL     1      37.343   7.276  67.586  1.00  0.00     0.164 HD
HETATM   24  C13 UNL     1      38.468   8.686  64.876  1.00  0.00     0.031 A 
ENDBRANCH  15  18
ENDBRANCH   9  12
ENDBRANCH   3   6
BRANCH   4  25
HETATM   25  C16 UNL     1      39.240  14.763  54.835  1.00  0.00     0.071 A 
HETATM   26  C17 UNL     1      38.244  15.727  54.847  1.00  0.00     0.032 A 
HETATM   27  C18 UNL     1      37.963  16.501  53.765  1.00  0.00     0.002 A 
HETATM   28  C19 UNL     1      38.699  16.321  52.601  1.00  0.00     0.003 A 
HETATM   29  C20 UNL     1      39.701  15.360  52.564  1.00  0.00     0.039 A 
HETATM   30  C21 UNL     1      39.976  14.595  53.635  1.00  0.00     0.102 A 
BRANCH  30  31
HETATM   31  O2  UNL     1      40.985  13.610  53.618  1.00  0.00    -0.308 OA
BRANCH  31  32
HETATM   32  C22 UNL     1      40.827  12.626  52.622  1.00  0.00     0.078 A 
HETATM   33  C23 UNL     1      39.795  11.739  52.723  1.00  0.00     0.038 A 
HETATM   34  C24 UNL     1      39.565  10.738  51.794  1.00  0.00     0.018 A 
HETATM   35  C25 UNL     1      40.452  10.661  50.712  1.00  0.00     0.009 A 
HETATM   36  C26 UNL     1      40.495   9.785  49.628  1.00  0.00     0.120 A 
HETATM   37  C27 UNL     1      41.502  11.544  50.589  1.00  0.00     0.062 A 
HETATM   38  N5  UNL     1      41.556  10.160  48.888  1.00  0.00    -0.311 N 
HETATM   39  N6  UNL     1      42.146  11.193  49.454  1.00  0.00    -0.300 N 
ATOM     40  H5  UNL     1      41.856   9.712  48.023  1.00  0.00     0.186 HD
ATOM     41  H6  UNL     1      42.974  11.663  49.087  1.00  0.00     0.187 HD
HETATM   42  C28 UNL     1      41.696  12.536  51.547  1.00  0.00     0.069 A 
ENDBRANCH  31  32
ENDBRANCH  30  31
ENDBRANCH   4  25
TORSDOF 6
ENDMDL
MODEL 2
REMARK VINA RESULT: -9.449388902      4.779      7.379
REMARK  6 active torsions:
REMARK  status: ('A' for Active; 'I' for Inactive)
REMARK       I    between atoms: C1_2  and  N1_3 
REMARK       I    between atoms: C1_2  and  N4_23 
REMARK    1  A    between atoms: N1_3  and  C2_4 
REMARK    2  A    between atoms: C5_7  and  C6_8 
REMARK    3  A    between atoms: C8_11  and  C9_12 
REMARK    4  A    between atoms: N4_23  and  C16_25 
REMARK    5  A    between atoms: C21_30  and  O2_31 
REMARK    6  A    between atoms: O2_31  and  C22_32 
ROOT
HETATM    1  O1  UNL     1      40.971  13.890  48.729  1.00  0.00    -0.230 OA
HETATM    2  C1  UNL     1      41.066  14.851  49.497  1.00  0.00     0.398 C 
HETATM    3  N1  UNL     1      41.150  14.844  50.862  1.00  0.00    -0.352 NA
HETATM    4  N4  UNL     1      41.088  16.168  48.836  1.00  0.00    -0.294 N 
ATOM      5  H4  UNL     1      41.184  16.971  49.458  1.00  0.00     0.172 HD
ENDROOT
BRANCH   3   6
HETATM    6  C2  UNL     1      41.233  14.837  52.206  1.00  0.00     0.112 A 
HETATM    7  C3  UNL     1      40.172  14.672  53.076  1.00  0.00     0.045 A 
HETATM    8  C4  UNL     1      40.403  14.570  54.426  1.00  0.00     0.017 A 
HETATM    9  C5  UNL     1      41.652  14.625  54.968  1.00  0.00    -0.009 A 
HETATM   10  C14 UNL     1      42.711  14.797  54.110  1.00  0.00     0.017 A 
HETATM   11  C15 UNL     1      42.526  14.903  52.755  1.00  0.00     0.045 A 
BRANCH   9  12
HETATM   12  C6  UNL     1      41.907  14.404  56.407  1.00  0.00     0.050 A 
HETATM   13  C7  UNL     1      42.779  15.217  57.136  1.00  0.00     0.082 A 
HETATM   14  S1  UNL     1      42.733  14.504  58.670  1.00  0.00    -0.081 SA
HETATM   15  C8  UNL     1      41.625  13.218  58.337  1.00  0.00     0.085 A 
HETATM   16  N3  UNL     1      41.363  13.420  57.078  1.00  0.00    -0.349 N 
ATOM     17  H3  UNL     1      40.715  12.793  56.600  1.00  0.00     0.166 HD
BRANCH  15  18
HETATM   18  C9  UNL     1      41.176  12.170  59.252  1.00  0.00     0.000 A 
HETATM   19  C10 UNL     1      41.985  11.073  59.434  1.00  0.00     0.031 A 
HETATM   20  C11 UNL     1      41.566  10.082  60.298  1.00  0.00     0.088 A 
HETATM   21  N2  UNL     1      40.392  10.216  60.927  1.00  0.00    -0.375 N 
HETATM   22  C12 UNL     1      39.581  11.278  60.767  1.00  0.00     0.088 A 
ATOM     23  H2  UNL     1      40.096   9.473  61.561  1.00  0.00     0.164 HD
HETATM   24  C13 UNL     1      39.998  12.273  59.903  1.00  0.00     0.031 A 
ENDBRANCH  15  18
ENDBRANCH   9  12
ENDBRANCH   3   6
BRANCH   4  25
HETATM   25  C16 UNL     1      40.997  16.461  47.503  1.00  0.00     0.071 A 
HETATM   26  C17 UNL     1      39.830  16.782  46.827  1.00  0.00     0.032 A 
HETATM   27  C18 UNL     1      39.825  17.189  45.530  1.00  0.00     0.002 A 
HETATM   28  C19 UNL     1      41.032  17.289  44.852  1.00  0.00     0.003 A 
HETATM   29  C20 UNL     1      42.215  16.971  45.507  1.00  0.00     0.039 A 
HETATM   30  C21 UNL     1      42.218  16.567  46.790  1.00  0.00     0.102 A 
BRANCH  30  31
HETATM   31  O2  UNL     1      43.405  16.235  47.472  1.00  0.00    -0.308 OA
BRANCH  31  32
HETATM   32  C22 UNL     1      44.176  15.232  46.854  1.00  0.00     0.078 A 
HETATM   33  C23 UNL     1      45.326  15.582  46.207  1.00  0.00     0.038 A 
HETATM   34  C24 UNL     1      46.144  14.665  45.568  1.00  0.00     0.018 A 
HETATM   35  C25 UNL     1      45.743  13.322  45.608  1.00  0.00     0.009 A 
HETATM   36  C26 UNL     1      46.333  12.177  45.074  1.00  0.00     0.120 A 
HETATM   37  C27 UNL     1      44.587  12.945  46.254  1.00  0.00     0.062 A 
HETATM   38  N5  UNL     1      45.527  11.152  45.408  1.00  0.00    -0.311 N 
HETATM   39  N6  UNL     1      44.502  11.604  46.102  1.00  0.00    -0.300 N 
ATOM     40  H5  UNL     1      45.686  10.175  45.163  1.00  0.00     0.186 HD
ATOM     41  H6  UNL     1      43.750  11.024  46.472  1.00  0.00     0.187 HD
HETATM   42  C28 UNL     1      43.794  13.900  46.883  1.00  0.00     0.069 A 
ENDBRANCH  31  32
ENDBRANCH  30  31
ENDBRANCH   4  25
TORSDOF 6
ENDMDL
MODEL 3
REMARK VINA RESULT: -9.447379436      1.417      2.116
REMARK  6 active torsions:
REMARK  status: ('A' for Active; 'I' for Inactive)
REMARK       I    between atoms: C1_2  and  N1_3 
REMARK       I    between atoms: C1_2  and  N4_23 
REMARK    1  A    between atoms: N1_3  and  C2_4 
REMARK    2  A    between atoms: C5_7  and  C6_8 
REMARK    3  A    between atoms: C8_11  and  C9_12 
REMARK    4  A    between atoms: N4_23  and  C16_25 
REMARK    5  A    between atoms: C21_30  and  O2_31 
REMARK    6  A    between atoms: O2_31  and  C22_32 
ROOT
HETATM    1  O1  UNL     1      41.456  15.114  56.664  1.00  0.00    -0.230 OA
HETATM    2  C1  UNL     1      40.772  14.128  56.951  1.00  0.00     0.398 C 
HETATM    3  N1  UNL     1      40.955  13.232  57.967  1.00  0.00    -0.352 NA
HETATM    4  N4  UNL     1      39.613  13.906  56.069  1.00  0.00    -0.294 N 
ATOM      5  H4  UNL     1      39.028  13.105  56.305  1.00  0.00     0.172 HD
ENDROOT
BRANCH   3   6
HETATM    6  C2  UNL     1      41.135  12.350  58.969  1.00  0.00     0.112 A 
HETATM    7  C3  UNL     1      42.270  11.590  59.177  1.00  0.00     0.045 A 
HETATM    8  C4  UNL     1      42.375  10.809  60.302  1.00  0.00     0.017 A 
HETATM    9  C5  UNL     1      41.396  10.739  61.246  1.00  0.00    -0.009 A 
HETATM   10  C14 UNL     1      40.261  11.486  61.043  1.00  0.00     0.017 A 
HETATM   11  C15 UNL     1      40.115  12.280  59.934  1.00  0.00     0.045 A 
BRANCH   9  12
HETATM   12  C6  UNL     1      41.558   9.986  62.508  1.00  0.00     0.050 A 
HETATM   13  C7  UNL     1      42.810   9.560  62.959  1.00  0.00     0.082 A 
HETATM   14  S1  UNL     1      42.415   8.731  64.380  1.00  0.00    -0.081 SA
HETATM   15  C8  UNL     1      40.699   8.951  64.352  1.00  0.00     0.085 A 
HETATM   16  N3  UNL     1      40.543   9.644  63.261  1.00  0.00    -0.349 N 
ATOM     17  H3  UNL     1      39.603   9.928  62.985  1.00  0.00     0.166 HD
BRANCH  15  18
HETATM   18  C9  UNL     1      39.718   8.427  65.301  1.00  0.00     0.000 A 
HETATM   19  C10 UNL     1      40.176   7.715  66.386  1.00  0.00     0.031 A 
HETATM   20  C11 UNL     1      39.254   7.220  67.285  1.00  0.00     0.088 A 
HETATM   21  N2  UNL     1      37.951   7.443  67.076  1.00  0.00    -0.375 N 
HETATM   22  C12 UNL     1      37.476   8.135  66.024  1.00  0.00     0.088 A 
ATOM     23  H2  UNL     1      37.283   7.068  67.750  1.00  0.00     0.164 HD
HETATM   24  C13 UNL     1      38.397   8.633  65.122  1.00  0.00     0.031 A 
ENDBRANCH  15  18
ENDBRANCH   9  12
ENDBRANCH   3   6
BRANCH   4  25
HETATM   25  C16 UNL     1      39.214  14.627  54.976  1.00  0.00     0.071 A 
HETATM   26  C17 UNL     1      38.420  15.762  55.008  1.00  0.00     0.032 A 
HETATM   27  C18 UNL     1      38.165  16.507  53.900  1.00  0.00     0.002 A 
HETATM   28  C19 UNL     1      38.720  16.120  52.688  1.00  0.00     0.003 A 
HETATM   29  C20 UNL     1      39.518  14.984  52.630  1.00  0.00     0.039 A 
HETATM   30  C21 UNL     1      39.768  14.248  53.728  1.00  0.00     0.102 A 
BRANCH  30  31
HETATM   31  O2  UNL     1      40.570  13.090  53.691  1.00  0.00    -0.308 OA
BRANCH  31  32
HETATM   32  C22 UNL     1      41.854  13.283  53.145  1.00  0.00     0.078 A 
HETATM   33  C23 UNL     1      42.696  14.184  53.731  1.00  0.00     0.038 A 
HETATM   34  C24 UNL     1      43.973  14.441  53.261  1.00  0.00     0.018 A 
HETATM   35  C25 UNL     1      44.389  13.725  52.131  1.00  0.00     0.009 A 
HETATM   36  C26 UNL     1      45.592  13.751  51.426  1.00  0.00     0.120 A 
HETATM   37  C27 UNL     1      43.558  12.811  51.523  1.00  0.00     0.062 A 
HETATM   38  N5  UNL     1      45.456  12.863  50.424  1.00  0.00    -0.311 N 
HETATM   39  N6  UNL     1      44.261  12.311  50.482  1.00  0.00    -0.300 N 
ATOM     40  H5  UNL     1      46.169  12.650  49.726  1.00  0.00     0.186 HD
ATOM     41  H6  UNL     1      43.914  11.605  49.832  1.00  0.00     0.187 HD
HETATM   42  C28 UNL     1      42.281  12.583  52.028  1.00  0.00     0.069 A 
ENDBRANCH  31  32
ENDBRANCH  30  31
ENDBRANCH   4  25
TORSDOF 6
ENDMDL
MODEL 4
REMARK VINA RESULT: -9.347676019      1.907      2.386
REMARK  6 active torsions:
REMARK  status: ('A' for Active; 'I' for Inactive)
REMARK       I    between atoms: C1_2  and  N1_3 
REMARK       I    between atoms: C1_2  and  N4_23 
REMARK    1  A    between atoms: N1_3  and  C2_4 
REMARK    2  A    between atoms: C5_7  and  C6_8 
REMARK    3  A    between atoms: C8_11  and  C9_12 
REMARK    4  A    between atoms: N4_23  and  C16_25 
REMARK    5  A    between atoms: C21_30  and  O2_31 
REMARK    6  A    between atoms: O2_31  and  C22_32 
ROOT
HETATM    1  O1  UNL     1      41.432  15.130  56.615  1.00  0.00    -0.230 OA
HETATM    2  C1  UNL     1      40.726  14.158  56.897  1.00  0.00     0.398 C 
HETATM    3  N1  UNL     1      40.885  13.258  57.914  1.00  0.00    -0.352 NA
HETATM    4  N4  UNL     1      39.567  13.961  56.009  1.00  0.00    -0.294 N 
ATOM      5  H4  UNL     1      38.963  13.172  56.242  1.00  0.00     0.172 HD
ENDROOT
BRANCH   3   6
HETATM    6  C2  UNL     1      41.040  12.372  58.916  1.00  0.00     0.112 A 
HETATM    7  C3  UNL     1      42.096  11.490  59.052  1.00  0.00     0.045 A 
HETATM    8  C4  UNL     1      42.199  10.713  60.181  1.00  0.00     0.017 A 
HETATM    9  C5  UNL     1      41.294  10.766  61.197  1.00  0.00    -0.009 A 
HETATM   10  C14 UNL     1      40.238  11.634  61.066  1.00  0.00     0.017 A 
HETATM   11  C15 UNL     1      40.097  12.428  59.957  1.00  0.00     0.045 A 
BRANCH   9  12
HETATM   12  C6  UNL     1      41.467  10.012  62.458  1.00  0.00     0.050 A 
HETATM   13  C7  UNL     1      42.719   9.562  62.883  1.00  0.00     0.082 A 
HETATM   14  S1  UNL     1      42.337   8.744  64.315  1.00  0.00    -0.081 SA
HETATM   15  C8  UNL     1      40.626   8.999  64.322  1.00  0.00     0.085 A 
HETATM   16  N3  UNL     1      40.461   9.692  63.233  1.00  0.00    -0.349 N 
ATOM     17  H3  UNL     1      39.521   9.995  62.975  1.00  0.00     0.166 HD
BRANCH  15  18
HETATM   18  C9  UNL     1      39.655   8.497  65.293  1.00  0.00     0.000 A 
HETATM   19  C10 UNL     1      40.118   7.760  66.357  1.00  0.00     0.031 A 
HETATM   20  C11 UNL     1      39.206   7.285  67.277  1.00  0.00     0.088 A 
HETATM   21  N2  UNL     1      37.905   7.552  67.106  1.00  0.00    -0.375 N 
HETATM   22  C12 UNL     1      37.424   8.270  66.074  1.00  0.00     0.088 A 
ATOM     23  H2  UNL     1      37.244   7.192  67.794  1.00  0.00     0.164 HD
HETATM   24  C13 UNL     1      38.336   8.747  65.151  1.00  0.00     0.031 A 
ENDBRANCH  15  18
ENDBRANCH   9  12
ENDBRANCH   3   6
BRANCH   4  25
HETATM   25  C16 UNL     1      39.189  14.691  54.915  1.00  0.00     0.071 A 
HETATM   26  C17 UNL     1      38.464  15.872  54.948  1.00  0.00     0.032 A 
HETATM   27  C18 UNL     1      38.231  16.617  53.835  1.00  0.00     0.002 A 
HETATM   28  C19 UNL     1      38.736  16.182  52.617  1.00  0.00     0.003 A 
HETATM   29  C20 UNL     1      39.464  15.001  52.558  1.00  0.00     0.039 A 
HETATM   30  C21 UNL     1      39.692  14.264  53.661  1.00  0.00     0.102 A 
BRANCH  30  31
HETATM   31  O2  UNL     1      40.424  13.060  53.624  1.00  0.00    -0.308 OA
BRANCH  31  32
HETATM   32  C22 UNL     1      41.721  13.178  53.089  1.00  0.00     0.078 A 
HETATM   33  C23 UNL     1      41.928  12.873  51.775  1.00  0.00     0.038 A 
HETATM   34  C24 UNL     1      43.168  12.957  51.165  1.00  0.00     0.018 A 
HETATM   35  C25 UNL     1      44.241  13.377  51.964  1.00  0.00     0.009 A 
HETATM   36  C26 UNL     1      45.588  13.562  51.659  1.00  0.00     0.120 A 
HETATM   37  C27 UNL     1      44.057  13.690  53.293  1.00  0.00     0.062 A 
HETATM   38  N5  UNL     1      46.174  13.976  52.798  1.00  0.00    -0.311 N 
HETATM   39  N6  UNL     1      45.274  14.051  53.757  1.00  0.00    -0.300 N 
ATOM     40  H5  UNL     1      47.165  14.198  52.902  1.00  0.00     0.186 HD
ATOM     41  H6  UNL     1      45.468  14.341  54.715  1.00  0.00     0.187 HD
HETATM   42  C28 UNL     1      42.792  13.591  53.865  1.00  0.00     0.069 A 
ENDBRANCH  31  32
ENDBRANCH  30  31
ENDBRANCH   4  25
TORSDOF 6
ENDMDL
MODEL 5
REMARK VINA RESULT: -9.279061240      7.055     14.465
REMARK  6 active torsions:
REMARK  status: ('A' for Active; 'I' for Inactive)
REMARK       I    between atoms: C1_2  and  N1_3 
REMARK       I    between atoms: C1_2  and  N4_23 
REMARK    1  A    between atoms: N1_3  and  C2_4 
REMARK    2  A    between atoms: C5_7  and  C6_8 
REMARK    3  A    between atoms: C8_11  and  C9_12 
REMARK    4  A    between atoms: N4_23  and  C16_25 
REMARK    5  A    between atoms: C21_30  and  O2_31 
REMARK    6  A    between atoms: O2_31  and  C22_32 
ROOT
HETATM    1  O1  UNL     1      41.394  12.238  52.632  1.00  0.00    -0.230 OA
HETATM    2  C1  UNL     1      42.316  12.911  52.163  1.00  0.00     0.398 C 
HETATM    3  N1  UNL     1      42.420  13.458  50.914  1.00  0.00    -0.352 NA
HETATM    4  N4  UNL     1      43.441  13.142  53.086  1.00  0.00    -0.294 N 
ATOM      5  H4  UNL     1      44.202  13.712  52.718  1.00  0.00     0.172 HD
ENDROOT
BRANCH   3   6
HETATM    6  C2  UNL     1      42.522  13.997  49.685  1.00  0.00     0.112 A 
HETATM    7  C3  UNL     1      41.739  15.021  49.189  1.00  0.00     0.045 A 
HETATM    8  C4  UNL     1      42.017  15.562  47.956  1.00  0.00     0.017 A 
HETATM    9  C5  UNL     1      43.048  15.131  47.178  1.00  0.00    -0.009 A 
HETATM   10  C14 UNL     1      43.827  14.107  47.661  1.00  0.00     0.017 A 
HETATM   11  C15 UNL     1      43.585  13.540  48.885  1.00  0.00     0.045 A 
BRANCH   9  12
HETATM   12  C6  UNL     1      43.414  15.788  45.904  1.00  0.00     0.050 A 
HETATM   13  C7  UNL     1      44.724  16.185  45.628  1.00  0.00     0.082 A 
HETATM   14  S1  UNL     1      44.566  16.902  44.103  1.00  0.00    -0.081 SA
HETATM   15  C8  UNL     1      42.866  16.675  43.873  1.00  0.00     0.085 A 
HETATM   16  N3  UNL     1      42.534  16.066  44.975  1.00  0.00    -0.349 N 
ATOM     17  H3  UNL     1      41.560  15.798  45.119  1.00  0.00     0.166 HD
BRANCH  15  18
HETATM   18  C9  UNL     1      42.053  17.120  42.743  1.00  0.00     0.000 A 
HETATM   19  C10 UNL     1      41.097  18.084  42.967  1.00  0.00     0.031 A 
HETATM   20  C11 UNL     1      40.329  18.509  41.903  1.00  0.00     0.088 A 
HETATM   21  N2  UNL     1      40.532  17.972  40.694  1.00  0.00    -0.375 N 
HETATM   22  C12 UNL     1      41.459  17.029  40.446  1.00  0.00     0.088 A 
ATOM     23  H2  UNL     1      39.953  18.297  39.919  1.00  0.00     0.164 HD
HETATM   24  C13 UNL     1      42.231  16.602  41.510  1.00  0.00     0.031 A 
ENDBRANCH  15  18
ENDBRANCH   9  12
ENDBRANCH   3   6
BRANCH   4  25
HETATM   25  C16 UNL     1      43.604  12.696  54.369  1.00  0.00     0.071 A 
HETATM   26  C17 UNL     1      44.032  11.429  54.733  1.00  0.00     0.032 A 
HETATM   27  C18 UNL     1      44.298  11.089  56.022  1.00  0.00     0.002 A 
HETATM   28  C19 UNL     1      44.135  12.044  57.016  1.00  0.00     0.003 A 
HETATM   29  C20 UNL     1      43.705  13.321  56.678  1.00  0.00     0.039 A 
HETATM   30  C21 UNL     1      43.442  13.655  55.401  1.00  0.00     0.102 A 
BRANCH  30  31
HETATM   31  O2  UNL     1      43.000  14.942  55.036  1.00  0.00    -0.308 OA
BRANCH  31  32
HETATM   32  C22 UNL     1      41.602  15.071  54.916  1.00  0.00     0.078 A 
HETATM   33  C23 UNL     1      40.801  14.549  55.890  1.00  0.00     0.038 A 
HETATM   34  C24 UNL     1      39.419  14.625  55.853  1.00  0.00     0.018 A 
HETATM   35  C25 UNL     1      38.849  15.275  54.751  1.00  0.00     0.009 A 
HETATM   36  C26 UNL     1      37.515  15.516  54.423  1.00  0.00     0.120 A 
HETATM   37  C27 UNL     1      39.636  15.810  53.755  1.00  0.00     0.062 A 
HETATM   38  N5  UNL     1      37.534  16.181  53.253  1.00  0.00    -0.311 N 
HETATM   39  N6  UNL     1      38.780  16.353  52.862  1.00  0.00    -0.300 N 
ATOM     40  H5  UNL     1      36.709  16.503  52.746  1.00  0.00     0.186 HD
ATOM     41  H6  UNL     1      39.060  16.830  52.005  1.00  0.00     0.187 HD
HETATM   42  C28 UNL     1      41.023  15.710  53.832  1.00  0.00     0.069 A 
ENDBRANCH  31  32
ENDBRANCH  30  31
ENDBRANCH   4  25
TORSDOF 6
ENDMDL
