MODEL 1
REMARK VINA RESULT: -11.282574773      0.000      0.000
REMARK  7 active torsions:
REMARK  status: ('A' for Active; 'I' for Inactive)
REMARK    1  A    between atoms: C1_4  and  N2_5 
REMARK    2  A    between atoms: C1_4  and  C15_23 
REMARK    3  A    between atoms: N2_5  and  C2_7 
REMARK    4  A    between atoms: C5_10  and  C6_11 
REMARK    5  A    between atoms: C18_26  and  N4_27 
REMARK    6  A    between atoms: N4_27  and  C19_29 
REMARK    7  A    between atoms: C19_29  and  C20_30 
ROOT
HETATM    1  N1  UNL     1      40.588  13.623  49.996  1.00  0.00    -0.385 N 
ATOM      2  H11 UNL     1      40.014  12.900  50.427  1.00  0.00     0.157 HD
ATOM      3  H12 UNL     1      40.791  13.794  49.011  1.00  0.00     0.157 HD
HETATM    4  C1  UNL     1      41.034  14.501  50.876  1.00  0.00     0.110 C 
ENDROOT
BRANCH   4   5
HETATM    5  N2  UNL     1      41.829  15.503  50.278  1.00  0.00    -0.342 N 
ATOM      6  H2  UNL     1      42.530  15.970  50.851  1.00  0.00     0.167 HD
BRANCH   5   7
HETATM    7  C2  UNL     1      41.699  15.900  48.894  1.00  0.00     0.033 A 
HETATM    8  C3  UNL     1      40.618  16.612  48.431  1.00  0.00     0.030 A 
HETATM    9  C4  UNL     1      40.531  16.966  47.082  1.00  0.00     0.016 A 
HETATM   10  C5  UNL     1      41.504  16.621  46.179  1.00  0.00    -0.002 A 
HETATM   11  C13 UNL     1      42.590  15.908  46.640  1.00  0.00     0.016 A 
HETATM   12  C14 UNL     1      42.691  15.550  47.978  1.00  0.00     0.030 A 
BRANCH  10  13
HETATM   13  C6  UNL     1      41.425  16.986  44.764  1.00  0.00     0.085 A 
HETATM   14  N3  UNL     1      40.604  17.862  44.223  1.00  0.00    -0.349 N 
HETATM   15  C7  UNL     1      40.646  18.085  42.935  1.00  0.00     0.050 A 
ATOM     16  H3  UNL     1      39.936  18.366  44.808  1.00  0.00     0.166 HD
HETATM   17  C8  UNL     1      39.828  18.994  42.226  1.00  0.00     0.031 A 
HETATM   18  C12 UNL     1      41.562  17.383  42.201  1.00  0.00     0.033 A 
HETATM   19  C9  UNL     1      39.988  19.119  40.887  1.00  0.00     0.002 A 
HETATM   20  C10 UNL     1      40.893  18.432  40.120  1.00  0.00     0.002 A 
HETATM   21  C11 UNL     1      41.702  17.536  40.812  1.00  0.00     0.021 A 
HETATM   22  S1  UNL     1      42.312  16.434  43.417  1.00  0.00    -0.070 SA
ENDBRANCH  10  13
ENDBRANCH   5   7
ENDBRANCH   4   5
BRANCH   4  23
HETATM   23  C15 UNL     1      40.748  14.261  52.258  1.00  0.00     0.019 A 
HETATM   24  C16 UNL     1      41.586  13.365  52.957  1.00  0.00     0.018 A 
HETATM   25  C17 UNL     1      41.508  13.119  54.300  1.00  0.00     0.031 A 
HETATM   26  C18 UNL     1      40.565  13.766  55.051  1.00  0.00     0.039 A 
HETATM   27  C25 UNL     1      39.699  14.664  54.430  1.00  0.00     0.001 A 
HETATM   28  C26 UNL     1      38.733  15.296  55.183  1.00  0.00     0.014 A 
HETATM   29  C30 UNL     1      39.811  14.888  53.050  1.00  0.00    -0.010 A 
HETATM   30  C27 UNL     1      37.860  16.161  54.556  1.00  0.00     0.001 A 
HETATM   31  C28 UNL     1      37.937  16.399  53.223  1.00  0.00     0.001 A 
HETATM   32  C29 UNL     1      38.921  15.754  52.466  1.00  0.00     0.013 A 
BRANCH  26  33
HETATM   33  N4  UNL     1      40.514  13.523  56.441  1.00  0.00    -0.384 N 
ATOM     34  H4  UNL     1      39.611  13.453  56.909  1.00  0.00     0.160 HD
BRANCH  33  35
HETATM   35  C19 UNL     1      41.743  13.370  57.212  1.00  0.00     0.176 C 
BRANCH  35  36
HETATM   36  C20 UNL     1      41.385  13.291  58.656  1.00  0.00     0.026 A 
HETATM   37  C21 UNL     1      42.067  14.036  59.592  1.00  0.00     0.027 A 
HETATM   38  C22 UNL     1      41.682  13.923  60.932  1.00  0.00     0.003 A 
HETATM   39  C23 UNL     1      40.655  13.094  61.313  1.00  0.00     0.017 A 
HETATM   40  C24 UNL     1      39.986  12.354  60.339  1.00  0.00     0.088 A 
HETATM   41  N5  UNL     1      40.368  12.474  59.059  1.00  0.00    -0.368 N 
ATOM     42  H5  UNL     1      39.874  11.928  58.351  1.00  0.00     0.165 HD
ENDBRANCH  35  36
ENDBRANCH  33  35
ENDBRANCH  26  33
ENDBRANCH   4  23
TORSDOF 7
ENDMDL
MODEL 2
REMARK VINA RESULT: -10.948446631      0.815      1.137
REMARK  7 active torsions:
REMARK  status: ('A' for Active; 'I' for Inactive)
REMARK    1  A    between atoms: C1_4  and  N2_5 
REMARK    2  A    between atoms: C1_4  and  C15_23 
REMARK    3  A    between atoms: N2_5  and  C2_7 
REMARK    4  A    between atoms: C5_10  and  C6_11 
REMARK    5  A    between atoms: C18_26  and  N4_27 
REMARK    6  A    between atoms: N4_27  and  C19_29 
REMARK    7  A    between atoms: C19_29  and  C20_30 
ROOT
HETATM    1  N1  UNL     1      40.542  13.143  50.300  1.00  0.00    -0.385 N 
ATOM      2  H11 UNL     1      39.834  12.588  50.780  1.00  0.00     0.157 HD
ATOM      3  H12 UNL     1      40.766  13.199  49.307  1.00  0.00     0.157 HD
HETATM    4  C1  UNL     1      41.173  13.966  51.119  1.00  0.00     0.110 C 
ENDROOT
BRANCH   4   5
HETATM    5  N2  UNL     1      42.154  14.735  50.454  1.00  0.00    -0.342 N 
ATOM      6  H2  UNL     1      43.033  14.919  50.937  1.00  0.00     0.167 HD
BRANCH   5   7
HETATM    7  C2  UNL     1      41.976  15.274  49.125  1.00  0.00     0.033 A 
HETATM    8  C3  UNL     1      40.957  16.144  48.813  1.00  0.00     0.030 A 
HETATM    9  C4  UNL     1      40.820  16.632  47.512  1.00  0.00     0.016 A 
HETATM   10  C5  UNL     1      41.680  16.268  46.507  1.00  0.00    -0.002 A 
HETATM   11  C13 UNL     1      42.702  15.396  46.816  1.00  0.00     0.016 A 
HETATM   12  C14 UNL     1      42.853  14.903  48.105  1.00  0.00     0.030 A 
BRANCH  10  13
HETATM   13  C6  UNL     1      41.546  16.772  45.139  1.00  0.00     0.085 A 
HETATM   14  N3  UNL     1      42.480  16.784  44.212  1.00  0.00    -0.349 N 
HETATM   15  C7  UNL     1      42.215  17.270  43.027  1.00  0.00     0.050 A 
ATOM     16  H3  UNL     1      43.409  16.414  44.417  1.00  0.00     0.166 HD
HETATM   17  C8  UNL     1      43.119  17.344  41.942  1.00  0.00     0.031 A 
HETATM   18  C12 UNL     1      40.953  17.750  42.808  1.00  0.00     0.033 A 
HETATM   19  C9  UNL     1      42.699  17.876  40.770  1.00  0.00     0.002 A 
HETATM   20  C10 UNL     1      41.444  18.366  40.515  1.00  0.00     0.002 A 
HETATM   21  C11 UNL     1      40.549  18.296  41.578  1.00  0.00     0.021 A 
HETATM   22  S1  UNL     1      40.218  17.473  44.332  1.00  0.00    -0.070 SA
ENDBRANCH  10  13
ENDBRANCH   5   7
ENDBRANCH   4   5
BRANCH   4  23
HETATM   23  C15 UNL     1      40.858  13.889  52.513  1.00  0.00     0.019 A 
HETATM   24  C16 UNL     1      41.656  13.050  53.321  1.00  0.00     0.018 A 
HETATM   25  C17 UNL     1      41.549  12.955  54.681  1.00  0.00     0.031 A 
HETATM   26  C18 UNL     1      40.616  13.710  55.340  1.00  0.00     0.039 A 
HETATM   27  C25 UNL     1      39.790  14.561  54.607  1.00  0.00     0.001 A 
HETATM   28  C26 UNL     1      38.833  15.301  55.268  1.00  0.00     0.014 A 
HETATM   29  C30 UNL     1      39.930  14.628  53.214  1.00  0.00    -0.010 A 
HETATM   30  C27 UNL     1      37.999  16.118  54.534  1.00  0.00     0.001 A 
HETATM   31  C28 UNL     1      38.104  16.206  53.185  1.00  0.00     0.001 A 
HETATM   32  C29 UNL     1      39.078  15.452  52.522  1.00  0.00     0.013 A 
BRANCH  26  33
HETATM   33  N4  UNL     1      40.536  13.623  56.746  1.00  0.00    -0.384 N 
ATOM     34  H4  UNL     1      39.623  13.612  57.201  1.00  0.00     0.160 HD
BRANCH  33  35
HETATM   35  C19 UNL     1      41.748  13.547  57.555  1.00  0.00     0.176 C 
BRANCH  35  36
HETATM   36  C20 UNL     1      41.353  13.334  58.975  1.00  0.00     0.026 A 
HETATM   37  C21 UNL     1      41.955  14.048  59.988  1.00  0.00     0.027 A 
HETATM   38  C22 UNL     1      41.539  13.807  61.301  1.00  0.00     0.003 A 
HETATM   39  C23 UNL     1      40.559  12.886  61.583  1.00  0.00     0.017 A 
HETATM   40  C24 UNL     1      39.971  12.181  60.533  1.00  0.00     0.088 A 
HETATM   41  N5  UNL     1      40.382  12.424  59.279  1.00  0.00    -0.368 N 
ATOM     42  H5  UNL     1      39.948  11.904  58.517  1.00  0.00     0.165 HD
ENDBRANCH  35  36
ENDBRANCH  33  35
ENDBRANCH  26  33
ENDBRANCH   4  23
TORSDOF 7
ENDMDL
MODEL 3
REMARK VINA RESULT: -10.417860553      1.034      1.717
REMARK  7 active torsions:
REMARK  status: ('A' for Active; 'I' for Inactive)
REMARK    1  A    between atoms: C1_4  and  N2_5 
REMARK    2  A    between atoms: C1_4  and  C15_23 
REMARK    3  A    between atoms: N2_5  and  C2_7 
REMARK    4  A    between atoms: C5_10  and  C6_11 
REMARK    5  A    between atoms: C18_26  and  N4_27 
REMARK    6  A    between atoms: N4_27  and  C19_29 
REMARK    7  A    between atoms: C19_29  and  C20_30 
ROOT
HETATM    1  N1  UNL     1      40.525  13.086  50.609  1.00  0.00    -0.385 N 
ATOM      2  H11 UNL     1      39.775  12.617  51.114  1.00  0.00     0.157 HD
ATOM      3  H12 UNL     1      40.754  13.068  49.615  1.00  0.00     0.157 HD
HETATM    4  C1  UNL     1      41.220  13.899  51.384  1.00  0.00     0.110 C 
ENDROOT
BRANCH   4   5
HETATM    5  N2  UNL     1      42.260  14.548  50.683  1.00  0.00    -0.342 N 
ATOM      6  H2  UNL     1      43.147  14.696  51.163  1.00  0.00     0.167 HD
BRANCH   5   7
HETATM    7  C2  UNL     1      42.132  15.013  49.320  1.00  0.00     0.033 A 
HETATM    8  C3  UNL     1      42.961  14.579  48.313  1.00  0.00     0.030 A 
HETATM    9  C4  UNL     1      42.805  15.064  47.012  1.00  0.00     0.016 A 
HETATM   10  C5  UNL     1      41.835  15.979  46.692  1.00  0.00    -0.002 A 
HETATM   11  C13 UNL     1      41.002  16.416  47.699  1.00  0.00     0.016 A 
HETATM   12  C14 UNL     1      41.143  15.943  48.997  1.00  0.00     0.030 A 
BRANCH  10  13
HETATM   13  C6  UNL     1      41.662  16.494  45.333  1.00  0.00     0.085 A 
HETATM   14  N3  UNL     1      42.526  16.405  44.343  1.00  0.00    -0.349 N 
HETATM   15  C7  UNL     1      42.232  16.917  43.176  1.00  0.00     0.050 A 
ATOM     16  H3  UNL     1      43.421  15.937  44.486  1.00  0.00     0.166 HD
HETATM   17  C8  UNL     1      43.061  16.894  42.031  1.00  0.00     0.031 A 
HETATM   18  C12 UNL     1      41.018  17.531  43.041  1.00  0.00     0.033 A 
HETATM   19  C9  UNL     1      42.620  17.467  40.886  1.00  0.00     0.002 A 
HETATM   20  C10 UNL     1      41.411  18.090  40.715  1.00  0.00     0.002 A 
HETATM   21  C11 UNL     1      40.590  18.117  41.838  1.00  0.00     0.021 A 
HETATM   22  S1  UNL     1      40.364  17.335  44.615  1.00  0.00    -0.070 SA
ENDBRANCH  10  13
ENDBRANCH   5   7
ENDBRANCH   4   5
BRANCH   4  23
HETATM   23  C15 UNL     1      40.899  13.924  52.778  1.00  0.00     0.019 A 
HETATM   24  C16 UNL     1      41.737  13.204  53.658  1.00  0.00     0.018 A 
HETATM   25  C17 UNL     1      41.625  13.222  55.021  1.00  0.00     0.031 A 
HETATM   26  C18 UNL     1      40.646  13.976  55.609  1.00  0.00     0.039 A 
HETATM   27  C25 UNL     1      39.779  14.713  54.804  1.00  0.00     0.001 A 
HETATM   28  C26 UNL     1      38.777  15.451  55.396  1.00  0.00     0.014 A 
HETATM   29  C30 UNL     1      39.926  14.668  53.410  1.00  0.00    -0.010 A 
HETATM   30  C27 UNL     1      37.904  16.154  54.592  1.00  0.00     0.001 A 
HETATM   31  C28 UNL     1      38.014  16.131  53.241  1.00  0.00     0.001 A 
HETATM   32  C29 UNL     1      39.034  15.379  52.648  1.00  0.00     0.013 A 
BRANCH  26  33
HETATM   33  N4  UNL     1      40.561  14.006  57.018  1.00  0.00    -0.384 N 
ATOM     34  H4  UNL     1      40.629  14.897  57.510  1.00  0.00     0.160 HD
BRANCH  33  35
HETATM   35  C19 UNL     1      40.375  12.773  57.776  1.00  0.00     0.176 C 
BRANCH  35  36
HETATM   36  C20 UNL     1      40.715  13.042  59.202  1.00  0.00     0.026 A 
HETATM   37  C21 UNL     1      40.088  12.355  60.217  1.00  0.00     0.027 A 
HETATM   38  C22 UNL     1      40.452  12.648  61.535  1.00  0.00     0.003 A 
HETATM   39  C23 UNL     1      41.408  13.593  61.818  1.00  0.00     0.017 A 
HETATM   40  C24 UNL     1      42.024  14.270  60.766  1.00  0.00     0.088 A 
HETATM   41  N5  UNL     1      41.662  13.977  59.508  1.00  0.00    -0.368 N 
ATOM     42  H5  UNL     1      42.116  14.477  58.743  1.00  0.00     0.165 HD
ENDBRANCH  35  36
ENDBRANCH  33  35
ENDBRANCH  26  33
ENDBRANCH   4  23
TORSDOF 7
ENDMDL
MODEL 4
REMARK VINA RESULT: -10.387589755      1.329      2.028
REMARK  7 active torsions:
REMARK  status: ('A' for Active; 'I' for Inactive)
REMARK    1  A    between atoms: C1_4  and  N2_5 
REMARK    2  A    between atoms: C1_4  and  C15_23 
REMARK    3  A    between atoms: N2_5  and  C2_7 
REMARK    4  A    between atoms: C5_10  and  C6_11 
REMARK    5  A    between atoms: C18_26  and  N4_27 
REMARK    6  A    between atoms: N4_27  and  C19_29 
REMARK    7  A    between atoms: C19_29  and  C20_30 
ROOT
HETATM    1  N1  UNL     1      40.582  13.547  49.881  1.00  0.00    -0.385 N 
ATOM      2  H11 UNL     1      40.026  12.795  50.286  1.00  0.00     0.157 HD
ATOM      3  H12 UNL     1      40.810  13.738  48.905  1.00  0.00     0.157 HD
HETATM    4  C1  UNL     1      40.961  14.433  50.785  1.00  0.00     0.110 C 
ENDROOT
BRANCH   4   5
HETATM    5  N2  UNL     1      41.732  15.474  50.223  1.00  0.00    -0.342 N 
ATOM      6  H2  UNL     1      42.408  15.951  50.819  1.00  0.00     0.167 HD
BRANCH   5   7
HETATM    7  C2  UNL     1      41.611  15.900  48.847  1.00  0.00     0.033 A 
HETATM    8  C3  UNL     1      40.527  16.613  48.390  1.00  0.00     0.030 A 
HETATM    9  C4  UNL     1      40.449  16.995  47.048  1.00  0.00     0.016 A 
HETATM   10  C5  UNL     1      41.433  16.678  46.147  1.00  0.00    -0.002 A 
HETATM   11  C13 UNL     1      42.521  15.964  46.602  1.00  0.00     0.016 A 
HETATM   12  C14 UNL     1      42.614  15.578  47.932  1.00  0.00     0.030 A 
BRANCH  10  13
HETATM   13  C6  UNL     1      41.363  17.073  44.739  1.00  0.00     0.085 A 
HETATM   14  N3  UNL     1      40.513  17.924  44.203  1.00  0.00    -0.349 N 
HETATM   15  C7  UNL     1      40.569  18.179  42.921  1.00  0.00     0.050 A 
ATOM     16  H3  UNL     1      39.813  18.383  44.786  1.00  0.00     0.166 HD
HETATM   17  C8  UNL     1      39.723  19.067  42.218  1.00  0.00     0.031 A 
HETATM   18  C12 UNL     1      41.528  17.536  42.189  1.00  0.00     0.033 A 
HETATM   19  C9  UNL     1      39.902  19.231  40.885  1.00  0.00     0.002 A 
HETATM   20  C10 UNL     1      40.851  18.604  40.120  1.00  0.00     0.002 A 
HETATM   21  C11 UNL     1      41.687  17.728  40.807  1.00  0.00     0.021 A 
HETATM   22  S1  UNL     1      42.299  16.593  43.397  1.00  0.00    -0.070 SA
ENDBRANCH  10  13
ENDBRANCH   5   7
ENDBRANCH   4   5
BRANCH   4  23
HETATM   23  C15 UNL     1      40.641  14.165  52.154  1.00  0.00     0.019 A 
HETATM   24  C16 UNL     1      41.385  13.167  52.820  1.00  0.00     0.018 A 
HETATM   25  C17 UNL     1      41.271  12.876  54.151  1.00  0.00     0.031 A 
HETATM   26  C18 UNL     1      40.385  13.577  54.923  1.00  0.00     0.039 A 
HETATM   27  C25 UNL     1      39.613  14.577  54.334  1.00  0.00     0.001 A 
HETATM   28  C26 UNL     1      38.702  15.265  55.106  1.00  0.00     0.014 A 
HETATM   29  C30 UNL     1      39.758  14.845  52.965  1.00  0.00    -0.010 A 
HETATM   30  C27 UNL     1      37.920  16.232  54.510  1.00  0.00     0.001 A 
HETATM   31  C28 UNL     1      38.031  16.515  53.189  1.00  0.00     0.001 A 
HETATM   32  C29 UNL     1      38.959  15.813  52.412  1.00  0.00     0.013 A 
BRANCH  26  33
HETATM   33  N4  UNL     1      40.298  13.284  56.301  1.00  0.00    -0.384 N 
ATOM     34  H4  UNL     1      39.678  12.540  56.621  1.00  0.00     0.160 HD
BRANCH  33  35
HETATM   35  C19 UNL     1      41.089  14.035  57.270  1.00  0.00     0.176 C 
BRANCH  35  36
HETATM   36  C20 UNL     1      42.519  13.978  56.856  1.00  0.00     0.026 A 
HETATM   37  C21 UNL     1      43.126  15.067  56.272  1.00  0.00     0.027 A 
HETATM   38  C22 UNL     1      44.473  14.954  55.909  1.00  0.00     0.003 A 
HETATM   39  C23 UNL     1      45.176  13.795  56.125  1.00  0.00     0.017 A 
HETATM   40  C24 UNL     1      44.530  12.711  56.719  1.00  0.00     0.088 A 
HETATM   41  N5  UNL     1      43.238  12.836  57.061  1.00  0.00    -0.368 N 
ATOM     42  H5  UNL     1      42.771  12.039  57.494  1.00  0.00     0.165 HD
ENDBRANCH  35  36
ENDBRANCH  33  35
ENDBRANCH  26  33
ENDBRANCH   4  23
TORSDOF 7
ENDMDL
MODEL 5
REMARK VINA RESULT: -10.264880977      1.242      1.670
REMARK  7 active torsions:
REMARK  status: ('A' for Active; 'I' for Inactive)
REMARK    1  A    between atoms: C1_4  and  N2_5 
REMARK    2  A    between atoms: C1_4  and  C15_23 
REMARK    3  A    between atoms: N2_5  and  C2_7 
REMARK    4  A    between atoms: C5_10  and  C6_11 
REMARK    5  A    between atoms: C18_26  and  N4_27 
REMARK    6  A    between atoms: N4_27  and  C19_29 
REMARK    7  A    between atoms: C19_29  and  C20_30 
ROOT
HETATM    1  N1  UNL     1      40.510  13.845  50.556  1.00  0.00    -0.385 N 
ATOM      2  H11 UNL     1      40.590  12.999  51.118  1.00  0.00     0.157 HD
ATOM      3  H12 UNL     1      40.206  13.960  49.589  1.00  0.00     0.157 HD
HETATM    4  C1  UNL     1      40.756  14.937  51.256  1.00  0.00     0.110 C 
ENDROOT
BRANCH   4   5
HETATM    5  N2  UNL     1      40.645  16.110  50.477  1.00  0.00    -0.342 N 
ATOM      6  H2  UNL     1      40.298  16.957  50.925  1.00  0.00     0.167 HD
BRANCH   5   7
HETATM    7  C2  UNL     1      40.999  16.170  49.076  1.00  0.00     0.033 A 
HETATM    8  C3  UNL     1      42.097  15.518  48.566  1.00  0.00     0.030 A 
HETATM    9  C4  UNL     1      42.406  15.613  47.207  1.00  0.00     0.016 A 
HETATM   10  C5  UNL     1      41.639  16.349  46.340  1.00  0.00    -0.002 A 
HETATM   11  C13 UNL     1      40.538  17.003  46.848  1.00  0.00     0.016 A 
HETATM   12  C14 UNL     1      40.217  16.918  48.197  1.00  0.00     0.030 A 
BRANCH  10  13
HETATM   13  C6  UNL     1      41.952  16.456  44.914  1.00  0.00     0.085 A 
HETATM   14  N3  UNL     1      41.217  17.040  43.991  1.00  0.00    -0.349 N 
HETATM   15  C7  UNL     1      41.625  17.057  42.748  1.00  0.00     0.050 A 
ATOM     16  H3  UNL     1      40.330  17.479  44.244  1.00  0.00     0.166 HD
HETATM   17  C8  UNL     1      40.940  17.646  41.661  1.00  0.00     0.031 A 
HETATM   18  C12 UNL     1      42.821  16.456  42.467  1.00  0.00     0.033 A 
HETATM   19  C9  UNL     1      41.490  17.586  40.425  1.00  0.00     0.002 A 
HETATM   20  C10 UNL     1      42.684  16.992  40.106  1.00  0.00     0.002 A 
HETATM   21  C11 UNL     1      43.364  16.410  41.172  1.00  0.00     0.021 A 
HETATM   22  S1  UNL     1      43.290  15.895  44.019  1.00  0.00    -0.070 SA
ENDBRANCH  10  13
ENDBRANCH   5   7
ENDBRANCH   4   5
BRANCH   4  23
HETATM   23  C15 UNL     1      41.182  14.776  52.613  1.00  0.00     0.019 A 
HETATM   24  C16 UNL     1      42.571  14.728  52.864  1.00  0.00     0.018 A 
HETATM   25  C17 UNL     1      43.131  14.688  54.111  1.00  0.00     0.031 A 
HETATM   26  C18 UNL     1      42.323  14.691  55.216  1.00  0.00     0.039 A 
HETATM   27  C25 UNL     1      40.940  14.735  55.046  1.00  0.00     0.001 A 
HETATM   28  C26 UNL     1      40.126  14.712  56.158  1.00  0.00     0.014 A 
HETATM   29  C30 UNL     1      40.405  14.774  53.751  1.00  0.00    -0.010 A 
HETATM   30  C27 UNL     1      38.758  14.724  55.982  1.00  0.00     0.001 A 
HETATM   31  C28 UNL     1      38.205  14.759  54.744  1.00  0.00     0.001 A 
HETATM   32  C29 UNL     1      39.039  14.783  53.621  1.00  0.00     0.013 A 
BRANCH  26  33
HETATM   33  N4  UNL     1      42.916  14.677  56.496  1.00  0.00    -0.384 N 
ATOM     34  H4  UNL     1      43.053  15.554  56.999  1.00  0.00     0.160 HD
BRANCH  33  35
HETATM   35  C19 UNL     1      43.333  13.419  57.107  1.00  0.00     0.176 C 
BRANCH  35  36
HETATM   36  C20 UNL     1      42.623  13.270  58.408  1.00  0.00     0.026 A 
HETATM   37  C21 UNL     1      42.472  14.345  59.255  1.00  0.00     0.027 A 
HETATM   38  C22 UNL     1      41.793  14.143  60.461  1.00  0.00     0.003 A 
HETATM   39  C23 UNL     1      41.287  12.912  60.799  1.00  0.00     0.017 A 
HETATM   40  C24 UNL     1      41.458  11.845  59.918  1.00  0.00     0.088 A 
HETATM   41  N5  UNL     1      42.112  12.055  58.765  1.00  0.00    -0.368 N 
ATOM     42  H5  UNL     1      42.234  11.270  58.126  1.00  0.00     0.165 HD
ENDBRANCH  35  36
ENDBRANCH  33  35
ENDBRANCH  26  33
ENDBRANCH   4  23
TORSDOF 7
ENDMDL
