MODEL 1
REMARK VINA RESULT: -10.164564278      0.000      0.000
REMARK  6 active torsions:
REMARK  status: ('A' for Active; 'I' for Inactive)
REMARK       I    between atoms: C1_2  and  N1_3 
REMARK       I    between atoms: C1_2  and  N4_24 
REMARK    1  A    between atoms: N1_3  and  N2_5 
REMARK    2  A    between atoms: C2_7  and  C3_8 
REMARK    3  A    between atoms: C6_11  and  C7_12 
REMARK    4  A    between atoms: N3_13  and  C8_15 
REMARK    5  A    between atoms: N4_24  and  C16_26 
REMARK    6  A    between atoms: C21_31  and  C22_32 
ROOT
HETATM    1  O1  UNL     1      42.896  12.756  55.390  1.00  0.00    -0.245 OA
HETATM    2  C1  UNL     1      43.480  13.852  55.382  1.00  0.00     0.339 C 
HETATM    3  N1  UNL     1      43.465  14.492  56.704  1.00  0.00    -0.252 N 
ATOM      4  H1  UNL     1      43.928  15.398  56.788  1.00  0.00     0.191 HD
HETATM    5  N4  UNL     1      44.112  14.507  54.304  1.00  0.00    -0.307 N 
ATOM      6  H4  UNL     1      44.537  15.412  54.503  1.00  0.00     0.170 HD
ENDROOT
BRANCH   3   7
HETATM    7  N2  UNL     1      42.896  13.989  57.809  1.00  0.00    -0.307 N 
HETATM    8  C2  UNL     1      42.521  14.376  58.927  1.00  0.00     0.118 C 
ATOM      9  H2  UNL     1      42.720  12.991  57.697  1.00  0.00     0.186 HD
BRANCH   8  10
HETATM   10  C3  UNL     1      41.920  13.398  59.843  1.00  0.00    -0.019 A 
HETATM   11  C4  UNL     1      41.602  13.811  61.120  1.00  0.00     0.014 A 
HETATM   12  C5  UNL     1      41.038  12.932  62.003  1.00  0.00     0.013 A 
HETATM   13  C6  UNL     1      40.776  11.608  61.633  1.00  0.00    -0.021 A 
HETATM   14  C14 UNL     1      41.096  11.206  60.357  1.00  0.00     0.013 A 
HETATM   15  C15 UNL     1      41.670  12.106  59.466  1.00  0.00     0.014 A 
BRANCH  13  16
HETATM   16  C7  UNL     1      40.187  10.765  62.662  1.00  0.00     0.099 C 
HETATM   17  N3  UNL     1      40.873   9.893  63.331  1.00  0.00    -0.364 N 
ATOM     18  H3  UNL     1      41.869   9.771  63.152  1.00  0.00     0.165 HD
BRANCH  17  19
HETATM   19  C8  UNL     1      40.215   9.108  64.322  1.00  0.00     0.049 A 
HETATM   20  C9  UNL     1      38.817   9.101  64.289  1.00  0.00     0.031 A 
HETATM   21  C10 UNL     1      38.107   8.364  65.211  1.00  0.00     0.002 A 
HETATM   22  C11 UNL     1      38.860   7.657  66.142  1.00  0.00     0.002 A 
HETATM   23  C12 UNL     1      40.235   7.664  66.178  1.00  0.00     0.021 A 
HETATM   24  C13 UNL     1      40.928   8.406  65.247  1.00  0.00     0.038 A 
HETATM   25  S1  UNL     1      42.714   8.433  65.259  1.00  0.00    -0.050 SA
ENDBRANCH  17  19
ENDBRANCH  13  16
ENDBRANCH   8  10
ENDBRANCH   3   7
BRANCH   5  26
HETATM   26  C16 UNL     1      44.216  14.039  52.984  1.00  0.00     0.049 A 
HETATM   27  C17 UNL     1      45.462  13.632  52.472  1.00  0.00     0.030 A 
HETATM   28  C18 UNL     1      45.622  13.162  51.177  1.00  0.00     0.002 A 
HETATM   29  C19 UNL     1      44.519  13.093  50.361  1.00  0.00     0.001 A 
HETATM   30  C20 UNL     1      43.301  13.492  50.862  1.00  0.00     0.016 A 
HETATM   31  C21 UNL     1      43.133  13.967  52.166  1.00  0.00     0.025 A 
BRANCH  31  32
HETATM   32  C22 UNL     1      41.779  14.372  52.578  1.00  0.00     0.087 A 
HETATM   33  N5  UNL     1      40.862  13.962  53.359  1.00  0.00    -0.349 N 
HETATM   34  C23 UNL     1      39.728  14.525  53.563  1.00  0.00     0.050 A 
ATOM     35  H5  UNL     1      41.046  13.101  53.874  1.00  0.00     0.166 HD
HETATM   36  C24 UNL     1      38.690  14.128  54.405  1.00  0.00     0.031 A 
HETATM   37  C28 UNL     1      39.514  15.685  52.851  1.00  0.00     0.033 A 
HETATM   38  C25 UNL     1      37.547  14.835  54.517  1.00  0.00     0.002 A 
HETATM   39  C26 UNL     1      37.317  15.997  53.811  1.00  0.00     0.002 A 
HETATM   40  C27 UNL     1      38.317  16.420  52.970  1.00  0.00     0.021 A 
HETATM   41  S2  UNL     1      40.971  15.824  51.973  1.00  0.00    -0.069 SA
ENDBRANCH  31  32
ENDBRANCH   5  26
TORSDOF 6
ENDMDL
MODEL 2
REMARK VINA RESULT: -10.112750392      0.758      1.102
REMARK  6 active torsions:
REMARK  status: ('A' for Active; 'I' for Inactive)
REMARK       I    between atoms: C1_2  and  N1_3 
REMARK       I    between atoms: C1_2  and  N4_24 
REMARK    1  A    between atoms: N1_3  and  N2_5 
REMARK    2  A    between atoms: C2_7  and  C3_8 
REMARK    3  A    between atoms: C6_11  and  C7_12 
REMARK    4  A    between atoms: N3_13  and  C8_15 
REMARK    5  A    between atoms: N4_24  and  C16_26 
REMARK    6  A    between atoms: C21_31  and  C22_32 
ROOT
HETATM    1  O1  UNL     1      42.844  12.820  55.318  1.00  0.00    -0.245 OA
HETATM    2  C1  UNL     1      43.477  13.887  55.257  1.00  0.00     0.339 C 
HETATM    3  N1  UNL     1      43.515  14.579  56.551  1.00  0.00    -0.252 N 
ATOM      4  H1  UNL     1      44.020  15.464  56.592  1.00  0.00     0.191 HD
HETATM    5  N4  UNL     1      44.120  14.468  54.143  1.00  0.00    -0.307 N 
ATOM      6  H4  UNL     1      44.589  15.360  54.299  1.00  0.00     0.170 HD
ENDROOT
BRANCH   3   7
HETATM    7  N2  UNL     1      42.943  14.147  57.685  1.00  0.00    -0.307 N 
HETATM    8  C2  UNL     1      42.496  14.614  58.744  1.00  0.00     0.118 C 
ATOM      9  H2  UNL     1      42.847  13.131  57.672  1.00  0.00     0.186 HD
BRANCH   8  10
HETATM   10  C3  UNL     1      41.935  13.689  59.738  1.00  0.00    -0.019 A 
HETATM   11  C4  UNL     1      41.580  12.423  59.322  1.00  0.00     0.014 A 
HETATM   12  C5  UNL     1      41.055  11.531  60.216  1.00  0.00     0.013 A 
HETATM   13  C6  UNL     1      40.869  11.881  61.558  1.00  0.00    -0.021 A 
HETATM   14  C14 UNL     1      41.227  13.147  61.964  1.00  0.00     0.013 A 
HETATM   15  C15 UNL     1      41.758  14.047  61.048  1.00  0.00     0.014 A 
BRANCH  13  16
HETATM   16  C7  UNL     1      40.292  10.853  62.410  1.00  0.00     0.099 C 
HETATM   17  N3  UNL     1      41.014  10.023  63.095  1.00  0.00    -0.364 N 
ATOM     18  H3  UNL     1      42.032  10.069  63.057  1.00  0.00     0.165 HD
BRANCH  17  19
HETATM   19  C8  UNL     1      40.365   9.046  63.903  1.00  0.00     0.049 A 
HETATM   20  C9  UNL     1      39.498   9.523  64.891  1.00  0.00     0.031 A 
HETATM   21  C10 UNL     1      38.831   8.642  65.711  1.00  0.00     0.002 A 
HETATM   22  C11 UNL     1      39.078   7.291  65.490  1.00  0.00     0.002 A 
HETATM   23  C12 UNL     1      39.930   6.818  64.521  1.00  0.00     0.021 A 
HETATM   24  C13 UNL     1      40.589   7.715  63.709  1.00  0.00     0.038 A 
HETATM   25  S1  UNL     1      41.699   7.137  62.435  1.00  0.00    -0.050 SA
ENDBRANCH  17  19
ENDBRANCH  13  16
ENDBRANCH   8  10
ENDBRANCH   3   7
BRANCH   5  26
HETATM   26  C16 UNL     1      44.179  13.945  52.842  1.00  0.00     0.049 A 
HETATM   27  C17 UNL     1      45.405  13.500  52.312  1.00  0.00     0.030 A 
HETATM   28  C18 UNL     1      45.521  12.974  51.033  1.00  0.00     0.002 A 
HETATM   29  C19 UNL     1      44.393  12.885  50.253  1.00  0.00     0.001 A 
HETATM   30  C20 UNL     1      43.195  13.321  50.773  1.00  0.00     0.016 A 
HETATM   31  C21 UNL     1      43.072  13.851  52.060  1.00  0.00     0.025 A 
BRANCH  31  32
HETATM   32  C22 UNL     1      41.735  14.290  52.493  1.00  0.00     0.087 A 
HETATM   33  N5  UNL     1      40.825  13.909  53.297  1.00  0.00    -0.349 N 
HETATM   34  C23 UNL     1      39.708  14.500  53.516  1.00  0.00     0.050 A 
ATOM     35  H5  UNL     1      41.000  13.051  53.818  1.00  0.00     0.166 HD
HETATM   36  C24 UNL     1      38.679  14.135  54.384  1.00  0.00     0.031 A 
HETATM   37  C28 UNL     1      39.504  15.656  52.795  1.00  0.00     0.033 A 
HETATM   38  C25 UNL     1      37.553  14.868  54.510  1.00  0.00     0.002 A 
HETATM   39  C26 UNL     1      37.335  16.026  53.794  1.00  0.00     0.002 A 
HETATM   40  C27 UNL     1      38.326  16.418  52.929  1.00  0.00     0.021 A 
HETATM   41  S2  UNL     1      40.946  15.753  51.887  1.00  0.00    -0.069 SA
ENDBRANCH  31  32
ENDBRANCH   5  26
TORSDOF 6
ENDMDL
MODEL 3
REMARK VINA RESULT: -9.829920440      0.996      1.242
REMARK  6 active torsions:
REMARK  status: ('A' for Active; 'I' for Inactive)
REMARK       I    between atoms: C1_2  and  N1_3 
REMARK       I    between atoms: C1_2  and  N4_24 
REMARK    1  A    between atoms: N1_3  and  N2_5 
REMARK    2  A    between atoms: C2_7  and  C3_8 
REMARK    3  A    between atoms: C6_11  and  C7_12 
REMARK    4  A    between atoms: N3_13  and  C8_15 
REMARK    5  A    between atoms: N4_24  and  C16_26 
REMARK    6  A    between atoms: C21_31  and  C22_32 
ROOT
HETATM    1  O1  UNL     1      42.953  12.742  55.665  1.00  0.00    -0.245 OA
HETATM    2  C1  UNL     1      43.524  13.846  55.679  1.00  0.00     0.339 C 
HETATM    3  N1  UNL     1      43.492  14.464  57.010  1.00  0.00    -0.252 N 
ATOM      4  H1  UNL     1      43.943  15.374  57.113  1.00  0.00     0.191 HD
HETATM    5  N4  UNL     1      44.156  14.525  54.616  1.00  0.00    -0.307 N 
ATOM      6  H4  UNL     1      44.568  15.432  54.833  1.00  0.00     0.170 HD
ENDROOT
BRANCH   3   7
HETATM    7  N2  UNL     1      42.921  13.936  58.103  1.00  0.00    -0.307 N 
HETATM    8  C2  UNL     1      42.510  14.305  59.215  1.00  0.00     0.118 C 
ATOM      9  H2  UNL     1      42.785  12.932  57.986  1.00  0.00     0.186 HD
BRANCH   8  10
HETATM   10  C3  UNL     1      41.929  13.303  60.116  1.00  0.00    -0.019 A 
HETATM   11  C4  UNL     1      41.449  13.725  61.339  1.00  0.00     0.014 A 
HETATM   12  C5  UNL     1      40.898  12.823  62.207  1.00  0.00     0.013 A 
HETATM   13  C6  UNL     1      40.811  11.466  61.876  1.00  0.00    -0.021 A 
HETATM   14  C14 UNL     1      41.293  11.054  60.654  1.00  0.00     0.013 A 
HETATM   15  C15 UNL     1      41.852  11.978  59.779  1.00  0.00     0.014 A 
BRANCH  13  16
HETATM   16  C7  UNL     1      40.218  10.603  62.885  1.00  0.00     0.099 C 
HETATM   17  N3  UNL     1      40.800   9.531  63.322  1.00  0.00    -0.364 N 
ATOM     18  H3  UNL     1      41.714   9.256  62.962  1.00  0.00     0.165 HD
BRANCH  17  19
HETATM   19  C8  UNL     1      40.145   8.743  64.312  1.00  0.00     0.049 A 
HETATM   20  C9  UNL     1      39.457   9.436  65.312  1.00  0.00     0.031 A 
HETATM   21  C10 UNL     1      38.796   8.745  66.303  1.00  0.00     0.002 A 
HETATM   22  C11 UNL     1      38.866   7.358  66.236  1.00  0.00     0.002 A 
HETATM   23  C12 UNL     1      39.544   6.673  65.255  1.00  0.00     0.021 A 
HETATM   24  C13 UNL     1      40.199   7.381  64.271  1.00  0.00     0.038 A 
HETATM   25  S1  UNL     1      41.083   6.525  62.976  1.00  0.00    -0.050 SA
ENDBRANCH  17  19
ENDBRANCH  13  16
ENDBRANCH   8  10
ENDBRANCH   3   7
BRANCH   5  26
HETATM   26  C16 UNL     1      44.275  14.081  53.290  1.00  0.00     0.049 A 
HETATM   27  C17 UNL     1      45.516  13.632  52.801  1.00  0.00     0.030 A 
HETATM   28  C18 UNL     1      45.690  13.182  51.500  1.00  0.00     0.002 A 
HETATM   29  C19 UNL     1      44.607  13.175  50.655  1.00  0.00     0.001 A 
HETATM   30  C20 UNL     1      43.394  13.615  51.134  1.00  0.00     0.016 A 
HETATM   31  C21 UNL     1      43.212  14.070  52.443  1.00  0.00     0.025 A 
BRANCH  31  32
HETATM   32  C22 UNL     1      41.865  14.522  52.829  1.00  0.00     0.087 A 
HETATM   33  N5  UNL     1      41.208  15.611  52.884  1.00  0.00    -0.349 N 
HETATM   34  C23 UNL     1      39.989  15.746  53.257  1.00  0.00     0.050 A 
ATOM     35  H5  UNL     1      41.699  16.459  52.603  1.00  0.00     0.166 HD
HETATM   36  C24 UNL     1      39.218  16.906  53.332  1.00  0.00     0.031 A 
HETATM   37  C28 UNL     1      39.357  14.580  53.630  1.00  0.00     0.033 A 
HETATM   38  C25 UNL     1      37.934  16.889  53.744  1.00  0.00     0.002 A 
HETATM   39  C26 UNL     1      37.289  15.730  54.121  1.00  0.00     0.002 A 
HETATM   40  C27 UNL     1      38.015  14.566  54.060  1.00  0.00     0.021 A 
HETATM   41  S2  UNL     1      40.596  13.429  53.398  1.00  0.00    -0.069 SA
ENDBRANCH  31  32
ENDBRANCH   5  26
TORSDOF 6
ENDMDL
MODEL 4
REMARK VINA RESULT: -9.829209937      1.316      1.776
REMARK  6 active torsions:
REMARK  status: ('A' for Active; 'I' for Inactive)
REMARK       I    between atoms: C1_2  and  N1_3 
REMARK       I    between atoms: C1_2  and  N4_24 
REMARK    1  A    between atoms: N1_3  and  N2_5 
REMARK    2  A    between atoms: C2_7  and  C3_8 
REMARK    3  A    between atoms: C6_11  and  C7_12 
REMARK    4  A    between atoms: N3_13  and  C8_15 
REMARK    5  A    between atoms: N4_24  and  C16_26 
REMARK    6  A    between atoms: C21_31  and  C22_32 
ROOT
HETATM    1  O1  UNL     1      43.262  12.619  56.826  1.00  0.00    -0.245 OA
HETATM    2  C1  UNL     1      43.419  13.851  56.859  1.00  0.00     0.339 C 
HETATM    3  N1  UNL     1      43.015  14.422  58.150  1.00  0.00    -0.252 N 
ATOM      4  H1  UNL     1      43.115  15.431  58.265  1.00  0.00     0.191 HD
HETATM    5  N4  UNL     1      43.910  14.704  55.848  1.00  0.00    -0.307 N 
ATOM      6  H4  UNL     1      43.961  15.698  56.073  1.00  0.00     0.170 HD
ENDROOT
BRANCH   3   7
HETATM    7  N2  UNL     1      42.526  13.732  59.190  1.00  0.00    -0.307 N 
HETATM    8  C2  UNL     1      42.120  13.941  60.345  1.00  0.00     0.118 C 
ATOM      9  H2  UNL     1      42.472  12.738  58.967  1.00  0.00     0.186 HD
BRANCH   8  10
HETATM   10  C3  UNL     1      41.655  12.801  61.143  1.00  0.00    -0.019 A 
HETATM   11  C4  UNL     1      40.360  12.824  61.620  1.00  0.00     0.014 A 
HETATM   12  C5  UNL     1      39.887  11.780  62.367  1.00  0.00     0.013 A 
HETATM   13  C6  UNL     1      40.698  10.678  62.659  1.00  0.00    -0.021 A 
HETATM   14  C14 UNL     1      41.988  10.664  62.179  1.00  0.00     0.013 A 
HETATM   15  C15 UNL     1      42.461  11.729  61.422  1.00  0.00     0.014 A 
BRANCH  13  16
HETATM   16  C7  UNL     1      40.088   9.637  63.472  1.00  0.00     0.099 C 
HETATM   17  N3  UNL     1      39.654   9.850  64.674  1.00  0.00    -0.364 N 
ATOM     18  H3  UNL     1      39.730  10.776  65.095  1.00  0.00     0.165 HD
BRANCH  17  19
HETATM   19  C8  UNL     1      39.070   8.771  65.400  1.00  0.00     0.049 A 
HETATM   20  C9  UNL     1      37.825   8.318  64.955  1.00  0.00     0.031 A 
HETATM   21  C10 UNL     1      37.197   7.277  65.601  1.00  0.00     0.002 A 
HETATM   22  C11 UNL     1      37.870   6.735  66.690  1.00  0.00     0.002 A 
HETATM   23  C12 UNL     1      39.094   7.180  67.132  1.00  0.00     0.021 A 
HETATM   24  C13 UNL     1      39.708   8.222  66.471  1.00  0.00     0.038 A 
HETATM   25  S1  UNL     1      41.301   8.822  67.012  1.00  0.00    -0.050 SA
ENDBRANCH  17  19
ENDBRANCH  13  16
ENDBRANCH   8  10
ENDBRANCH   3   7
BRANCH   5  26
HETATM   26  C16 UNL     1      44.336  14.326  54.566  1.00  0.00     0.049 A 
HETATM   27  C17 UNL     1      45.680  13.975  54.339  1.00  0.00     0.030 A 
HETATM   28  C18 UNL     1      46.155  13.594  53.093  1.00  0.00     0.002 A 
HETATM   29  C19 UNL     1      45.277  13.559  52.036  1.00  0.00     0.001 A 
HETATM   30  C20 UNL     1      43.963  13.903  52.259  1.00  0.00     0.016 A 
HETATM   31  C21 UNL     1      43.478  14.288  53.512  1.00  0.00     0.025 A 
BRANCH  31  32
HETATM   32  C22 UNL     1      42.053  14.642  53.615  1.00  0.00     0.087 A 
HETATM   33  N5  UNL     1      41.286  15.601  53.283  1.00  0.00    -0.349 N 
HETATM   34  C23 UNL     1      40.021  15.667  53.480  1.00  0.00     0.050 A 
ATOM     35  H5  UNL     1      41.720  16.396  52.814  1.00  0.00     0.166 HD
HETATM   36  C24 UNL     1      39.131  16.684  53.136  1.00  0.00     0.031 A 
HETATM   37  C28 UNL     1      39.469  14.577  54.117  1.00  0.00     0.033 A 
HETATM   38  C25 UNL     1      37.812  16.607  53.409  1.00  0.00     0.002 A 
HETATM   39  C26 UNL     1      37.246  15.523  54.045  1.00  0.00     0.002 A 
HETATM   40  C27 UNL     1      38.090  14.500  54.400  1.00  0.00     0.021 A 
HETATM   41  S2  UNL     1      40.840  13.589  54.355  1.00  0.00    -0.069 SA
ENDBRANCH  31  32
ENDBRANCH   5  26
TORSDOF 6
ENDMDL
MODEL 5
REMARK VINA RESULT: -9.685858062      6.019      9.763
REMARK  6 active torsions:
REMARK  status: ('A' for Active; 'I' for Inactive)
REMARK       I    between atoms: C1_2  and  N1_3 
REMARK       I    between atoms: C1_2  and  N4_24 
REMARK    1  A    between atoms: N1_3  and  N2_5 
REMARK    2  A    between atoms: C2_7  and  C3_8 
REMARK    3  A    between atoms: C6_11  and  C7_12 
REMARK    4  A    between atoms: N3_13  and  C8_15 
REMARK    5  A    between atoms: N4_24  and  C16_26 
REMARK    6  A    between atoms: C21_31  and  C22_32 
ROOT
HETATM    1  O1  UNL     1      41.205  15.606  46.760  1.00  0.00    -0.245 OA
HETATM    2  C1  UNL     1      41.821  16.676  46.895  1.00  0.00     0.339 C 
HETATM    3  N1  UNL     1      42.076  16.989  48.307  1.00  0.00    -0.252 N 
ATOM      4  H1  UNL     1      42.584  17.851  48.509  1.00  0.00     0.191 HD
HETATM    5  N4  UNL     1      42.271  17.567  45.897  1.00  0.00    -0.307 N 
ATOM      6  H4  UNL     1      42.762  18.401  46.215  1.00  0.00     0.170 HD
ENDROOT
BRANCH   3   7
HETATM    7  N2  UNL     1      41.701  16.240  49.353  1.00  0.00    -0.307 N 
HETATM    8  C2  UNL     1      40.948  15.283  49.597  1.00  0.00     0.118 C 
ATOM      9  H2  UNL     1      42.174  16.548  50.202  1.00  0.00     0.186 HD
BRANCH   8  10
HETATM   10  C3  UNL     1      40.873  14.783  50.975  1.00  0.00    -0.019 A 
HETATM   11  C4  UNL     1      41.531  15.487  51.961  1.00  0.00     0.014 A 
HETATM   12  C5  UNL     1      41.484  15.056  53.258  1.00  0.00     0.013 A 
HETATM   13  C6  UNL     1      40.774  13.902  53.608  1.00  0.00    -0.021 A 
HETATM   14  C14 UNL     1      40.120  13.205  52.617  1.00  0.00     0.013 A 
HETATM   15  C15 UNL     1      40.175  13.651  51.302  1.00  0.00     0.014 A 
BRANCH  13  16
HETATM   16  C7  UNL     1      40.808  13.536  55.015  1.00  0.00     0.099 C 
HETATM   17  N3  UNL     1      41.880  13.630  55.739  1.00  0.00    -0.364 N 
ATOM     18  H3  UNL     1      42.751  13.971  55.331  1.00  0.00     0.165 HD
BRANCH  17  19
HETATM   19  C8  UNL     1      41.824  13.248  57.110  1.00  0.00     0.049 A 
HETATM   20  C9  UNL     1      40.565  13.273  57.717  1.00  0.00     0.031 A 
HETATM   21  C10 UNL     1      40.426  12.915  59.040  1.00  0.00     0.002 A 
HETATM   22  C11 UNL     1      41.593  12.545  59.700  1.00  0.00     0.002 A 
HETATM   23  C12 UNL     1      42.833  12.522  59.107  1.00  0.00     0.021 A 
HETATM   24  C13 UNL     1      42.952  12.882  57.782  1.00  0.00     0.038 A 
HETATM   25  S1  UNL     1      44.546  12.858  56.976  1.00  0.00    -0.050 SA
ENDBRANCH  17  19
ENDBRANCH  13  16
ENDBRANCH   8  10
ENDBRANCH   3   7
BRANCH   5  26
HETATM   26  C16 UNL     1      42.110  17.421  44.510  1.00  0.00     0.049 A 
HETATM   27  C17 UNL     1      40.864  17.680  43.909  1.00  0.00     0.030 A 
HETATM   28  C18 UNL     1      40.649  17.553  42.544  1.00  0.00     0.002 A 
HETATM   29  C19 UNL     1      41.696  17.156  41.748  1.00  0.00     0.001 A 
HETATM   30  C20 UNL     1      42.914  16.902  42.337  1.00  0.00     0.016 A 
HETATM   31  C21 UNL     1      43.137  17.029  43.711  1.00  0.00     0.025 A 
BRANCH  31  32
HETATM   32  C22 UNL     1      44.484  16.718  44.217  1.00  0.00     0.087 A 
HETATM   33  N5  UNL     1      45.653  17.219  44.175  1.00  0.00    -0.349 N 
HETATM   34  C23 UNL     1      46.704  16.745  44.735  1.00  0.00     0.050 A 
ATOM     35  H5  UNL     1      45.765  18.082  43.643  1.00  0.00     0.166 HD
HETATM   36  C24 UNL     1      48.004  17.249  44.729  1.00  0.00     0.031 A 
HETATM   37  C28 UNL     1      46.515  15.579  45.444  1.00  0.00     0.033 A 
HETATM   38  C25 UNL     1      49.016  16.634  45.376  1.00  0.00     0.002 A 
HETATM   39  C26 UNL     1      48.842  15.467  46.089  1.00  0.00     0.002 A 
HETATM   40  C27 UNL     1      47.575  14.940  46.119  1.00  0.00     0.021 A 
HETATM   41  S2  UNL     1      44.846  15.305  45.217  1.00  0.00    -0.069 SA
ENDBRANCH  31  32
ENDBRANCH   5  26
TORSDOF 6
ENDMDL
