MODEL 1
REMARK VINA RESULT: -9.219943353      0.000      0.000
REMARK  7 active torsions:
REMARK  status: ('A' for Active; 'I' for Inactive)
REMARK    1  A    between atoms: C2_2  and  N1_3 
REMARK    2  A    between atoms: C2_2  and  C8_12 
REMARK    3  A    between atoms: N1_3  and  C3_5 
REMARK    4  A    between atoms: C9_13  and  C10_14 
REMARK    5  A    between atoms: C13_17  and  N3_18 
REMARK       I    between atoms: N3_18  and  C14_20 
REMARK       I    between atoms: C14_20  and  N4_22 
REMARK    6  A    between atoms: N4_22  and  C15_24 
REMARK    7  A    between atoms: C20_29  and  N5_30 
ROOT
HETATM    1  C8  UNL     1      44.793  15.441  44.760  1.00  0.00     0.067 A 
HETATM    2  C9  UNL     1      44.852  15.258  46.102  1.00  0.00     0.069 A 
HETATM    3  N6  UNL     1      46.160  15.479  46.453  1.00  0.00    -0.340 N 
ATOM      4  H6  UNL     1      46.545  15.420  47.396  1.00  0.00     0.167 HD
HETATM    5  C23 UNL     1      46.843  15.785  45.346  1.00  0.00     0.112 A 
HETATM    6  C24 UNL     1      48.181  16.110  45.173  1.00  0.00     0.049 A 
HETATM    7  C25 UNL     1      48.704  16.424  43.926  1.00  0.00     0.005 A 
HETATM    8  C26 UNL     1      47.838  16.397  42.868  1.00  0.00     0.018 A 
HETATM    9  C27 UNL     1      46.523  16.073  43.056  1.00  0.00     0.099 A 
HETATM   10  N7  UNL     1      46.042  15.774  44.269  1.00  0.00    -0.308 N 
ENDROOT
BRANCH   2  11
HETATM   11  C10 UNL     1      43.882  14.838  47.127  1.00  0.00    -0.007 A 
HETATM   12  C11 UNL     1      43.908  13.671  47.779  1.00  0.00     0.016 A 
HETATM   13  C12 UNL     1      42.891  13.363  48.697  1.00  0.00     0.030 A 
HETATM   14  C13 UNL     1      41.850  14.202  48.974  1.00  0.00     0.036 A 
HETATM   15  C21 UNL     1      41.840  15.412  48.292  1.00  0.00     0.030 A 
HETATM   16  C22 UNL     1      42.814  15.723  47.403  1.00  0.00     0.016 A 
BRANCH  14  17
HETATM   17  N3  UNL     1      40.762  13.937  49.830  1.00  0.00    -0.309 N 
HETATM   18  C14 UNL     1      40.885  14.124  51.240  1.00  0.00     0.325 C 
HETATM   19  O1  UNL     1      42.014  14.514  51.642  1.00  0.00    -0.247 OA
HETATM   20  N4  UNL     1      39.855  13.907  52.152  1.00  0.00    -0.306 N 
ATOM     21  H4  UNL     1      38.957  13.595  51.782  1.00  0.00     0.171 HD
ATOM     22  H3  UNL     1      39.879  13.609  49.439  1.00  0.00     0.170 HD
BRANCH  20  23
HETATM   23  C15 UNL     1      39.955  14.083  53.549  1.00  0.00     0.069 A 
HETATM   24  C16 UNL     1      40.844  13.397  54.310  1.00  0.00     0.032 A 
HETATM   25  C17 UNL     1      40.934  13.522  55.705  1.00  0.00     0.002 A 
HETATM   26  C18 UNL     1      40.086  14.379  56.351  1.00  0.00     0.003 A 
HETATM   27  C19 UNL     1      39.182  15.081  55.602  1.00  0.00     0.038 A 
HETATM   28  C20 UNL     1      39.090  14.958  54.214  1.00  0.00     0.129 A 
BRANCH  28  29
HETATM   29  N5  UNL     1      38.123  15.733  53.574  1.00  0.00    -0.113 N 
HETATM   30  O2  UNL     1      38.538  16.490  52.631  1.00  0.00    -0.532 OA
HETATM   31  O3  UNL     1      36.794  15.766  53.862  1.00  0.00    -0.532 OA
ENDBRANCH  28  29
ENDBRANCH  20  23
ENDBRANCH  14  17
ENDBRANCH   2  11
BRANCH   1  32
HETATM   32  C2  UNL     1      43.547  15.464  43.947  1.00  0.00     0.130 C 
HETATM   33  C1  UNL     1      43.709  14.281  42.934  1.00  0.00     0.039 C 
BRANCH  32  34
HETATM   34  N1  UNL     1      43.423  16.604  43.063  1.00  0.00    -0.379 N 
ATOM     35  H1  UNL     1      44.327  17.005  42.815  1.00  0.00     0.160 HD
BRANCH  34  36
HETATM   36  C3  UNL     1      42.357  17.283  42.469  1.00  0.00     0.044 A 
HETATM   37  C4  UNL     1      42.022  17.286  41.137  1.00  0.00     0.032 A 
HETATM   38  C5  UNL     1      40.939  18.020  40.648  1.00  0.00     0.019 A 
HETATM   39  C6  UNL     1      40.199  18.753  41.535  1.00  0.00     0.088 A 
HETATM   40  N2  UNL     1      40.531  18.748  42.841  1.00  0.00    -0.373 N 
HETATM   41  C7  UNL     1      41.547  18.067  43.339  1.00  0.00     0.116 A 
ATOM     42  H2  UNL     1      39.965  19.303  43.483  1.00  0.00     0.164 HD
ENDBRANCH  34  36
ENDBRANCH  32  34
ENDBRANCH   1  32
TORSDOF 7
ENDMDL
MODEL 2
REMARK VINA RESULT: -9.189426573      3.425     11.268
REMARK  7 active torsions:
REMARK  status: ('A' for Active; 'I' for Inactive)
REMARK    1  A    between atoms: C2_2  and  N1_3 
REMARK    2  A    between atoms: C2_2  and  C8_12 
REMARK    3  A    between atoms: N1_3  and  C3_5 
REMARK    4  A    between atoms: C9_13  and  C10_14 
REMARK    5  A    between atoms: C13_17  and  N3_18 
REMARK       I    between atoms: N3_18  and  C14_20 
REMARK       I    between atoms: C14_20  and  N4_22 
REMARK    6  A    between atoms: N4_22  and  C15_24 
REMARK    7  A    between atoms: C20_29  and  N5_30 
ROOT
HETATM    1  C8  UNL     1      40.419  14.125  52.037  1.00  0.00     0.067 A 
HETATM    2  C9  UNL     1      40.611  15.118  51.135  1.00  0.00     0.069 A 
HETATM    3  N6  UNL     1      39.872  16.183  51.586  1.00  0.00    -0.340 N 
ATOM      4  H6  UNL     1      39.797  17.094  51.133  1.00  0.00     0.167 HD
HETATM    5  C23 UNL     1      39.268  15.820  52.722  1.00  0.00     0.112 A 
HETATM    6  C24 UNL     1      38.434  16.537  53.569  1.00  0.00     0.049 A 
HETATM    7  C25 UNL     1      37.917  15.982  54.731  1.00  0.00     0.005 A 
HETATM    8  C26 UNL     1      38.265  14.689  55.006  1.00  0.00     0.018 A 
HETATM    9  C27 UNL     1      39.086  13.996  54.160  1.00  0.00     0.099 A 
HETATM   10  N7  UNL     1      39.573  14.554  53.044  1.00  0.00    -0.308 N 
ENDROOT
BRANCH   2  11
HETATM   11  C10 UNL     1      41.336  15.222  49.857  1.00  0.00    -0.007 A 
HETATM   12  C11 UNL     1      42.277  14.371  49.435  1.00  0.00     0.016 A 
HETATM   13  C12 UNL     1      42.937  14.609  48.220  1.00  0.00     0.030 A 
HETATM   14  C13 UNL     1      42.671  15.683  47.419  1.00  0.00     0.036 A 
HETATM   15  C21 UNL     1      41.687  16.554  47.869  1.00  0.00     0.030 A 
HETATM   16  C22 UNL     1      41.042  16.338  49.040  1.00  0.00     0.016 A 
BRANCH  14  17
HETATM   17  N3  UNL     1      43.333  16.023  46.222  1.00  0.00    -0.309 N 
HETATM   18  C14 UNL     1      42.590  16.355  45.049  1.00  0.00     0.325 C 
HETATM   19  O1  UNL     1      41.336  16.302  45.165  1.00  0.00    -0.247 OA
HETATM   20  N4  UNL     1      43.164  16.722  43.835  1.00  0.00    -0.306 N 
ATOM     21  H4  UNL     1      44.182  16.755  43.787  1.00  0.00     0.171 HD
ATOM     22  H3  UNL     1      44.353  16.032  46.193  1.00  0.00     0.170 HD
BRANCH  20  23
HETATM   23  C15 UNL     1      42.449  17.052  42.664  1.00  0.00     0.069 A 
HETATM   24  C16 UNL     1      41.546  18.064  42.620  1.00  0.00     0.032 A 
HETATM   25  C17 UNL     1      40.791  18.384  41.481  1.00  0.00     0.002 A 
HETATM   26  C18 UNL     1      40.961  17.646  40.341  1.00  0.00     0.003 A 
HETATM   27  C19 UNL     1      41.866  16.621  40.365  1.00  0.00     0.038 A 
HETATM   28  C20 UNL     1      42.619  16.300  41.497  1.00  0.00     0.129 A 
BRANCH  28  29
HETATM   29  N5  UNL     1      43.507  15.230  41.383  1.00  0.00    -0.113 N 
HETATM   30  O2  UNL     1      43.211  14.341  40.513  1.00  0.00    -0.532 OA
HETATM   31  O3  UNL     1      44.641  15.041  42.109  1.00  0.00    -0.532 OA
ENDBRANCH  28  29
ENDBRANCH  20  23
ENDBRANCH  14  17
ENDBRANCH   2  11
BRANCH   1  32
HETATM   32  C2  UNL     1      41.142  12.825  52.057  1.00  0.00     0.130 C 
HETATM   33  C1  UNL     1      40.021  11.747  52.237  1.00  0.00     0.039 C 
BRANCH  32  34
HETATM   34  N1  UNL     1      41.963  12.607  53.229  1.00  0.00    -0.379 N 
ATOM     35  H1  UNL     1      42.009  11.623  53.495  1.00  0.00     0.160 HD
BRANCH  34  36
HETATM   36  C3  UNL     1      42.706  13.425  54.083  1.00  0.00     0.044 A 
HETATM   37  C4  UNL     1      43.636  14.368  53.719  1.00  0.00     0.032 A 
HETATM   38  C5  UNL     1      44.336  15.121  54.663  1.00  0.00     0.019 A 
HETATM   39  C6  UNL     1      44.076  14.902  55.988  1.00  0.00     0.088 A 
HETATM   40  N2  UNL     1      43.163  13.976  56.343  1.00  0.00    -0.373 N 
HETATM   41  C7  UNL     1      42.483  13.246  55.478  1.00  0.00     0.116 A 
ATOM     42  H2  UNL     1      42.988  13.831  57.337  1.00  0.00     0.164 HD
ENDBRANCH  34  36
ENDBRANCH  32  34
ENDBRANCH   1  32
TORSDOF 7
ENDMDL
MODEL 3
REMARK VINA RESULT: -9.039510420      3.288     10.988
REMARK  7 active torsions:
REMARK  status: ('A' for Active; 'I' for Inactive)
REMARK    1  A    between atoms: C2_2  and  N1_3 
REMARK    2  A    between atoms: C2_2  and  C8_12 
REMARK    3  A    between atoms: N1_3  and  C3_5 
REMARK    4  A    between atoms: C9_13  and  C10_14 
REMARK    5  A    between atoms: C13_17  and  N3_18 
REMARK       I    between atoms: N3_18  and  C14_20 
REMARK       I    between atoms: C14_20  and  N4_22 
REMARK    6  A    between atoms: N4_22  and  C15_24 
REMARK    7  A    between atoms: C20_29  and  N5_30 
ROOT
HETATM    1  C8  UNL     1      40.357  14.094  52.067  1.00  0.00     0.067 A 
HETATM    2  C9  UNL     1      40.621  15.074  51.169  1.00  0.00     0.069 A 
HETATM    3  N6  UNL     1      39.896  16.165  51.581  1.00  0.00    -0.340 N 
ATOM      4  H6  UNL     1      39.870  17.074  51.121  1.00  0.00     0.167 HD
HETATM    5  C23 UNL     1      39.230  15.828  52.690  1.00  0.00     0.112 A 
HETATM    6  C24 UNL     1      38.382  16.576  53.495  1.00  0.00     0.049 A 
HETATM    7  C25 UNL     1      37.796  16.045  54.636  1.00  0.00     0.005 A 
HETATM    8  C26 UNL     1      38.091  14.743  54.932  1.00  0.00     0.018 A 
HETATM    9  C27 UNL     1      38.927  14.020  54.128  1.00  0.00     0.099 A 
HETATM   10  N7  UNL     1      39.481  14.554  53.032  1.00  0.00    -0.308 N 
ENDROOT
BRANCH   2  11
HETATM   11  C10 UNL     1      41.405  15.147  49.925  1.00  0.00    -0.007 A 
HETATM   12  C11 UNL     1      42.377  14.297  49.577  1.00  0.00     0.016 A 
HETATM   13  C12 UNL     1      43.092  14.506  48.388  1.00  0.00     0.030 A 
HETATM   14  C13 UNL     1      42.851  15.549  47.539  1.00  0.00     0.036 A 
HETATM   15  C21 UNL     1      41.834  16.419  47.912  1.00  0.00     0.030 A 
HETATM   16  C22 UNL     1      41.136  16.231  49.057  1.00  0.00     0.016 A 
BRANCH  14  17
HETATM   17  N3  UNL     1      43.565  15.860  46.364  1.00  0.00    -0.309 N 
HETATM   18  C14 UNL     1      42.900  15.913  45.103  1.00  0.00     0.325 C 
HETATM   19  O1  UNL     1      41.668  15.650  45.123  1.00  0.00    -0.247 OA
HETATM   20  N4  UNL     1      43.526  16.233  43.900  1.00  0.00    -0.306 N 
ATOM     21  H4  UNL     1      44.524  16.442  43.931  1.00  0.00     0.171 HD
ATOM     22  H3  UNL     1      44.566  16.047  46.417  1.00  0.00     0.170 HD
BRANCH  20  23
HETATM   23  C15 UNL     1      42.890  16.290  42.642  1.00  0.00     0.069 A 
HETATM   24  C16 UNL     1      43.295  15.544  41.583  1.00  0.00     0.032 A 
HETATM   25  C17 UNL     1      42.707  15.615  40.311  1.00  0.00     0.002 A 
HETATM   26  C18 UNL     1      41.665  16.478  40.107  1.00  0.00     0.003 A 
HETATM   27  C19 UNL     1      41.241  17.239  41.161  1.00  0.00     0.038 A 
HETATM   28  C20 UNL     1      41.824  17.171  42.429  1.00  0.00     0.129 A 
BRANCH  28  29
HETATM   29  N5  UNL     1      41.293  18.003  43.414  1.00  0.00    -0.113 N 
HETATM   30  O2  UNL     1      42.118  18.789  43.995  1.00  0.00    -0.532 OA
HETATM   31  O3  UNL     1      39.996  18.051  43.818  1.00  0.00    -0.532 OA
ENDBRANCH  28  29
ENDBRANCH  20  23
ENDBRANCH  14  17
ENDBRANCH   2  11
BRANCH   1  32
HETATM   32  C2  UNL     1      41.038  12.772  52.126  1.00  0.00     0.130 C 
HETATM   33  C1  UNL     1      39.876  11.728  52.235  1.00  0.00     0.039 C 
BRANCH  32  34
HETATM   34  N1  UNL     1      41.780  12.527  53.345  1.00  0.00    -0.379 N 
ATOM     35  H1  UNL     1      41.699  11.561  53.662  1.00  0.00     0.160 HD
BRANCH  34  36
HETATM   36  C3  UNL     1      42.579  13.301  54.189  1.00  0.00     0.044 A 
HETATM   37  C4  UNL     1      42.317  13.635  55.494  1.00  0.00     0.032 A 
HETATM   38  C5  UNL     1      43.183  14.434  56.243  1.00  0.00     0.019 A 
HETATM   39  C6  UNL     1      44.326  14.889  55.643  1.00  0.00     0.088 A 
HETATM   40  N2  UNL     1      44.581  14.559  54.361  1.00  0.00    -0.373 N 
HETATM   41  C7  UNL     1      43.785  13.807  53.624  1.00  0.00     0.116 A 
ATOM     42  H2  UNL     1      45.438  14.911  53.936  1.00  0.00     0.164 HD
ENDBRANCH  34  36
ENDBRANCH  32  34
ENDBRANCH   1  32
TORSDOF 7
ENDMDL
MODEL 4
REMARK VINA RESULT: -8.959863811      3.283     10.781
REMARK  7 active torsions:
REMARK  status: ('A' for Active; 'I' for Inactive)
REMARK    1  A    between atoms: C2_2  and  N1_3 
REMARK    2  A    between atoms: C2_2  and  C8_12 
REMARK    3  A    between atoms: N1_3  and  C3_5 
REMARK    4  A    between atoms: C9_13  and  C10_14 
REMARK    5  A    between atoms: C13_17  and  N3_18 
REMARK       I    between atoms: N3_18  and  C14_20 
REMARK       I    between atoms: C14_20  and  N4_22 
REMARK    6  A    between atoms: N4_22  and  C15_24 
REMARK    7  A    between atoms: C20_29  and  N5_30 
ROOT
HETATM    1  C8  UNL     1      42.293  13.315  56.110  1.00  0.00     0.067 A 
HETATM    2  C9  UNL     1      41.158  13.838  55.586  1.00  0.00     0.069 A 
HETATM    3  N6  UNL     1      40.208  13.740  56.572  1.00  0.00    -0.340 N 
ATOM      4  H6  UNL     1      39.237  14.043  56.501  1.00  0.00     0.167 HD
HETATM    5  C23 UNL     1      40.777  13.176  57.643  1.00  0.00     0.112 A 
HETATM    6  C24 UNL     1      40.250  12.880  58.893  1.00  0.00     0.049 A 
HETATM    7  C25 UNL     1      41.020  12.307  59.895  1.00  0.00     0.005 A 
HETATM    8  C26 UNL     1      42.327  12.043  59.596  1.00  0.00     0.018 A 
HETATM    9  C27 UNL     1      42.830  12.340  58.359  1.00  0.00     0.099 A 
HETATM   10  N7  UNL     1      42.067  12.893  57.408  1.00  0.00    -0.308 N 
ENDROOT
BRANCH   2  11
HETATM   11  C10 UNL     1      40.784  14.369  54.264  1.00  0.00    -0.007 A 
HETATM   12  C11 UNL     1      40.112  13.695  53.326  1.00  0.00     0.016 A 
HETATM   13  C12 UNL     1      39.865  14.293  52.080  1.00  0.00     0.030 A 
HETATM   14  C13 UNL     1      40.277  15.555  51.758  1.00  0.00     0.036 A 
HETATM   15  C21 UNL     1      40.970  16.244  52.746  1.00  0.00     0.030 A 
HETATM   16  C22 UNL     1      41.216  15.679  53.952  1.00  0.00     0.016 A 
BRANCH  14  17
HETATM   17  N3  UNL     1      40.123  16.197  50.513  1.00  0.00    -0.309 N 
HETATM   18  C14 UNL     1      41.001  15.898  49.428  1.00  0.00     0.325 C 
HETATM   19  O1  UNL     1      41.905  15.055  49.673  1.00  0.00    -0.247 OA
HETATM   20  N4  UNL     1      40.905  16.470  48.161  1.00  0.00    -0.306 N 
ATOM     21  H4  UNL     1      40.157  17.145  48.006  1.00  0.00     0.171 HD
ATOM     22  H3  UNL     1      39.378  16.882  50.386  1.00  0.00     0.170 HD
BRANCH  20  23
HETATM   23  C15 UNL     1      41.762  16.190  47.076  1.00  0.00     0.069 A 
HETATM   24  C16 UNL     1      43.008  15.679  47.241  1.00  0.00     0.032 A 
HETATM   25  C17 UNL     1      43.896  15.433  46.183  1.00  0.00     0.002 A 
HETATM   26  C18 UNL     1      43.500  15.719  44.904  1.00  0.00     0.003 A 
HETATM   27  C19 UNL     1      42.248  16.234  44.715  1.00  0.00     0.038 A 
HETATM   28  C20 UNL     1      41.363  16.480  45.767  1.00  0.00     0.129 A 
BRANCH  28  29
HETATM   29  N5  UNL     1      40.116  17.009  45.433  1.00  0.00    -0.113 N 
HETATM   30  O2  UNL     1      39.109  16.511  46.044  1.00  0.00    -0.532 OA
HETATM   31  O3  UNL     1      39.871  17.987  44.521  1.00  0.00    -0.532 OA
ENDBRANCH  28  29
ENDBRANCH  20  23
ENDBRANCH  14  17
ENDBRANCH   2  11
BRANCH   1  32
HETATM   32  C2  UNL     1      43.634  13.347  55.468  1.00  0.00     0.130 C 
HETATM   33  C1  UNL     1      44.216  14.756  55.828  1.00  0.00     0.039 C 
BRANCH  32  34
HETATM   34  N1  UNL     1      43.612  13.390  54.021  1.00  0.00    -0.379 N 
ATOM     35  H1  UNL     1      43.887  14.301  53.654  1.00  0.00     0.160 HD
BRANCH  34  36
HETATM   36  C3  UNL     1      43.302  12.479  53.009  1.00  0.00     0.044 A 
HETATM   37  C4  UNL     1      42.923  11.169  53.168  1.00  0.00     0.032 A 
HETATM   38  C5  UNL     1      42.653  10.339  52.078  1.00  0.00     0.019 A 
HETATM   39  C6  UNL     1      42.774  10.862  50.820  1.00  0.00     0.088 A 
HETATM   40  N2  UNL     1      43.147  12.148  50.667  1.00  0.00    -0.373 N 
HETATM   41  C7  UNL     1      43.410  12.962  51.674  1.00  0.00     0.116 A 
ATOM     42  H2  UNL     1      43.232  12.515  49.719  1.00  0.00     0.164 HD
ENDBRANCH  34  36
ENDBRANCH  32  34
ENDBRANCH   1  32
TORSDOF 7
ENDMDL
MODEL 5
REMARK VINA RESULT: -8.895577679      3.780     11.544
REMARK  7 active torsions:
REMARK  status: ('A' for Active; 'I' for Inactive)
REMARK    1  A    between atoms: C2_2  and  N1_3 
REMARK    2  A    between atoms: C2_2  and  C8_12 
REMARK    3  A    between atoms: N1_3  and  C3_5 
REMARK    4  A    between atoms: C9_13  and  C10_14 
REMARK    5  A    between atoms: C13_17  and  N3_18 
REMARK       I    between atoms: N3_18  and  C14_20 
REMARK       I    between atoms: C14_20  and  N4_22 
REMARK    6  A    between atoms: N4_22  and  C15_24 
REMARK    7  A    between atoms: C20_29  and  N5_30 
ROOT
HETATM    1  C8  UNL     1      42.336  13.240  57.683  1.00  0.00     0.067 A 
HETATM    2  C9  UNL     1      41.231  13.477  56.936  1.00  0.00     0.069 A 
HETATM    3  N6  UNL     1      40.161  13.234  57.761  1.00  0.00    -0.340 N 
ATOM      4  H6  UNL     1      39.177  13.318  57.506  1.00  0.00     0.167 HD
HETATM    5  C23 UNL     1      40.632  12.868  58.957  1.00  0.00     0.112 A 
HETATM    6  C24 UNL     1      39.963  12.538  60.128  1.00  0.00     0.049 A 
HETATM    7  C25 UNL     1      40.642  12.202  61.290  1.00  0.00     0.005 A 
HETATM    8  C26 UNL     1      42.008  12.207  61.232  1.00  0.00     0.018 A 
HETATM    9  C27 UNL     1      42.651  12.534  60.070  1.00  0.00     0.099 A 
HETATM   10  N7  UNL     1      41.974  12.855  58.961  1.00  0.00    -0.308 N 
ENDROOT
BRANCH   2  11
HETATM   11  C10 UNL     1      40.998  13.839  55.527  1.00  0.00    -0.007 A 
HETATM   12  C11 UNL     1      40.649  15.054  55.093  1.00  0.00     0.016 A 
HETATM   13  C12 UNL     1      40.401  15.261  53.727  1.00  0.00     0.030 A 
HETATM   14  C13 UNL     1      40.497  14.273  52.788  1.00  0.00     0.036 A 
HETATM   15  C21 UNL     1      40.865  13.018  53.255  1.00  0.00     0.030 A 
HETATM   16  C22 UNL     1      41.108  12.803  54.570  1.00  0.00     0.016 A 
BRANCH  14  17
HETATM   17  N3  UNL     1      40.202  14.388  51.414  1.00  0.00    -0.309 N 
HETATM   18  C14 UNL     1      41.229  14.704  50.475  1.00  0.00     0.325 C 
HETATM   19  O1  UNL     1      42.377  14.885  50.962  1.00  0.00    -0.247 OA
HETATM   20  N4  UNL     1      41.028  14.815  49.101  1.00  0.00    -0.306 N 
ATOM     21  H4  UNL     1      40.083  14.657  48.751  1.00  0.00     0.171 HD
ATOM     22  H3  UNL     1      39.246  14.243  51.089  1.00  0.00     0.170 HD
BRANCH  20  23
HETATM   23  C15 UNL     1      42.027  15.129  48.156  1.00  0.00     0.069 A 
HETATM   24  C16 UNL     1      43.217  14.479  48.108  1.00  0.00     0.032 A 
HETATM   25  C17 UNL     1      44.244  14.801  47.206  1.00  0.00     0.002 A 
HETATM   26  C18 UNL     1      44.052  15.824  46.318  1.00  0.00     0.003 A 
HETATM   27  C19 UNL     1      42.859  16.492  46.350  1.00  0.00     0.038 A 
HETATM   28  C20 UNL     1      41.836  16.174  47.246  1.00  0.00     0.129 A 
BRANCH  28  29
HETATM   29  N5  UNL     1      40.670  16.936  47.171  1.00  0.00    -0.113 N 
HETATM   30  O2  UNL     1      40.303  17.293  45.999  1.00  0.00    -0.532 OA
HETATM   31  O3  UNL     1      39.900  17.340  48.216  1.00  0.00    -0.532 OA
ENDBRANCH  28  29
ENDBRANCH  20  23
ENDBRANCH  14  17
ENDBRANCH   2  11
BRANCH   1  32
HETATM   32  C2  UNL     1      43.736  13.522  57.266  1.00  0.00     0.130 C 
HETATM   33  C1  UNL     1      43.718  15.013  56.786  1.00  0.00     0.039 C 
BRANCH  32  34
HETATM   34  N1  UNL     1      44.163  12.826  56.070  1.00  0.00    -0.379 N 
ATOM     35  H1  UNL     1      43.781  11.882  56.012  1.00  0.00     0.160 HD
BRANCH  34  36
HETATM   36  C3  UNL     1      44.975  13.142  54.979  1.00  0.00     0.044 A 
HETATM   37  C4  UNL     1      44.560  13.477  53.713  1.00  0.00     0.032 A 
HETATM   38  C5  UNL     1      45.465  13.758  52.688  1.00  0.00     0.019 A 
HETATM   39  C6  UNL     1      46.802  13.693  52.968  1.00  0.00     0.088 A 
HETATM   40  N2  UNL     1      47.206  13.363  54.211  1.00  0.00    -0.373 N 
HETATM   41  C7  UNL     1      46.380  13.092  55.204  1.00  0.00     0.116 A 
ATOM     42  H2  UNL     1      48.209  13.321  54.394  1.00  0.00     0.164 HD
ENDBRANCH  34  36
ENDBRANCH  32  34
ENDBRANCH   1  32
TORSDOF 7
ENDMDL
