MODEL 1
REMARK VINA RESULT: -5.308273538      0.000      0.000
REMARK  1 active torsions:
REMARK  status: ('A' for Active; 'I' for Inactive)
REMARK    1  A    between atoms: N2_4  and  C1_6 
ROOT
HETATM    1  C1  UNL     1      46.699 -22.977  63.133  1.00  0.00     0.192 C 
HETATM    2  C2  UNL     1      45.493 -22.123  63.455  1.00  0.00     0.048 C 
HETATM    3  C3  UNL     1      44.270 -22.916  63.037  1.00  0.00     0.005 C 
HETATM    4  C4  UNL     1      44.345 -23.012  61.513  1.00  0.00     0.019 C 
HETATM    5  C5  UNL     1      45.558 -23.864  61.204  1.00  0.00     0.115 C 
HETATM    6  N3  UNL     1      46.771 -23.356  61.750  1.00  0.00    -0.401 N 
ATOM      7  H3  UNL     1      47.626 -23.268  61.200  1.00  0.00     0.155 HD
ENDROOT
BRANCH   1   8
HETATM    8  N2  UNL     1      47.920 -22.338  63.487  1.00  0.00    -0.320 N 
HETATM    9  N1  UNL     1      47.945 -21.147  63.784  1.00  0.00    -0.348 N 
ATOM     10  H12 UNL     1      47.071 -20.623  63.772  1.00  0.00     0.176 HD
ATOM     11  H11 UNL     1      48.821 -20.689  64.037  1.00  0.00     0.176 HD
ATOM     12  H2  UNL     1      48.786 -22.877  63.494  1.00  0.00     0.182 HD
ENDBRANCH   1   8
TORSDOF 1
ENDMDL
MODEL 2
REMARK VINA RESULT: -5.114996350      1.893      2.904
REMARK  1 active torsions:
REMARK  status: ('A' for Active; 'I' for Inactive)
REMARK    1  A    between atoms: N2_4  and  C1_6 
ROOT
HETATM    1  C1  UNL     1      44.289 -23.648  61.755  1.00  0.00     0.192 C 
HETATM    2  C2  UNL     1      44.423 -22.643  62.878  1.00  0.00     0.048 C 
HETATM    3  C3  UNL     1      43.020 -22.181  63.222  1.00  0.00     0.005 C 
HETATM    4  C4  UNL     1      42.531 -21.407  61.997  1.00  0.00     0.019 C 
HETATM    5  C5  UNL     1      42.407 -22.422  60.880  1.00  0.00     0.115 C 
HETATM    6  N3  UNL     1      43.616 -23.120  60.601  1.00  0.00    -0.401 N 
ATOM      7  H3  UNL     1      43.977 -23.238  59.654  1.00  0.00     0.155 HD
ENDROOT
BRANCH   1   8
HETATM    8  N2  UNL     1      45.549 -24.163  61.342  1.00  0.00    -0.320 N 
HETATM    9  N1  UNL     1      46.595 -23.725  61.814  1.00  0.00    -0.348 N 
ATOM     10  H12 UNL     1      46.542 -22.982  62.510  1.00  0.00     0.176 HD
ATOM     11  H11 UNL     1      47.499 -24.094  61.518  1.00  0.00     0.176 HD
ATOM     12  H2  UNL     1      45.584 -24.907  60.645  1.00  0.00     0.182 HD
ENDBRANCH   1   8
TORSDOF 1
ENDMDL
MODEL 3
REMARK VINA RESULT: -4.939011376      2.272      3.317
REMARK  1 active torsions:
REMARK  status: ('A' for Active; 'I' for Inactive)
REMARK    1  A    between atoms: N2_4  and  C1_6 
ROOT
HETATM    1  C1  UNL     1      44.732 -23.168  61.817  1.00  0.00     0.192 C 
HETATM    2  C2  UNL     1      43.384 -23.075  61.135  1.00  0.00     0.048 C 
HETATM    3  C3  UNL     1      42.725 -21.807  61.640  1.00  0.00     0.005 C 
HETATM    4  C4  UNL     1      42.450 -22.050  63.125  1.00  0.00     0.019 C 
HETATM    5  C5  UNL     1      43.805 -22.147  63.793  1.00  0.00     0.115 C 
HETATM    6  N3  UNL     1      44.643 -23.161  63.250  1.00  0.00    -0.401 N 
ATOM      7  H3  UNL     1      45.142 -23.832  63.834  1.00  0.00     0.155 HD
ENDROOT
BRANCH   1   8
HETATM    8  N2  UNL     1      45.457 -24.325  61.418  1.00  0.00    -0.320 N 
HETATM    9  N1  UNL     1      46.111 -24.333  60.379  1.00  0.00    -0.348 N 
ATOM     10  H12 UNL     1      46.125 -23.490  59.806  1.00  0.00     0.176 HD
ATOM     11  H11 UNL     1      46.631 -25.163  60.093  1.00  0.00     0.176 HD
ATOM     12  H2  UNL     1      45.432 -25.160  62.004  1.00  0.00     0.182 HD
ENDBRANCH   1   8
TORSDOF 1
ENDMDL
MODEL 4
REMARK VINA RESULT: -4.900456708      1.672      3.099
REMARK  1 active torsions:
REMARK  status: ('A' for Active; 'I' for Inactive)
REMARK    1  A    between atoms: N2_4  and  C1_6 
ROOT
HETATM    1  C1  UNL     1      45.078 -23.369  61.586  1.00  0.00     0.192 C 
HETATM    2  C2  UNL     1      43.600 -23.542  61.855  1.00  0.00     0.048 C 
HETATM    3  C3  UNL     1      43.125 -22.272  62.532  1.00  0.00     0.005 C 
HETATM    4  C4  UNL     1      43.819 -22.249  63.895  1.00  0.00     0.019 C 
HETATM    5  C5  UNL     1      45.298 -22.081  63.611  1.00  0.00     0.115 C 
HETATM    6  N3  UNL     1      45.841 -23.094  62.772  1.00  0.00    -0.401 N 
ATOM      7  H3  UNL     1      46.706 -23.586  62.995  1.00  0.00     0.155 HD
ENDROOT
BRANCH   1   8
HETATM    8  N2  UNL     1      45.645 -24.504  60.942  1.00  0.00    -0.320 N 
HETATM    9  N1  UNL     1      46.358 -24.376  59.951  1.00  0.00    -0.348 N 
ATOM     10  H12 UNL     1      46.536 -23.437  59.597  1.00  0.00     0.176 HD
ATOM     11  H11 UNL     1      46.764 -25.190  59.489  1.00  0.00     0.176 HD
ATOM     12  H2  UNL     1      45.456 -25.437  61.310  1.00  0.00     0.182 HD
ENDBRANCH   1   8
TORSDOF 1
ENDMDL
MODEL 5
REMARK VINA RESULT: -4.747555982      1.998      2.805
REMARK  1 active torsions:
REMARK  status: ('A' for Active; 'I' for Inactive)
REMARK    1  A    between atoms: N2_4  and  C1_6 
ROOT
HETATM    1  C1  UNL     1      45.134 -23.563  62.011  1.00  0.00     0.192 C 
HETATM    2  C2  UNL     1      45.309 -22.490  63.063  1.00  0.00     0.048 C 
HETATM    3  C3  UNL     1      44.010 -22.423  63.841  1.00  0.00     0.005 C 
HETATM    4  C4  UNL     1      42.966 -21.901  62.853  1.00  0.00     0.019 C 
HETATM    5  C5  UNL     1      42.804 -22.980  61.803  1.00  0.00     0.115 C 
HETATM    6  N3  UNL     1      44.016 -23.324  61.141  1.00  0.00    -0.401 N 
ATOM      7  H3  UNL     1      44.086 -23.396  60.125  1.00  0.00     0.155 HD
ENDROOT
BRANCH   1   8
HETATM    8  N2  UNL     1      46.298 -23.726  61.210  1.00  0.00    -0.320 N 
HETATM    9  N1  UNL     1      46.244 -24.309  60.130  1.00  0.00    -0.348 N 
ATOM     10  H12 UNL     1      45.345 -24.674  59.818  1.00  0.00     0.176 HD
ATOM     11  H11 UNL     1      47.079 -24.426  59.556  1.00  0.00     0.176 HD
ATOM     12  H2  UNL     1      47.190 -23.355  61.538  1.00  0.00     0.182 HD
ENDBRANCH   1   8
TORSDOF 1
ENDMDL
