MODEL 1
REMARK VINA RESULT: -3.849680697      0.000      0.000
REMARK  1 active torsions:
REMARK  status: ('A' for Active; 'I' for Inactive)
REMARK    1  A    between atoms: C2_2  and  N1_3 
ROOT
HETATM    1  N1  UNL     1      42.746 -22.388  61.748  1.00  0.00     0.006 N 
HETATM    2  C3  UNL     1      41.662 -23.346  61.743  1.00  0.00     0.297 C 
HETATM    3  C4  UNL     1      43.206 -22.188  63.085  1.00  0.00     0.261 C 
HETATM    4  C5  UNL     1      44.722 -22.328  63.025  1.00  0.00     0.047 C 
HETATM    5  C6  UNL     1      44.864 -23.251  61.816  1.00  0.00     0.144 C 
HETATM    6  N2  UNL     1      43.820 -22.774  60.961  1.00  0.00    -0.047 NA
ENDROOT
BRANCH   1   7
HETATM    7  C2  UNL     1      42.187 -21.139  61.208  1.00  0.00     0.255 C 
HETATM    8  C1  UNL     1      41.686 -20.288  62.329  1.00  0.00     0.036 C 
ENDBRANCH   1   7
TORSDOF 1
ENDMDL
MODEL 2
REMARK VINA RESULT: -3.579146698      1.453      3.450
REMARK  1 active torsions:
REMARK  status: ('A' for Active; 'I' for Inactive)
REMARK    1  A    between atoms: C2_2  and  N1_3 
ROOT
HETATM    1  N1  UNL     1      42.404 -21.743  62.925  1.00  0.00     0.006 N 
HETATM    2  C3  UNL     1      42.603 -23.025  62.285  1.00  0.00     0.297 C 
HETATM    3  C4  UNL     1      42.026 -20.772  61.949  1.00  0.00     0.261 C 
HETATM    4  C5  UNL     1      40.800 -20.069  62.520  1.00  0.00     0.047 C 
HETATM    5  C6  UNL     1      40.242 -21.177  63.414  1.00  0.00     0.144 C 
HETATM    6  N2  UNL     1      41.440 -21.774  63.920  1.00  0.00    -0.047 NA
ENDROOT
BRANCH   1   7
HETATM    7  C2  UNL     1      43.697 -21.385  63.528  1.00  0.00     0.255 C 
HETATM    8  C1  UNL     1      44.583 -22.587  63.567  1.00  0.00     0.036 C 
ENDBRANCH   1   7
TORSDOF 1
ENDMDL
MODEL 3
REMARK VINA RESULT: -3.533191312      1.453      2.087
REMARK  1 active torsions:
REMARK  status: ('A' for Active; 'I' for Inactive)
REMARK    1  A    between atoms: C2_2  and  N1_3 
ROOT
HETATM    1  N1  UNL     1      42.229 -21.847  62.235  1.00  0.00     0.006 N 
HETATM    2  C3  UNL     1      42.190 -21.274  60.907  1.00  0.00     0.297 C 
HETATM    3  C4  UNL     1      43.115 -22.967  62.250  1.00  0.00     0.261 C 
HETATM    4  C5  UNL     1      44.027 -22.754  63.452  1.00  0.00     0.047 C 
HETATM    5  C6  UNL     1      43.991 -21.230  63.557  1.00  0.00     0.144 C 
HETATM    6  N2  UNL     1      42.632 -20.946  63.207  1.00  0.00    -0.047 NA
ENDROOT
BRANCH   1   7
HETATM    7  C2  UNL     1      40.854 -22.280  62.531  1.00  0.00     0.255 C 
HETATM    8  C1  UNL     1      40.131 -21.193  63.257  1.00  0.00     0.036 C 
ENDBRANCH   1   7
TORSDOF 1
ENDMDL
MODEL 4
REMARK VINA RESULT: -3.487439287      1.044      3.040
REMARK  1 active torsions:
REMARK  status: ('A' for Active; 'I' for Inactive)
REMARK    1  A    between atoms: C2_2  and  N1_3 
ROOT
HETATM    1  N1  UNL     1      43.054 -22.386  61.852  1.00  0.00     0.006 N 
HETATM    2  C3  UNL     1      43.065 -21.521  63.011  1.00  0.00     0.297 C 
HETATM    3  C4  UNL     1      42.015 -23.357  61.987  1.00  0.00     0.261 C 
HETATM    4  C5  UNL     1      41.249 -23.328  60.670  1.00  0.00     0.047 C 
HETATM    5  C6  UNL     1      41.521 -21.890  60.228  1.00  0.00     0.144 C 
HETATM    6  N2  UNL     1      42.872 -21.702  60.661  1.00  0.00    -0.047 NA
ENDROOT
BRANCH   1   7
HETATM    7  C2  UNL     1      44.368 -23.046  61.824  1.00  0.00     0.255 C 
HETATM    8  C1  UNL     1      45.202 -22.551  62.962  1.00  0.00     0.036 C 
ENDBRANCH   1   7
TORSDOF 1
ENDMDL
MODEL 5
REMARK VINA RESULT: -3.462909871      1.146      1.393
REMARK  1 active torsions:
REMARK  status: ('A' for Active; 'I' for Inactive)
REMARK    1  A    between atoms: C2_2  and  N1_3 
ROOT
HETATM    1  N1  UNL     1      42.427 -21.607  62.628  1.00  0.00     0.006 N 
HETATM    2  C3  UNL     1      41.267 -21.893  63.443  1.00  0.00     0.297 C 
HETATM    3  C4  UNL     1      43.550 -21.337  63.469  1.00  0.00     0.261 C 
HETATM    4  C5  UNL     1      44.685 -22.199  62.930  1.00  0.00     0.047 C 
HETATM    5  C6  UNL     1      43.886 -23.337  62.296  1.00  0.00     0.144 C 
HETATM    6  N2  UNL     1      42.755 -22.639  61.764  1.00  0.00    -0.047 NA
ENDROOT
BRANCH   1   7
HETATM    7  C2  UNL     1      42.084 -20.416  61.836  1.00  0.00     0.255 C 
HETATM    8  C1  UNL     1      41.824 -20.813  60.419  1.00  0.00     0.036 C 
ENDBRANCH   1   7
TORSDOF 1
ENDMDL
