MODEL 1
REMARK VINA RESULT: -4.207014494      0.000      0.000
REMARK  2 active torsions:
REMARK  status: ('A' for Active; 'I' for Inactive)
REMARK    1  A    between atoms: C2_2  and  C3_3 
REMARK    2  A    between atoms: C4_4  and  S1_5 
ROOT
HETATM    1  C3  UNL     1      45.613 -22.361  63.132  1.00  0.00    -0.095 C 
HETATM    2  C4  UNL     1      44.481 -21.906  63.104  1.00  0.00    -0.027 C 
ENDROOT
BRANCH   2   3
HETATM    3  S1  UNL     1      42.887 -21.235  63.057  1.00  0.00    -0.038 SA
HETATM    4  C5  UNL     1      41.562 -22.390  62.708  1.00  0.00     0.216 A 
HETATM    5  N1  UNL     1      41.740 -21.757  64.012  1.00  0.00    -0.165 NA
ENDBRANCH   2   3
BRANCH   1   6
HETATM    6  C2  UNL     1      46.983 -22.885  63.156  1.00  0.00     0.090 C 
HETATM    7  C1  UNL     1      47.855 -21.876  63.864  1.00  0.00     0.018 C 
ENDBRANCH   1   6
TORSDOF 2
ENDMDL
MODEL 2
REMARK VINA RESULT: -3.988417755      1.705      1.705
REMARK  2 active torsions:
REMARK  status: ('A' for Active; 'I' for Inactive)
REMARK    1  A    between atoms: C2_2  and  C3_3 
REMARK    2  A    between atoms: C4_4  and  S1_5 
ROOT
HETATM    1  C3  UNL     1      46.183 -22.701  62.958  1.00  0.00    -0.095 C 
HETATM    2  C4  UNL     1      45.027 -22.753  62.569  1.00  0.00    -0.027 C 
ENDROOT
BRANCH   2   3
HETATM    3  S1  UNL     1      43.398 -22.843  61.994  1.00  0.00    -0.038 SA
HETATM    4  C5  UNL     1      42.449 -21.327  62.093  1.00  0.00     0.216 A 
HETATM    5  N1  UNL     1      42.879 -21.913  60.827  1.00  0.00    -0.165 NA
ENDBRANCH   2   3
BRANCH   1   6
HETATM    6  C2  UNL     1      47.579 -22.655  63.408  1.00  0.00     0.090 C 
HETATM    7  C1  UNL     1      47.820 -21.304  64.039  1.00  0.00     0.018 C 
ENDBRANCH   1   6
TORSDOF 2
ENDMDL
MODEL 3
REMARK VINA RESULT: -3.490848948      2.008      2.084
REMARK  2 active torsions:
REMARK  status: ('A' for Active; 'I' for Inactive)
REMARK    1  A    between atoms: C2_2  and  C3_3 
REMARK    2  A    between atoms: C4_4  and  S1_5 
ROOT
HETATM    1  C3  UNL     1      44.891 -23.179  61.924  1.00  0.00    -0.095 C 
HETATM    2  C4  UNL     1      43.683 -23.017  61.985  1.00  0.00    -0.027 C 
ENDROOT
BRANCH   2   3
HETATM    3  S1  UNL     1      41.975 -22.760  62.078  1.00  0.00    -0.038 SA
HETATM    4  C5  UNL     1      41.075 -22.915  60.537  1.00  0.00     0.216 A 
HETATM    5  N1  UNL     1      40.944 -23.872  61.632  1.00  0.00    -0.165 NA
ENDBRANCH   2   3
BRANCH   1   6
HETATM    6  C2  UNL     1      46.347 -23.349  61.855  1.00  0.00     0.090 C 
HETATM    7  C1  UNL     1      46.943 -22.776  63.118  1.00  0.00     0.018 C 
ENDBRANCH   1   6
TORSDOF 2
ENDMDL
MODEL 4
REMARK VINA RESULT: -3.460300893      1.424      1.448
REMARK  2 active torsions:
REMARK  status: ('A' for Active; 'I' for Inactive)
REMARK    1  A    between atoms: C2_2  and  C3_3 
REMARK    2  A    between atoms: C4_4  and  S1_5 
ROOT
HETATM    1  C3  UNL     1      45.220 -23.040  62.214  1.00  0.00    -0.095 C 
HETATM    2  C4  UNL     1      44.002 -22.969  62.181  1.00  0.00    -0.027 C 
ENDROOT
BRANCH   2   3
HETATM    3  S1  UNL     1      42.274 -22.896  62.126  1.00  0.00    -0.038 SA
HETATM    4  C5  UNL     1      41.495 -21.853  63.357  1.00  0.00     0.216 A 
HETATM    5  N1  UNL     1      41.508 -21.527  61.933  1.00  0.00    -0.165 NA
ENDBRANCH   2   3
BRANCH   1   6
HETATM    6  C2  UNL     1      46.682 -23.150  62.248  1.00  0.00     0.090 C 
HETATM    7  C1  UNL     1      47.181 -22.360  63.434  1.00  0.00     0.018 C 
ENDBRANCH   1   6
TORSDOF 2
ENDMDL
MODEL 5
REMARK VINA RESULT: -3.421334895      1.418      1.623
REMARK  2 active torsions:
REMARK  status: ('A' for Active; 'I' for Inactive)
REMARK    1  A    between atoms: C2_2  and  C3_3 
REMARK    2  A    between atoms: C4_4  and  S1_5 
ROOT
HETATM    1  C3  UNL     1      44.746 -22.269  63.251  1.00  0.00    -0.095 C 
HETATM    2  C4  UNL     1      43.532 -22.147  63.207  1.00  0.00    -0.027 C 
ENDROOT
BRANCH   2   3
HETATM    3  S1  UNL     1      41.811 -21.992  63.121  1.00  0.00    -0.038 SA
HETATM    4  C5  UNL     1      41.137 -21.645  61.498  1.00  0.00     0.216 A 
HETATM    5  N1  UNL     1      40.942 -22.920  62.182  1.00  0.00    -0.165 NA
ENDBRANCH   2   3
BRANCH   1   6
HETATM    6  C2  UNL     1      46.203 -22.435  63.288  1.00  0.00     0.090 C 
HETATM    7  C1  UNL     1      46.613 -23.225  62.069  1.00  0.00     0.018 C 
ENDBRANCH   1   6
TORSDOF 2
ENDMDL
