MODEL 1
REMARK VINA RESULT: -3.678192529      0.000      0.000
REMARK  0 active torsions:
REMARK  status: ('A' for Active; 'I' for Inactive)
ROOT
HETATM    1  C1  UNL     1      43.554 -22.442  64.444  1.00  0.00     0.275 C 
HETATM    2  N1  UNL     1      43.841 -22.269  63.049  1.00  0.00    -0.040 N 
HETATM    3  C2  UNL     1      45.215 -22.182  62.668  1.00  0.00     0.267 C 
HETATM    4  C3  UNL     1      45.492 -23.353  61.742  1.00  0.00     0.262 C 
HETATM    5  N2  UNL     1      44.322 -24.205  61.850  1.00  0.00    -0.044 N 
ATOM      6  H21 UNL     1      44.419 -24.977  62.509  1.00  0.00     0.279 HD
ATOM      7  H22 UNL     1      44.144 -24.787  61.032  1.00  0.00     0.279 HD
HETATM    8  C4  UNL     1      43.277 -23.280  62.163  1.00  0.00     0.388 C 
HETATM    9  C5  UNL     1      43.020 -22.185  61.172  1.00  0.00     0.091 C 
HETATM   10  C6  UNL     1      42.938 -21.319  62.430  1.00  0.00     0.243 C 
ENDROOT
TORSDOF 0
ENDMDL
MODEL 2
REMARK VINA RESULT: -3.634676997      1.804      2.911
REMARK  0 active torsions:
REMARK  status: ('A' for Active; 'I' for Inactive)
ROOT
HETATM    1  C1  UNL     1      41.927 -20.624  62.082  1.00  0.00     0.275 C 
HETATM    2  N1  UNL     1      42.177 -22.037  62.043  1.00  0.00    -0.040 N 
HETATM    3  C2  UNL     1      41.059 -22.895  61.810  1.00  0.00     0.267 C 
HETATM    4  C3  UNL     1      41.335 -23.638  60.514  1.00  0.00     0.262 C 
HETATM    5  N2  UNL     1      42.484 -22.969  59.933  1.00  0.00    -0.044 N 
ATOM      6  H21 UNL     1      42.256 -22.265  59.232  1.00  0.00     0.279 HD
ATOM      7  H22 UNL     1      43.047 -23.553  59.315  1.00  0.00     0.279 HD
HETATM    8  C4  UNL     1      43.180 -22.469  61.078  1.00  0.00     0.388 C 
HETATM    9  C5  UNL     1      43.635 -23.478  62.091  1.00  0.00     0.091 C 
HETATM   10  C6  UNL     1      43.098 -22.446  63.084  1.00  0.00     0.243 C 
ENDROOT
TORSDOF 0
ENDMDL
MODEL 3
REMARK VINA RESULT: -3.607973229      1.714      3.333
REMARK  0 active torsions:
REMARK  status: ('A' for Active; 'I' for Inactive)
ROOT
HETATM    1  C1  UNL     1      41.749 -23.470  61.525  1.00  0.00     0.275 C 
HETATM    2  N1  UNL     1      42.457 -22.302  61.963  1.00  0.00    -0.040 N 
HETATM    3  C2  UNL     1      42.232 -21.089  61.243  1.00  0.00     0.267 C 
HETATM    4  C3  UNL     1      41.637 -20.096  62.225  1.00  0.00     0.262 C 
HETATM    5  N2  UNL     1      41.306 -20.879  63.401  1.00  0.00    -0.044 N 
ATOM      6  H21 UNL     1      40.334 -21.184  63.448  1.00  0.00     0.279 HD
ATOM      7  H22 UNL     1      41.292 -20.351  64.273  1.00  0.00     0.279 HD
HETATM    8  C4  UNL     1      42.264 -21.941  63.363  1.00  0.00     0.388 C 
HETATM    9  C5  UNL     1      43.712 -21.550  63.401  1.00  0.00     0.091 C 
HETATM   10  C6  UNL     1      43.833 -22.606  62.302  1.00  0.00     0.243 C 
ENDROOT
TORSDOF 0
ENDMDL
MODEL 4
REMARK VINA RESULT: -3.562889454      1.233      1.525
REMARK  0 active torsions:
REMARK  status: ('A' for Active; 'I' for Inactive)
ROOT
HETATM    1  C1  UNL     1      41.369 -21.870  63.755  1.00  0.00     0.275 C 
HETATM    2  N1  UNL     1      42.414 -21.784  62.776  1.00  0.00    -0.040 N 
HETATM    3  C2  UNL     1      43.664 -21.232  63.196  1.00  0.00     0.267 C 
HETATM    4  C3  UNL     1      44.708 -22.320  63.021  1.00  0.00     0.262 C 
HETATM    5  N2  UNL     1      43.953 -23.530  62.756  1.00  0.00    -0.044 N 
ATOM      6  H21 UNL     1      43.787 -24.115  63.575  1.00  0.00     0.279 HD
ATOM      7  H22 UNL     1      44.457 -24.238  62.222  1.00  0.00     0.279 HD
HETATM    8  C4  UNL     1      42.767 -23.039  62.124  1.00  0.00     0.388 C 
HETATM    9  C5  UNL     1      42.947 -22.262  60.854  1.00  0.00     0.091 C 
HETATM   10  C6  UNL     1      41.910 -21.337  61.493  1.00  0.00     0.243 C 
ENDROOT
TORSDOF 0
ENDMDL
MODEL 5
REMARK VINA RESULT: -3.523441103      1.214      2.293
REMARK  0 active torsions:
REMARK  status: ('A' for Active; 'I' for Inactive)
ROOT
HETATM    1  C1  UNL     1      42.259 -21.048  61.495  1.00  0.00     0.275 C 
HETATM    2  N1  UNL     1      42.806 -22.048  62.366  1.00  0.00    -0.040 N 
HETATM    3  C2  UNL     1      42.982 -23.360  61.831  1.00  0.00     0.267 C 
HETATM    4  C3  UNL     1      44.469 -23.665  61.888  1.00  0.00     0.262 C 
HETATM    5  N2  UNL     1      45.102 -22.401  62.213  1.00  0.00    -0.044 N 
ATOM      6  H21 UNL     1      45.455 -21.884  61.408  1.00  0.00     0.279 HD
ATOM      7  H22 UNL     1      46.001 -22.484  62.685  1.00  0.00     0.279 HD
HETATM    8  C4  UNL     1      44.094 -21.718  62.965  1.00  0.00     0.388 C 
HETATM    9  C5  UNL     1      43.616 -22.386  64.220  1.00  0.00     0.091 C 
HETATM   10  C6  UNL     1      42.242 -21.964  63.699  1.00  0.00     0.243 C 
ENDROOT
TORSDOF 0
ENDMDL
