MODEL 1
REMARK VINA RESULT: -5.180996003      0.000      0.000
REMARK  1 active torsions:
REMARK  status: ('A' for Active; 'I' for Inactive)
REMARK    1  A    between atoms: C2_2  and  N1_3 
ROOT
HETATM    1  N1  UNL     1      46.287 -22.986  62.872  1.00  0.00    -0.294 N 
HETATM    2  N2  UNL     1      46.054 -23.694  61.877  1.00  0.00    -0.246 N 
ATOM      3  H2  UNL     1      46.894 -23.917  61.344  1.00  0.00     0.208 HD
HETATM    4  N3  UNL     1      44.939 -24.233  61.345  1.00  0.00    -0.322 N 
ATOM      5  H3  UNL     1      44.981 -25.144  60.888  1.00  0.00     0.181 HD
HETATM    6  C3  UNL     1      43.713 -23.537  61.420  1.00  0.00     0.141 C 
HETATM    7  C4  UNL     1      43.750 -22.228  62.124  1.00  0.00     0.026 C 
HETATM    8  C5  UNL     1      43.979 -22.568  63.594  1.00  0.00     0.048 C 
HETATM    9  C6  UNL     1      45.423 -22.455  63.842  1.00  0.00     0.084 C 
ENDROOT
BRANCH   1  10
HETATM   10  C2  UNL     1      47.655 -22.598  63.120  1.00  0.00     0.145 C 
HETATM   11  C1  UNL     1      47.807 -21.496  64.120  1.00  0.00     0.028 C 
ENDBRANCH   1  10
TORSDOF 1
ENDMDL
MODEL 2
REMARK VINA RESULT: -5.090758715      1.197      1.356
REMARK  1 active torsions:
REMARK  status: ('A' for Active; 'I' for Inactive)
REMARK    1  A    between atoms: C2_2  and  N1_3 
ROOT
HETATM    1  N1  UNL     1      45.194 -23.042  62.288  1.00  0.00    -0.294 N 
HETATM    2  N2  UNL     1      44.613 -23.358  61.235  1.00  0.00    -0.246 N 
ATOM      3  H2  UNL     1      45.257 -23.633  60.495  1.00  0.00     0.208 HD
HETATM    4  N3  UNL     1      43.321 -23.419  60.855  1.00  0.00    -0.322 N 
ATOM      5  H3  UNL     1      43.014 -24.145  60.207  1.00  0.00     0.181 HD
HETATM    6  C3  UNL     1      42.394 -22.478  61.352  1.00  0.00     0.141 C 
HETATM    7  C4  UNL     1      42.933 -21.473  62.306  1.00  0.00     0.026 C 
HETATM    8  C5  UNL     1      43.257 -22.257  63.575  1.00  0.00     0.048 C 
HETATM    9  C6  UNL     1      44.686 -22.597  63.517  1.00  0.00     0.084 C 
ENDROOT
BRANCH   1  10
HETATM   10  C2  UNL     1      46.636 -23.107  62.309  1.00  0.00     0.145 C 
HETATM   11  C1  UNL     1      47.266 -22.359  63.441  1.00  0.00     0.028 C 
ENDBRANCH   1  10
TORSDOF 1
ENDMDL
MODEL 3
REMARK VINA RESULT: -4.886117304      1.656      2.326
REMARK  1 active torsions:
REMARK  status: ('A' for Active; 'I' for Inactive)
REMARK    1  A    between atoms: C2_2  and  N1_3 
ROOT
HETATM    1  N1  UNL     1      45.389 -22.492  62.775  1.00  0.00    -0.294 N 
HETATM    2  N2  UNL     1      44.872 -21.645  63.522  1.00  0.00    -0.246 N 
ATOM      3  H2  UNL     1      45.475 -21.385  64.303  1.00  0.00     0.208 HD
HETATM    4  N3  UNL     1      43.692 -20.992  63.533  1.00  0.00    -0.322 N 
ATOM      5  H3  UNL     1      43.645 -20.029  63.866  1.00  0.00     0.181 HD
HETATM    6  C3  UNL     1      42.523 -21.642  63.083  1.00  0.00     0.141 C 
HETATM    7  C4  UNL     1      42.698 -23.036  62.597  1.00  0.00     0.026 C 
HETATM    8  C5  UNL     1      43.479 -22.912  61.292  1.00  0.00     0.048 C 
HETATM    9  C6  UNL     1      44.898 -23.117  61.619  1.00  0.00     0.084 C 
ENDROOT
BRANCH   1  10
HETATM   10  C2  UNL     1      46.713 -22.966  63.104  1.00  0.00     0.145 C 
HETATM   11  C1  UNL     1      47.603 -21.925  63.706  1.00  0.00     0.028 C 
ENDBRANCH   1  10
TORSDOF 1
ENDMDL
MODEL 4
REMARK VINA RESULT: -4.640101750      2.334      3.027
REMARK  1 active torsions:
REMARK  status: ('A' for Active; 'I' for Inactive)
REMARK    1  A    between atoms: C2_2  and  N1_3 
ROOT
HETATM    1  N1  UNL     1      44.391 -22.098  62.843  1.00  0.00    -0.294 N 
HETATM    2  N2  UNL     1      43.803 -21.172  63.429  1.00  0.00    -0.246 N 
ATOM      3  H2  UNL     1      44.306 -20.843  64.253  1.00  0.00     0.208 HD
HETATM    4  N3  UNL     1      42.651 -20.506  63.218  1.00  0.00    -0.322 N 
ATOM      5  H3  UNL     1      42.586 -19.513  63.445  1.00  0.00     0.181 HD
HETATM    6  C3  UNL     1      41.533 -21.182  62.683  1.00  0.00     0.141 C 
HETATM    7  C4  UNL     1      41.732 -22.620  62.365  1.00  0.00     0.026 C 
HETATM    8  C5  UNL     1      42.680 -22.640  61.169  1.00  0.00     0.048 C 
HETATM    9  C6  UNL     1      44.038 -22.830  61.700  1.00  0.00     0.084 C 
ENDROOT
BRANCH   1  10
HETATM   10  C2  UNL     1      45.647 -22.554  63.391  1.00  0.00     0.145 C 
HETATM   11  C1  UNL     1      46.593 -23.107  62.372  1.00  0.00     0.028 C 
ENDBRANCH   1  10
TORSDOF 1
ENDMDL
MODEL 5
REMARK VINA RESULT: -4.616111833      2.143      2.791
REMARK  1 active torsions:
REMARK  status: ('A' for Active; 'I' for Inactive)
REMARK    1  A    between atoms: C2_2  and  N1_3 
ROOT
HETATM    1  N1  UNL     1      43.844 -23.044  61.543  1.00  0.00    -0.294 N 
HETATM    2  N2  UNL     1      43.434 -23.161  60.376  1.00  0.00    -0.246 N 
ATOM      3  H2  UNL     1      44.176 -23.396  59.717  1.00  0.00     0.208 HD
HETATM    4  N3  UNL     1      42.227 -23.046  59.785  1.00  0.00    -0.322 N 
ATOM      5  H3  UNL     1      41.986 -23.646  58.997  1.00  0.00     0.181 HD
HETATM    6  C3  UNL     1      41.298 -22.094  60.258  1.00  0.00     0.141 C 
HETATM    7  C4  UNL     1      41.734 -21.281  61.424  1.00  0.00     0.026 C 
HETATM    8  C5  UNL     1      41.774 -22.254  62.599  1.00  0.00     0.048 C 
HETATM    9  C6  UNL     1      43.163 -22.719  62.726  1.00  0.00     0.084 C 
ENDROOT
BRANCH   1  10
HETATM   10  C2  UNL     1      45.251 -23.250  61.789  1.00  0.00     0.145 C 
HETATM   11  C1  UNL     1      45.745 -22.645  63.065  1.00  0.00     0.028 C 
ENDBRANCH   1  10
TORSDOF 1
ENDMDL
