MODEL 1
REMARK VINA RESULT: -7.569913904      0.000      0.000
REMARK  11 active torsions:
REMARK  status: ('A' for Active; 'I' for Inactive)
REMARK       I    between atoms: C2_2  and  N1_4 
REMARK    1  A    between atoms: N1_4  and  C3_6 
REMARK    2  A    between atoms: C3_6  and  C4_7 
REMARK    3  A    between atoms: C5_9  and  O3_10 
REMARK    4  A    between atoms: O3_10  and  C6_11 
REMARK    5  A    between atoms: C7_12  and  O4_13 
REMARK    6  A    between atoms: C8_15  and  C9_16 
REMARK    7  A    between atoms: C9_16  and  O5_17 
REMARK    8  A    between atoms: C10_20  and  N2_21 
REMARK       I    between atoms: N2_21  and  C11_23 
REMARK    9  A    between atoms: C11_23  and  C12_25 
REMARK   10  A    between atoms: C18_31  and  O8_32 
REMARK   11  A    between atoms: C20_36  and  N3_37 
ROOT
HETATM    1  C6  UNL     1      16.924  15.564  18.977  1.00  0.00     0.191 C 
HETATM    2  C7  UNL     1      18.179  15.943  19.698  1.00  0.00     0.181 C 
HETATM    3  C8  UNL     1      19.446  15.873  18.936  1.00  0.00     0.179 C 
HETATM    4  O6  UNL     1      19.392  15.328  17.680  1.00  0.00    -0.354 OA
HETATM    5  C10 UNL     1      18.600  14.202  17.709  1.00  0.00     0.255 C 
HETATM    6  C18 UNL     1      17.172  14.696  17.765  1.00  0.00     0.198 C 
ENDROOT
BRANCH   1   7
HETATM    7  O3  UNL     1      16.131  16.602  18.567  1.00  0.00    -0.328 OA
BRANCH   7   8
HETATM    8  C5  UNL     1      14.860  16.618  19.091  1.00  0.00     0.413 C 
HETATM    9  O2  UNL     1      13.895  17.078  18.246  1.00  0.00    -0.330 OA
HETATM   10  C4  UNL     1      13.713  16.258  17.120  1.00  0.00     0.177 C 
HETATM   11  C20 UNL     1      13.837  14.818  17.498  1.00  0.00     0.237 C 
HETATM   12  C19 UNL     1      13.526  14.746  19.004  1.00  0.00     0.209 C 
HETATM   13  O9  UNL     1      14.610  15.364  19.623  1.00  0.00    -0.337 OA
BRANCH  10  14
HETATM   14  C3  UNL     1      12.434  16.622  16.412  1.00  0.00     0.156 C 
BRANCH  14  15
HETATM   15  N1  UNL     1      12.695  17.185  15.129  1.00  0.00    -0.359 N 
HETATM   16  C2  UNL     1      13.317  16.535  14.035  1.00  0.00     0.213 C 
HETATM   17  C1  UNL     1      13.550  17.203  12.720  1.00  0.00     0.117 C 
HETATM   18  O1  UNL     1      13.700  15.354  14.137  1.00  0.00    -0.274 OA
ATOM     19  H1  UNL     1      12.405  18.152  14.985  1.00  0.00     0.162 HD
ENDBRANCH  14  15
ENDBRANCH  10  14
BRANCH  11  20
HETATM   20  N3  UNL     1      12.980  13.948  16.777  1.00  0.00    -0.070 N 
ATOM     21  H33 UNL     1      12.288  14.484  16.253  1.00  0.00     0.274 HD
ATOM     22  H32 UNL     1      13.483  13.511  16.004  1.00  0.00     0.274 HD
ATOM     23  H31 UNL     1      12.522  13.239  17.349  1.00  0.00     0.274 HD
ENDBRANCH  11  20
ENDBRANCH   7   8
ENDBRANCH   1   7
BRANCH   2  24
HETATM   24  O4  UNL     1      18.355  15.173  20.867  1.00  0.00    -0.390 OA
ATOM     25  H4  UNL     1      19.261  14.906  20.975  1.00  0.00     0.210 HD
ENDBRANCH   2  24
BRANCH   6  26
HETATM   26  O8  UNL     1      16.980  15.452  16.602  1.00  0.00    -0.388 OA
ATOM     27  H8  UNL     1      17.752  15.389  16.053  1.00  0.00     0.210 HD
ENDBRANCH   6  26
BRANCH   3  28
HETATM   28  C9  UNL     1      20.559  15.230  19.778  1.00  0.00     0.198 C 
BRANCH  28  29
HETATM   29  O5  UNL     1      21.621  14.824  18.975  1.00  0.00    -0.398 OA
ATOM     30  H5  UNL     1      21.850  15.498  18.345  1.00  0.00     0.209 HD
ENDBRANCH  28  29
ENDBRANCH   3  28
BRANCH   5  31
HETATM   31  N2  UNL     1      18.739  13.514  16.424  1.00  0.00    -0.332 N 
HETATM   32  C11 UNL     1      19.936  12.843  16.068  1.00  0.00     0.223 C 
HETATM   33  O7  UNL     1      20.884  12.850  16.886  1.00  0.00    -0.273 OA
ATOM     34  H2  UNL     1      17.957  13.517  15.770  1.00  0.00     0.165 HD
BRANCH  32  35
HETATM   35  C12 UNL     1      20.117  12.140  14.780  1.00  0.00     0.078 C 
HETATM   36  C13 UNL     1      18.812  11.463  14.415  1.00  0.00     0.014 C 
HETATM   37  C14 UNL     1      18.960  10.618  13.188  1.00  0.00     0.001 C 
HETATM   38  C15 UNL     1      20.341  10.731  12.565  1.00  0.00     0.000 C 
HETATM   39  C16 UNL     1      21.368  10.339  13.594  1.00  0.00     0.001 C 
HETATM   40  C17 UNL     1      21.169  11.054  14.891  1.00  0.00     0.014 C 
ENDBRANCH  32  35
ENDBRANCH   5  31
TORSDOF 11
ENDMDL
MODEL 2
REMARK VINA RESULT: -7.486216020      2.612      8.057
REMARK  11 active torsions:
REMARK  status: ('A' for Active; 'I' for Inactive)
REMARK       I    between atoms: C2_2  and  N1_4 
REMARK    1  A    between atoms: N1_4  and  C3_6 
REMARK    2  A    between atoms: C3_6  and  C4_7 
REMARK    3  A    between atoms: C5_9  and  O3_10 
REMARK    4  A    between atoms: O3_10  and  C6_11 
REMARK    5  A    between atoms: C7_12  and  O4_13 
REMARK    6  A    between atoms: C8_15  and  C9_16 
REMARK    7  A    between atoms: C9_16  and  O5_17 
REMARK    8  A    between atoms: C10_20  and  N2_21 
REMARK       I    between atoms: N2_21  and  C11_23 
REMARK    9  A    between atoms: C11_23  and  C12_25 
REMARK   10  A    between atoms: C18_31  and  O8_32 
REMARK   11  A    between atoms: C20_36  and  N3_37 
ROOT
HETATM    1  C6  UNL     1      19.850  13.941  16.397  1.00  0.00     0.191 C 
HETATM    2  C7  UNL     1      20.346  13.912  17.808  1.00  0.00     0.181 C 
HETATM    3  C8  UNL     1      19.347  14.111  18.882  1.00  0.00     0.179 C 
HETATM    4  O6  UNL     1      18.076  14.453  18.499  1.00  0.00    -0.354 OA
HETATM    5  C10 UNL     1      18.144  15.401  17.503  1.00  0.00     0.255 C 
HETATM    6  C18 UNL     1      18.530  14.659  16.244  1.00  0.00     0.198 C 
ENDROOT
BRANCH   1   7
HETATM    7  O3  UNL     1      19.715  12.723  15.785  1.00  0.00    -0.328 OA
BRANCH   7   8
HETATM    8  C5  UNL     1      19.559  12.763  14.419  1.00  0.00     0.413 C 
HETATM    9  O2  UNL     1      20.721  12.772  13.708  1.00  0.00    -0.330 OA
HETATM   10  C4  UNL     1      21.469  11.593  13.860  1.00  0.00     0.177 C 
HETATM   11  C20 UNL     1      20.565  10.405  13.916  1.00  0.00     0.237 C 
HETATM   12  C19 UNL     1      19.264  10.829  13.210  1.00  0.00     0.209 C 
HETATM   13  O9  UNL     1      18.677  11.755  14.068  1.00  0.00    -0.337 OA
BRANCH  10  14
HETATM   14  C3  UNL     1      22.549  11.523  12.811  1.00  0.00     0.156 C 
BRANCH  14  15
HETATM   15  N1  UNL     1      23.641  10.717  13.247  1.00  0.00    -0.359 N 
HETATM   16  C2  UNL     1      24.959  11.160  13.516  1.00  0.00     0.213 C 
HETATM   17  C1  UNL     1      26.046  10.244  13.973  1.00  0.00     0.117 C 
HETATM   18  O1  UNL     1      25.263  12.362  13.376  1.00  0.00    -0.274 OA
ATOM     19  H1  UNL     1      23.455   9.724  13.378  1.00  0.00     0.162 HD
ENDBRANCH  14  15
ENDBRANCH  10  14
BRANCH  11  20
HETATM   20  N3  UNL     1      21.096   9.238  13.310  1.00  0.00    -0.070 N 
ATOM     21  H33 UNL     1      20.516   8.952  12.521  1.00  0.00     0.274 HD
ATOM     22  H32 UNL     1      21.964   9.454  12.820  1.00  0.00     0.274 HD
ATOM     23  H31 UNL     1      21.234   8.457  13.951  1.00  0.00     0.274 HD
ENDBRANCH  11  20
ENDBRANCH   7   8
ENDBRANCH   1   7
BRANCH   2  24
HETATM   24  O4  UNL     1      21.371  14.859  18.015  1.00  0.00    -0.390 OA
ATOM     25  H4  UNL     1      21.412  15.488  17.303  1.00  0.00     0.210 HD
ENDBRANCH   2  24
BRANCH   6  26
HETATM   26  O8  UNL     1      17.513  13.723  16.020  1.00  0.00    -0.388 OA
ATOM     27  H8  UNL     1      16.735  14.170  15.708  1.00  0.00     0.210 HD
ENDBRANCH   6  26
BRANCH   3  28
HETATM   28  C9  UNL     1      19.882  15.066  19.960  1.00  0.00     0.198 C 
BRANCH  28  29
HETATM   29  O5  UNL     1      18.858  15.495  20.801  1.00  0.00    -0.398 OA
ATOM     30  H5  UNL     1      19.108  16.285  21.266  1.00  0.00     0.209 HD
ENDBRANCH  28  29
ENDBRANCH   3  28
BRANCH   5  31
HETATM   31  N2  UNL     1      16.791  15.914  17.271  1.00  0.00    -0.332 N 
HETATM   32  C11 UNL     1      15.650  15.267  17.807  1.00  0.00     0.223 C 
HETATM   33  O7  UNL     1      15.824  14.234  18.494  1.00  0.00    -0.273 OA
ATOM     34  H2  UNL     1      16.668  16.757  16.709  1.00  0.00     0.165 HD
BRANCH  32  35
HETATM   35  C12 UNL     1      14.270  15.750  17.593  1.00  0.00     0.078 C 
HETATM   36  C13 UNL     1      13.448  14.615  17.015  1.00  0.00     0.014 C 
HETATM   37  C14 UNL     1      12.071  15.072  16.646  1.00  0.00     0.001 C 
HETATM   38  C15 UNL     1      11.813  16.518  17.035  1.00  0.00     0.000 C 
HETATM   39  C16 UNL     1      12.845  17.389  16.369  1.00  0.00     0.001 C 
HETATM   40  C17 UNL     1      14.235  16.886  16.589  1.00  0.00     0.014 C 
ENDBRANCH  32  35
ENDBRANCH   5  31
TORSDOF 11
ENDMDL
MODEL 3
REMARK VINA RESULT: -7.354642671      2.759      7.665
REMARK  11 active torsions:
REMARK  status: ('A' for Active; 'I' for Inactive)
REMARK       I    between atoms: C2_2  and  N1_4 
REMARK    1  A    between atoms: N1_4  and  C3_6 
REMARK    2  A    between atoms: C3_6  and  C4_7 
REMARK    3  A    between atoms: C5_9  and  O3_10 
REMARK    4  A    between atoms: O3_10  and  C6_11 
REMARK    5  A    between atoms: C7_12  and  O4_13 
REMARK    6  A    between atoms: C8_15  and  C9_16 
REMARK    7  A    between atoms: C9_16  and  O5_17 
REMARK    8  A    between atoms: C10_20  and  N2_21 
REMARK       I    between atoms: N2_21  and  C11_23 
REMARK    9  A    between atoms: C11_23  and  C12_25 
REMARK   10  A    between atoms: C18_31  and  O8_32 
REMARK   11  A    between atoms: C20_36  and  N3_37 
ROOT
HETATM    1  C6  UNL     1      16.219  14.468  17.768  1.00  0.00     0.191 C 
HETATM    2  C7  UNL     1      14.765  14.558  18.111  1.00  0.00     0.181 C 
HETATM    3  C8  UNL     1      14.248  15.879  18.532  1.00  0.00     0.179 C 
HETATM    4  O6  UNL     1      15.165  16.880  18.718  1.00  0.00    -0.354 OA
HETATM    5  C10 UNL     1      16.255  16.375  19.390  1.00  0.00     0.255 C 
HETATM    6  C18 UNL     1      17.043  15.579  18.374  1.00  0.00     0.198 C 
ENDROOT
BRANCH   1   7
HETATM    7  O3  UNL     1      16.518  14.432  16.432  1.00  0.00    -0.328 OA
BRANCH   7   8
HETATM    8  C5  UNL     1      16.956  13.219  15.957  1.00  0.00     0.413 C 
HETATM    9  O2  UNL     1      17.923  13.291  14.999  1.00  0.00    -0.330 OA
HETATM   10  C4  UNL     1      19.125  13.845  15.471  1.00  0.00     0.177 C 
HETATM   11  C20 UNL     1      19.400  13.385  16.865  1.00  0.00     0.237 C 
HETATM   12  C19 UNL     1      18.627  12.064  17.035  1.00  0.00     0.209 C 
HETATM   13  O9  UNL     1      17.284  12.434  17.050  1.00  0.00    -0.337 OA
BRANCH  10  14
HETATM   14  C3  UNL     1      20.236  13.593  14.486  1.00  0.00     0.156 C 
BRANCH  14  15
HETATM   15  N1  UNL     1      20.130  12.294  13.908  1.00  0.00    -0.359 N 
HETATM   16  C2  UNL     1      20.980  11.189  14.158  1.00  0.00     0.213 C 
HETATM   17  C1  UNL     1      20.794   9.858  13.507  1.00  0.00     0.117 C 
HETATM   18  O1  UNL     1      21.937  11.295  14.950  1.00  0.00    -0.274 OA
ATOM     19  H1  UNL     1      19.366  12.146  13.249  1.00  0.00     0.162 HD
ENDBRANCH  14  15
ENDBRANCH  10  14
BRANCH  11  20
HETATM   20  N3  UNL     1      20.774  13.191  17.156  1.00  0.00    -0.070 N 
ATOM     21  H33 UNL     1      20.989  12.195  17.212  1.00  0.00     0.274 HD
ATOM     22  H32 UNL     1      21.349  13.449  16.353  1.00  0.00     0.274 HD
ATOM     23  H31 UNL     1      21.099  13.673  17.995  1.00  0.00     0.274 HD
ENDBRANCH  11  20
ENDBRANCH   7   8
ENDBRANCH   1   7
BRANCH   2  24
HETATM   24  O4  UNL     1      14.414  13.635  19.118  1.00  0.00    -0.390 OA
ATOM     25  H4  UNL     1      13.842  14.029  19.767  1.00  0.00     0.210 HD
ENDBRANCH   2  24
BRANCH   6  26
HETATM   26  O8  UNL     1      17.409  16.487  17.373  1.00  0.00    -0.388 OA
ATOM     27  H8  UNL     1      17.325  17.374  17.704  1.00  0.00     0.210 HD
ENDBRANCH   6  26
BRANCH   3  28
HETATM   28  C9  UNL     1      13.315  15.743  19.744  1.00  0.00     0.198 C 
BRANCH  28  29
HETATM   29  O5  UNL     1      12.622  16.928  19.977  1.00  0.00    -0.398 OA
ATOM     30  H5  UNL     1      12.188  16.909  20.823  1.00  0.00     0.209 HD
ENDBRANCH  28  29
ENDBRANCH   3  28
BRANCH   5  31
HETATM   31  N2  UNL     1      17.113  17.498  19.776  1.00  0.00    -0.332 N 
HETATM   32  C11 UNL     1      18.297  17.302  20.531  1.00  0.00     0.223 C 
HETATM   33  O7  UNL     1      18.599  16.134  20.864  1.00  0.00    -0.273 OA
ATOM     34  H2  UNL     1      16.852  18.443  19.496  1.00  0.00     0.165 HD
BRANCH  32  35
HETATM   35  C12 UNL     1      19.187  18.408  20.942  1.00  0.00     0.078 C 
HETATM   36  C13 UNL     1      19.943  17.979  22.183  1.00  0.00     0.014 C 
HETATM   37  C14 UNL     1      20.766  19.101  22.736  1.00  0.00     0.001 C 
HETATM   38  C15 UNL     1      20.716  20.345  21.865  1.00  0.00     0.000 C 
HETATM   39  C16 UNL     1      19.280  20.775  21.719  1.00  0.00     0.001 C 
HETATM   40  C17 UNL     1      18.391  19.646  21.307  1.00  0.00     0.014 C 
ENDBRANCH  32  35
ENDBRANCH   5  31
TORSDOF 11
ENDMDL
MODEL 4
REMARK VINA RESULT: -7.187731336      3.032      8.062
REMARK  11 active torsions:
REMARK  status: ('A' for Active; 'I' for Inactive)
REMARK       I    between atoms: C2_2  and  N1_4 
REMARK    1  A    between atoms: N1_4  and  C3_6 
REMARK    2  A    between atoms: C3_6  and  C4_7 
REMARK    3  A    between atoms: C5_9  and  O3_10 
REMARK    4  A    between atoms: O3_10  and  C6_11 
REMARK    5  A    between atoms: C7_12  and  O4_13 
REMARK    6  A    between atoms: C8_15  and  C9_16 
REMARK    7  A    between atoms: C9_16  and  O5_17 
REMARK    8  A    between atoms: C10_20  and  N2_21 
REMARK       I    between atoms: N2_21  and  C11_23 
REMARK    9  A    between atoms: C11_23  and  C12_25 
REMARK   10  A    between atoms: C18_31  and  O8_32 
REMARK   11  A    between atoms: C20_36  and  N3_37 
ROOT
HETATM    1  C6  UNL     1      16.211  14.541  17.849  1.00  0.00     0.191 C 
HETATM    2  C7  UNL     1      14.773  14.693  18.236  1.00  0.00     0.181 C 
HETATM    3  C8  UNL     1      14.316  16.044  18.633  1.00  0.00     0.179 C 
HETATM    4  O6  UNL     1      15.274  17.016  18.759  1.00  0.00    -0.354 OA
HETATM    5  C10 UNL     1      16.368  16.492  19.411  1.00  0.00     0.255 C 
HETATM    6  C18 UNL     1      17.093  15.640  18.394  1.00  0.00     0.198 C 
ENDROOT
BRANCH   1   7
HETATM    7  O3  UNL     1      16.464  14.455  16.507  1.00  0.00    -0.328 OA
BRANCH   7   8
HETATM    8  C5  UNL     1      16.900  13.228  16.064  1.00  0.00     0.413 C 
HETATM    9  O2  UNL     1      17.831  13.273  15.071  1.00  0.00    -0.330 OA
HETATM   10  C4  UNL     1      19.042  13.857  15.479  1.00  0.00     0.177 C 
HETATM   11  C20 UNL     1      19.371  13.455  16.879  1.00  0.00     0.237 C 
HETATM   12  C19 UNL     1      18.620  12.134  17.128  1.00  0.00     0.209 C 
HETATM   13  O9  UNL     1      17.274  12.491  17.175  1.00  0.00    -0.337 OA
BRANCH  10  14
HETATM   14  C3  UNL     1      20.122  13.577  14.466  1.00  0.00     0.156 C 
BRANCH  14  15
HETATM   15  N1  UNL     1      20.014  12.254  13.947  1.00  0.00    -0.359 N 
HETATM   16  C2  UNL     1      20.904  11.179  14.190  1.00  0.00     0.213 C 
HETATM   17  C1  UNL     1      20.712   9.818  13.605  1.00  0.00     0.117 C 
HETATM   18  O1  UNL     1      21.902  11.338  14.919  1.00  0.00    -0.274 OA
ATOM     19  H1  UNL     1      19.217  12.062  13.341  1.00  0.00     0.162 HD
ENDBRANCH  14  15
ENDBRANCH  10  14
BRANCH  11  20
HETATM   20  N3  UNL     1      20.757  13.286  17.129  1.00  0.00    -0.070 N 
ATOM     21  H33 UNL     1      21.019  13.747  18.001  1.00  0.00     0.274 HD
ATOM     22  H32 UNL     1      20.959  12.317  17.377  1.00  0.00     0.274 HD
ATOM     23  H31 UNL     1      21.362  13.593  16.368  1.00  0.00     0.274 HD
ENDBRANCH  11  20
ENDBRANCH   7   8
ENDBRANCH   1   7
BRANCH   2  24
HETATM   24  O4  UNL     1      14.425  13.812  19.283  1.00  0.00    -0.390 OA
ATOM     25  H4  UNL     1      13.490  13.828  19.453  1.00  0.00     0.210 HD
ENDBRANCH   2  24
BRANCH   6  26
HETATM   26  O8  UNL     1      17.457  16.504  17.355  1.00  0.00    -0.388 OA
ATOM     27  H8  UNL     1      18.103  17.125  17.671  1.00  0.00     0.210 HD
ENDBRANCH   6  26
BRANCH   3  28
HETATM   28  C9  UNL     1      13.420  15.976  19.879  1.00  0.00     0.198 C 
BRANCH  28  29
HETATM   29  O5  UNL     1      12.662  17.136  20.012  1.00  0.00    -0.398 OA
ATOM     30  H5  UNL     1      13.220  17.896  20.136  1.00  0.00     0.209 HD
ENDBRANCH  28  29
ENDBRANCH   3  28
BRANCH   5  31
HETATM   31  N2  UNL     1      17.276  17.595  19.735  1.00  0.00    -0.332 N 
HETATM   32  C11 UNL     1      16.847  18.709  20.498  1.00  0.00     0.223 C 
HETATM   33  O7  UNL     1      15.660  18.732  20.896  1.00  0.00    -0.273 OA
ATOM     34  H2  UNL     1      18.240  17.560  19.403  1.00  0.00     0.165 HD
BRANCH  32  35
HETATM   35  C12 UNL     1      17.731  19.843  20.843  1.00  0.00     0.078 C 
HETATM   36  C13 UNL     1      18.906  19.310  21.638  1.00  0.00     0.014 C 
HETATM   37  C14 UNL     1      19.775  20.422  22.138  1.00  0.00     0.001 C 
HETATM   38  C15 UNL     1      19.321  21.785  21.642  1.00  0.00     0.000 C 
HETATM   39  C16 UNL     1      17.895  22.005  22.072  1.00  0.00     0.001 C 
HETATM   40  C17 UNL     1      17.014  20.849  21.721  1.00  0.00     0.014 C 
ENDBRANCH  32  35
ENDBRANCH   5  31
TORSDOF 11
ENDMDL
MODEL 5
REMARK VINA RESULT: -7.171921520      3.046      6.609
REMARK  11 active torsions:
REMARK  status: ('A' for Active; 'I' for Inactive)
REMARK       I    between atoms: C2_2  and  N1_4 
REMARK    1  A    between atoms: N1_4  and  C3_6 
REMARK    2  A    between atoms: C3_6  and  C4_7 
REMARK    3  A    between atoms: C5_9  and  O3_10 
REMARK    4  A    between atoms: O3_10  and  C6_11 
REMARK    5  A    between atoms: C7_12  and  O4_13 
REMARK    6  A    between atoms: C8_15  and  C9_16 
REMARK    7  A    between atoms: C9_16  and  O5_17 
REMARK    8  A    between atoms: C10_20  and  N2_21 
REMARK       I    between atoms: N2_21  and  C11_23 
REMARK    9  A    between atoms: C11_23  and  C12_25 
REMARK   10  A    between atoms: C18_31  and  O8_32 
REMARK   11  A    between atoms: C20_36  and  N3_37 
ROOT
HETATM    1  C6  UNL     1      18.145  14.513  17.777  1.00  0.00     0.191 C 
HETATM    2  C7  UNL     1      19.488  13.876  17.954  1.00  0.00     0.181 C 
HETATM    3  C8  UNL     1      20.211  14.155  19.215  1.00  0.00     0.179 C 
HETATM    4  O6  UNL     1      19.665  15.090  20.055  1.00  0.00    -0.354 OA
HETATM    5  C10 UNL     1      19.230  16.166  19.314  1.00  0.00     0.255 C 
HETATM    6  C18 UNL     1      17.943  15.727  18.654  1.00  0.00     0.198 C 
ENDROOT
BRANCH   1   7
HETATM    7  O3  UNL     1      17.064  13.696  17.972  1.00  0.00    -0.328 OA
BRANCH   7   8
HETATM    8  C5  UNL     1      16.382  13.338  16.833  1.00  0.00     0.413 C 
HETATM    9  O2  UNL     1      15.025  13.331  16.954  1.00  0.00    -0.330 OA
HETATM   10  C4  UNL     1      14.488  14.606  17.199  1.00  0.00     0.177 C 
HETATM   11  C20 UNL     1      15.225  15.642  16.416  1.00  0.00     0.237 C 
HETATM   12  C19 UNL     1      15.864  14.900  15.227  1.00  0.00     0.209 C 
HETATM   13  O9  UNL     1      16.865  14.113  15.793  1.00  0.00    -0.337 OA
BRANCH  10  14
HETATM   14  C3  UNL     1      12.996  14.592  16.990  1.00  0.00     0.156 C 
BRANCH  14  15
HETATM   15  N1  UNL     1      12.299  14.711  18.227  1.00  0.00    -0.359 N 
HETATM   16  C2  UNL     1      12.485  15.719  19.205  1.00  0.00     0.213 C 
HETATM   17  C1  UNL     1      11.706  15.768  20.478  1.00  0.00     0.117 C 
HETATM   18  O1  UNL     1      13.328  16.621  19.030  1.00  0.00    -0.274 OA
ATOM     19  H1  UNL     1      11.597  14.000  18.429  1.00  0.00     0.162 HD
ENDBRANCH  14  15
ENDBRANCH  10  14
BRANCH  11  20
HETATM   20  N3  UNL     1      14.416  16.710  15.951  1.00  0.00    -0.070 N 
ATOM     21  H33 UNL     1      14.653  17.575  16.438  1.00  0.00     0.274 HD
ATOM     22  H32 UNL     1      14.678  16.968  14.999  1.00  0.00     0.274 HD
ATOM     23  H31 UNL     1      13.413  16.533  16.008  1.00  0.00     0.274 HD
ENDBRANCH  11  20
ENDBRANCH   7   8
ENDBRANCH   1   7
BRANCH   2  24
HETATM   24  O4  UNL     1      20.359  14.206  16.894  1.00  0.00    -0.390 OA
ATOM     25  H4  UNL     1      19.927  14.127  16.051  1.00  0.00     0.210 HD
ENDBRANCH   2  24
BRANCH   6  26
HETATM   26  O8  UNL     1      17.063  15.408  19.695  1.00  0.00    -0.388 OA
ATOM     27  H8  UNL     1      16.288  14.991  19.338  1.00  0.00     0.210 HD
ENDBRANCH   6  26
BRANCH   3  28
HETATM   28  C9  UNL     1      21.695  14.445  18.945  1.00  0.00     0.198 C 
BRANCH  28  29
HETATM   29  O5  UNL     1      22.443  13.271  18.955  1.00  0.00    -0.398 OA
ATOM     30  H5  UNL     1      22.334  12.804  19.776  1.00  0.00     0.209 HD
ENDBRANCH  28  29
ENDBRANCH   3  28
BRANCH   5  31
HETATM   31  N2  UNL     1      18.863  17.238  20.242  1.00  0.00    -0.332 N 
HETATM   32  C11 UNL     1      19.796  18.228  20.638  1.00  0.00     0.223 C 
HETATM   33  O7  UNL     1      20.957  18.167  20.173  1.00  0.00    -0.273 OA
ATOM     34  H2  UNL     1      17.912  17.274  20.611  1.00  0.00     0.165 HD
BRANCH  32  35
HETATM   35  C12 UNL     1      19.466  19.324  21.573  1.00  0.00     0.078 C 
HETATM   36  C13 UNL     1      18.163  19.957  21.130  1.00  0.00     0.014 C 
HETATM   37  C14 UNL     1      17.834  21.164  21.953  1.00  0.00     0.001 C 
HETATM   38  C15 UNL     1      18.828  21.388  23.080  1.00  0.00     0.000 C 
HETATM   39  C16 UNL     1      20.207  21.521  22.490  1.00  0.00     0.001 C 
HETATM   40  C17 UNL     1      20.525  20.409  21.543  1.00  0.00     0.014 C 
ENDBRANCH  32  35
ENDBRANCH   5  31
TORSDOF 11
ENDMDL
