MODEL 1
REMARK VINA RESULT: -9.489202522      0.000      0.000
REMARK  10 active torsions:
REMARK  status: ('A' for Active; 'I' for Inactive)
REMARK    1  A    between atoms: C2_2  and  C3_3 
REMARK    2  A    between atoms: C2_2  and  C13_22 
REMARK    3  A    between atoms: C3_3  and  C4_5 
REMARK    4  A    between atoms: C4_5  and  C5_7 
REMARK    5  A    between atoms: C7_9  and  C8_10 
REMARK    6  A    between atoms: C9_13  and  C10_14 
REMARK    7  A    between atoms: C11_18  and  C12_19 
REMARK    8  A    between atoms: C15_24  and  O9_25 
REMARK    9  A    between atoms: C17_28  and  O10_29 
REMARK   10  A    between atoms: C17_28  and  C18_31 
ROOT
HETATM    1  C4  UNL     1      16.733  13.328  16.397  1.00  0.00     0.261 C 
HETATM    2  O2  UNL     1      16.814  12.441  17.282  1.00  0.00    -0.283 OA
ENDROOT
BRANCH   1   3
HETATM    3  C3  UNL     1      17.405  13.218  15.136  1.00  0.00     0.229 C 
HETATM    4  O1  UNL     1      16.784  12.531  14.241  1.00  0.00    -0.284 OA
BRANCH   3   5
HETATM    5  C2  UNL     1      18.698  13.799  14.799  1.00  0.00    -0.006 C 
HETATM    6  C1  UNL     1      18.682  15.130  14.618  1.00  0.00     0.023 C 
BRANCH   5   7
HETATM    7  C13 UNL     1      19.910  13.005  14.654  1.00  0.00     0.069 C 
HETATM    8  C14 UNL     1      19.880  12.209  13.320  1.00  0.00     0.044 C 
HETATM    9  C15 UNL     1      21.181  11.446  13.463  1.00  0.00     0.122 C 
HETATM   10  C16 UNL     1      21.327  11.184  14.953  1.00  0.00     0.081 C 
HETATM   11  C17 UNL     1      20.026  11.794  15.565  1.00  0.00     0.155 C 
BRANCH   9  12
HETATM   12  O9  UNL     1      21.110  10.244  12.768  1.00  0.00    -0.395 OA
ATOM     13  H9  UNL     1      21.909   9.746  12.893  1.00  0.00     0.210 HD
ENDBRANCH   9  12
BRANCH  11  14
HETATM   14  O10 UNL     1      19.050  10.850  15.416  1.00  0.00    -0.378 OA
ATOM     15  H10 UNL     1      18.433  10.785  16.135  1.00  0.00     0.211 HD
ENDBRANCH  11  14
BRANCH  11  16
HETATM   16  C18 UNL     1      20.341  12.100  16.952  1.00  0.00     0.209 C 
HETATM   17  O11 UNL     1      20.001  11.302  17.865  1.00  0.00    -0.646 OA
HETATM   18  O12 UNL     1      21.016  13.251  17.363  1.00  0.00    -0.646 OA
ENDBRANCH  11  16
ENDBRANCH   5   7
ENDBRANCH   3   5
ENDBRANCH   1   3
BRANCH   1  19
HETATM   19  C5  UNL     1      15.895  14.495  16.742  1.00  0.00     0.237 C 
HETATM   20  C6  UNL     1      14.995  14.950  15.611  1.00  0.00     0.097 C 
HETATM   21  C7  UNL     1      13.801  15.502  16.421  1.00  0.00     0.140 C 
HETATM   22  C9  UNL     1      14.389  15.530  17.789  1.00  0.00     0.192 C 
HETATM   23  O7  UNL     1      15.017  14.247  17.799  1.00  0.00    -0.322 OA
HETATM   24  C11 UNL     1      15.637  16.392  17.830  1.00  0.00     0.182 C 
HETATM   25  O8  UNL     1      16.598  15.580  17.206  1.00  0.00    -0.339 OA
BRANCH  21  26
HETATM   26  C8  UNL     1      13.337  16.768  15.874  1.00  0.00     0.180 C 
HETATM   27  O3  UNL     1      14.088  17.519  15.204  1.00  0.00    -0.648 OA
HETATM   28  O4  UNL     1      12.037  17.180  16.083  1.00  0.00    -0.648 OA
ENDBRANCH  21  26
BRANCH  22  29
HETATM   29  C10 UNL     1      13.494  15.697  18.908  1.00  0.00     0.213 C 
HETATM   30  O5  UNL     1      13.248  14.770  19.713  1.00  0.00    -0.646 OA
HETATM   31  O6  UNL     1      12.818  16.903  19.198  1.00  0.00    -0.646 OA
ENDBRANCH  22  29
BRANCH  24  32
HETATM   32  C12 UNL     1      16.039  16.729  19.243  1.00  0.00     0.121 C 
HETATM   33  S1  UNL     1      17.812  16.324  19.400  1.00  0.00    -0.095 SA
ENDBRANCH  24  32
ENDBRANCH   1  19
TORSDOF 10
ENDMDL
MODEL 2
REMARK VINA RESULT: -9.402962939      0.866      1.259
REMARK  10 active torsions:
REMARK  status: ('A' for Active; 'I' for Inactive)
REMARK    1  A    between atoms: C2_2  and  C3_3 
REMARK    2  A    between atoms: C2_2  and  C13_22 
REMARK    3  A    between atoms: C3_3  and  C4_5 
REMARK    4  A    between atoms: C4_5  and  C5_7 
REMARK    5  A    between atoms: C7_9  and  C8_10 
REMARK    6  A    between atoms: C9_13  and  C10_14 
REMARK    7  A    between atoms: C11_18  and  C12_19 
REMARK    8  A    between atoms: C15_24  and  O9_25 
REMARK    9  A    between atoms: C17_28  and  O10_29 
REMARK   10  A    between atoms: C17_28  and  C18_31 
ROOT
HETATM    1  C4  UNL     1      16.658  13.684  15.809  1.00  0.00     0.261 C 
HETATM    2  O2  UNL     1      16.340  12.511  16.122  1.00  0.00    -0.283 OA
ENDROOT
BRANCH   1   3
HETATM    3  C3  UNL     1      17.806  13.980  15.004  1.00  0.00     0.229 C 
HETATM    4  O1  UNL     1      18.300  15.159  15.165  1.00  0.00    -0.284 OA
BRANCH   3   5
HETATM    5  C2  UNL     1      18.435  13.085  14.043  1.00  0.00    -0.006 C 
HETATM    6  C1  UNL     1      17.688  12.814  12.960  1.00  0.00     0.023 C 
BRANCH   5   7
HETATM    7  C13 UNL     1      19.761  12.515  14.240  1.00  0.00     0.069 C 
HETATM    8  C14 UNL     1      20.035  11.404  13.191  1.00  0.00     0.044 C 
HETATM    9  C15 UNL     1      21.405  10.957  13.663  1.00  0.00     0.122 C 
HETATM   10  C16 UNL     1      21.380  11.129  15.173  1.00  0.00     0.081 C 
HETATM   11  C17 UNL     1      19.931  11.630  15.464  1.00  0.00     0.155 C 
BRANCH   9  12
HETATM   12  O9  UNL     1      21.611   9.622  13.333  1.00  0.00    -0.395 OA
ATOM     13  H9  UNL     1      22.369   9.284  13.797  1.00  0.00     0.210 HD
ENDBRANCH   9  12
BRANCH  11  14
HETATM   14  O10 UNL     1      19.138  10.519  15.500  1.00  0.00    -0.378 OA
ATOM     15  H10 UNL     1      18.454  10.484  14.841  1.00  0.00     0.211 HD
ENDBRANCH  11  14
BRANCH  11  16
HETATM   16  C18 UNL     1      20.001  12.344  16.730  1.00  0.00     0.209 C 
HETATM   17  O11 UNL     1      20.867  13.243  16.897  1.00  0.00    -0.646 OA
HETATM   18  O12 UNL     1      19.152  12.101  17.812  1.00  0.00    -0.646 OA
ENDBRANCH  11  16
ENDBRANCH   5   7
ENDBRANCH   3   5
ENDBRANCH   1   3
BRANCH   1  19
HETATM   19  C5  UNL     1      15.767  14.744  16.326  1.00  0.00     0.237 C 
HETATM   20  C6  UNL     1      14.861  15.342  15.270  1.00  0.00     0.097 C 
HETATM   21  C7  UNL     1      13.635  15.704  16.138  1.00  0.00     0.140 C 
HETATM   22  C9  UNL     1      14.205  15.528  17.502  1.00  0.00     0.192 C 
HETATM   23  O7  UNL     1      14.888  14.288  17.312  1.00  0.00    -0.322 OA
HETATM   24  C11 UNL     1      15.415  16.422  17.708  1.00  0.00     0.182 C 
HETATM   25  O8  UNL     1      16.417  15.764  16.976  1.00  0.00    -0.339 OA
BRANCH  21  26
HETATM   26  C8  UNL     1      13.123  17.023  15.798  1.00  0.00     0.180 C 
HETATM   27  O3  UNL     1      11.940  17.363  16.048  1.00  0.00    -0.648 OA
HETATM   28  O4  UNL     1      13.941  17.947  15.181  1.00  0.00    -0.648 OA
ENDBRANCH  21  26
BRANCH  22  29
HETATM   29  C10 UNL     1      13.291  15.471  18.616  1.00  0.00     0.213 C 
HETATM   30  O5  UNL     1      12.968  14.392  19.163  1.00  0.00    -0.646 OA
HETATM   31  O6  UNL     1      12.680  16.609  19.188  1.00  0.00    -0.646 OA
ENDBRANCH  22  29
BRANCH  24  32
HETATM   32  C12 UNL     1      15.785  16.536  19.164  1.00  0.00     0.121 C 
HETATM   33  S1  UNL     1      17.596  16.323  19.267  1.00  0.00    -0.095 SA
ENDBRANCH  24  32
ENDBRANCH   1  19
TORSDOF 10
ENDMDL
MODEL 3
REMARK VINA RESULT: -9.261537462      1.137      1.439
REMARK  10 active torsions:
REMARK  status: ('A' for Active; 'I' for Inactive)
REMARK    1  A    between atoms: C2_2  and  C3_3 
REMARK    2  A    between atoms: C2_2  and  C13_22 
REMARK    3  A    between atoms: C3_3  and  C4_5 
REMARK    4  A    between atoms: C4_5  and  C5_7 
REMARK    5  A    between atoms: C7_9  and  C8_10 
REMARK    6  A    between atoms: C9_13  and  C10_14 
REMARK    7  A    between atoms: C11_18  and  C12_19 
REMARK    8  A    between atoms: C15_24  and  O9_25 
REMARK    9  A    between atoms: C17_28  and  O10_29 
REMARK   10  A    between atoms: C17_28  and  C18_31 
ROOT
HETATM    1  C4  UNL     1      16.357  13.761  15.900  1.00  0.00     0.261 C 
HETATM    2  O2  UNL     1      16.386  12.704  16.577  1.00  0.00    -0.283 OA
ENDROOT
BRANCH   1   3
HETATM    3  C3  UNL     1      17.043  13.892  14.650  1.00  0.00     0.229 C 
HETATM    4  O1  UNL     1      16.291  14.141  13.634  1.00  0.00    -0.284 OA
BRANCH   3   5
HETATM    5  C2  UNL     1      18.479  13.763  14.440  1.00  0.00    -0.006 C 
HETATM    6  C1  UNL     1      19.206  14.791  14.909  1.00  0.00     0.023 C 
BRANCH   5   7
HETATM    7  C13 UNL     1      19.082  12.622  13.765  1.00  0.00     0.069 C 
HETATM    8  C14 UNL     1      17.990  11.762  13.073  1.00  0.00     0.044 C 
HETATM    9  C15 UNL     1      18.863  10.648  12.532  1.00  0.00     0.122 C 
HETATM   10  C16 UNL     1      19.977  10.485  13.554  1.00  0.00     0.081 C 
HETATM   11  C17 UNL     1      19.613  11.519  14.666  1.00  0.00     0.155 C 
BRANCH   9  12
HETATM   12  O9  UNL     1      18.129   9.472  12.428  1.00  0.00    -0.395 OA
ATOM     13  H9  UNL     1      18.539   8.784  12.938  1.00  0.00     0.210 HD
ENDBRANCH   9  12
BRANCH  11  14
HETATM   14  O10 UNL     1      18.685  10.916  15.466  1.00  0.00    -0.378 OA
ATOM     15  H10 UNL     1      19.036  10.340  16.135  1.00  0.00     0.211 HD
ENDBRANCH  11  14
BRANCH  11  16
HETATM   16  C18 UNL     1      20.861  11.832  15.345  1.00  0.00     0.209 C 
HETATM   17  O11 UNL     1      21.961  11.553  14.799  1.00  0.00    -0.646 OA
HETATM   18  O12 UNL     1      20.936  12.439  16.600  1.00  0.00    -0.646 OA
ENDBRANCH  11  16
ENDBRANCH   5   7
ENDBRANCH   3   5
ENDBRANCH   1   3
BRANCH   1  19
HETATM   19  C5  UNL     1      15.565  14.866  16.482  1.00  0.00     0.237 C 
HETATM   20  C6  UNL     1      14.600  15.500  15.501  1.00  0.00     0.097 C 
HETATM   21  C7  UNL     1      13.473  15.925  16.468  1.00  0.00     0.140 C 
HETATM   22  C9  UNL     1      14.151  15.732  17.780  1.00  0.00     0.192 C 
HETATM   23  O7  UNL     1      14.755  14.459  17.545  1.00  0.00    -0.322 OA
HETATM   24  C11 UNL     1      15.415  16.568  17.869  1.00  0.00     0.182 C 
HETATM   25  O8  UNL     1      16.317  15.858  17.060  1.00  0.00    -0.339 OA
BRANCH  21  26
HETATM   26  C8  UNL     1      12.996  17.265  16.160  1.00  0.00     0.180 C 
HETATM   27  O3  UNL     1      11.780  17.572  16.231  1.00  0.00    -0.648 OA
HETATM   28  O4  UNL     1      13.885  18.247  15.775  1.00  0.00    -0.648 OA
ENDBRANCH  21  26
BRANCH  22  29
HETATM   29  C10 UNL     1      13.336  15.727  18.970  1.00  0.00     0.213 C 
HETATM   30  O5  UNL     1      13.180  14.700  19.670  1.00  0.00    -0.646 OA
HETATM   31  O6  UNL     1      12.646  16.861  19.453  1.00  0.00    -0.646 OA
ENDBRANCH  22  29
BRANCH  24  32
HETATM   32  C12 UNL     1      15.916  16.675  19.286  1.00  0.00     0.121 C 
HETATM   33  S1  UNL     1      17.703  16.304  19.245  1.00  0.00    -0.095 SA
ENDBRANCH  24  32
ENDBRANCH   1  19
TORSDOF 10
ENDMDL
MODEL 4
REMARK VINA RESULT: -9.039322211      1.856      2.720
REMARK  10 active torsions:
REMARK  status: ('A' for Active; 'I' for Inactive)
REMARK    1  A    between atoms: C2_2  and  C3_3 
REMARK    2  A    between atoms: C2_2  and  C13_22 
REMARK    3  A    between atoms: C3_3  and  C4_5 
REMARK    4  A    between atoms: C4_5  and  C5_7 
REMARK    5  A    between atoms: C7_9  and  C8_10 
REMARK    6  A    between atoms: C9_13  and  C10_14 
REMARK    7  A    between atoms: C11_18  and  C12_19 
REMARK    8  A    between atoms: C15_24  and  O9_25 
REMARK    9  A    between atoms: C17_28  and  O10_29 
REMARK   10  A    between atoms: C17_28  and  C18_31 
ROOT
HETATM    1  C4  UNL     1      17.954  14.640  18.059  1.00  0.00     0.261 C 
HETATM    2  O2  UNL     1      18.565  15.417  18.834  1.00  0.00    -0.283 OA
ENDROOT
BRANCH   1   3
HETATM    3  C3  UNL     1      18.584  13.503  17.457  1.00  0.00     0.229 C 
HETATM    4  O1  UNL     1      18.086  12.362  17.786  1.00  0.00    -0.284 OA
BRANCH   3   5
HETATM    5  C2  UNL     1      19.713  13.534  16.536  1.00  0.00    -0.006 C 
HETATM    6  C1  UNL     1      20.907  13.712  17.124  1.00  0.00     0.023 C 
BRANCH   5   7
HETATM    7  C13 UNL     1      19.564  13.396  15.094  1.00  0.00     0.069 C 
HETATM    8  C14 UNL     1      18.073  13.550  14.687  1.00  0.00     0.044 C 
HETATM    9  C15 UNL     1      18.201  13.299  13.197  1.00  0.00     0.122 C 
HETATM   10  C16 UNL     1      19.331  12.291  13.060  1.00  0.00     0.081 C 
HETATM   11  C17 UNL     1      19.742  11.993  14.536  1.00  0.00     0.155 C 
BRANCH   9  12
HETATM   12  O9  UNL     1      17.018  12.767  12.699  1.00  0.00    -0.395 OA
ATOM     13  H9  UNL     1      16.581  12.255  13.369  1.00  0.00     0.210 HD
ENDBRANCH   9  12
BRANCH  11  14
HETATM   14  O10 UNL     1      18.861  11.060  15.002  1.00  0.00    -0.378 OA
ATOM     15  H10 UNL     1      18.507  10.469  14.347  1.00  0.00     0.211 HD
ENDBRANCH  11  14
BRANCH  11  16
HETATM   16  C18 UNL     1      21.119  11.527  14.482  1.00  0.00     0.209 C 
HETATM   17  O11 UNL     1      21.523  10.663  15.304  1.00  0.00    -0.646 OA
HETATM   18  O12 UNL     1      22.061  11.981  13.556  1.00  0.00    -0.646 OA
ENDBRANCH  11  16
ENDBRANCH   5   7
ENDBRANCH   3   5
ENDBRANCH   1   3
BRANCH   1  19
HETATM   19  C5  UNL     1      16.538  14.979  17.807  1.00  0.00     0.237 C 
HETATM   20  C6  UNL     1      16.294  15.585  16.440  1.00  0.00     0.097 C 
HETATM   21  C7  UNL     1      14.862  15.075  16.169  1.00  0.00     0.140 C 
HETATM   22  C9  UNL     1      14.492  14.569  17.520  1.00  0.00     0.192 C 
HETATM   23  O7  UNL     1      15.693  13.867  17.843  1.00  0.00    -0.322 OA
HETATM   24  C11 UNL     1      14.588  15.670  18.560  1.00  0.00     0.182 C 
HETATM   25  O8  UNL     1      15.973  15.795  18.756  1.00  0.00    -0.339 OA
BRANCH  21  26
HETATM   26  C8  UNL     1      14.029  16.126  15.604  1.00  0.00     0.180 C 
HETATM   27  O3  UNL     1      13.102  15.879  14.793  1.00  0.00    -0.648 OA
HETATM   28  O4  UNL     1      14.243  17.444  15.953  1.00  0.00    -0.648 OA
ENDBRANCH  21  26
BRANCH  22  29
HETATM   29  C10 UNL     1      13.330  13.722  17.631  1.00  0.00     0.213 C 
HETATM   30  O5  UNL     1      13.398  12.543  18.049  1.00  0.00    -0.646 OA
HETATM   31  O6  UNL     1      12.024  14.133  17.284  1.00  0.00    -0.646 OA
ENDBRANCH  22  29
BRANCH  24  32
HETATM   32  C12 UNL     1      13.885  15.294  19.839  1.00  0.00     0.121 C 
HETATM   33  S1  UNL     1      12.424  16.380  19.979  1.00  0.00    -0.095 SA
ENDBRANCH  24  32
ENDBRANCH   1  19
TORSDOF 10
ENDMDL
MODEL 5
REMARK VINA RESULT: -9.027870846      1.284      2.205
REMARK  10 active torsions:
REMARK  status: ('A' for Active; 'I' for Inactive)
REMARK    1  A    between atoms: C2_2  and  C3_3 
REMARK    2  A    between atoms: C2_2  and  C13_22 
REMARK    3  A    between atoms: C3_3  and  C4_5 
REMARK    4  A    between atoms: C4_5  and  C5_7 
REMARK    5  A    between atoms: C7_9  and  C8_10 
REMARK    6  A    between atoms: C9_13  and  C10_14 
REMARK    7  A    between atoms: C11_18  and  C12_19 
REMARK    8  A    between atoms: C15_24  and  O9_25 
REMARK    9  A    between atoms: C17_28  and  O10_29 
REMARK   10  A    between atoms: C17_28  and  C18_31 
ROOT
HETATM    1  C4  UNL     1      16.709  13.290  16.329  1.00  0.00     0.261 C 
HETATM    2  O2  UNL     1      16.163  12.463  15.558  1.00  0.00    -0.283 OA
ENDROOT
BRANCH   1   3
HETATM    3  C3  UNL     1      18.035  13.108  16.837  1.00  0.00     0.229 C 
HETATM    4  O1  UNL     1      18.132  13.075  18.120  1.00  0.00    -0.284 OA
BRANCH   3   5
HETATM    5  C2  UNL     1      19.248  12.969  16.041  1.00  0.00    -0.006 C 
HETATM    6  C1  UNL     1      20.171  13.920  16.259  1.00  0.00     0.023 C 
BRANCH   5   7
HETATM    7  C13 UNL     1      19.444  11.895  15.076  1.00  0.00     0.069 C 
HETATM    8  C14 UNL     1      20.896  11.350  15.159  1.00  0.00     0.044 C 
HETATM    9  C15 UNL     1      20.838  10.332  14.038  1.00  0.00     0.122 C 
HETATM   10  C16 UNL     1      19.892  10.929  13.008  1.00  0.00     0.081 C 
HETATM   11  C17 UNL     1      19.509  12.314  13.616  1.00  0.00     0.155 C 
BRANCH   9  12
HETATM   12  O9  UNL     1      22.101  10.156  13.486  1.00  0.00    -0.395 OA
ATOM     13  H9  UNL     1      22.174   9.288  13.106  1.00  0.00     0.210 HD
ENDBRANCH   9  12
BRANCH  11  14
HETATM   14  O10 UNL     1      20.523  13.171  13.296  1.00  0.00    -0.378 OA
ATOM     15  H10 UNL     1      20.373  14.082  13.520  1.00  0.00     0.211 HD
ENDBRANCH  11  14
BRANCH  11  16
HETATM   16  C18 UNL     1      18.229  12.671  13.025  1.00  0.00     0.209 C 
HETATM   17  O11 UNL     1      17.444  11.767  12.633  1.00  0.00    -0.646 OA
HETATM   18  O12 UNL     1      17.787  13.985  12.853  1.00  0.00    -0.646 OA
ENDBRANCH  11  16
ENDBRANCH   5   7
ENDBRANCH   3   5
ENDBRANCH   1   3
BRANCH   1  19
HETATM   19  C5  UNL     1      15.888  14.468  16.679  1.00  0.00     0.237 C 
HETATM   20  C6  UNL     1      14.988  14.935  15.554  1.00  0.00     0.097 C 
HETATM   21  C7  UNL     1      13.805  15.502  16.370  1.00  0.00     0.140 C 
HETATM   22  C9  UNL     1      14.400  15.522  17.735  1.00  0.00     0.192 C 
HETATM   23  O7  UNL     1      15.012  14.230  17.741  1.00  0.00    -0.322 OA
HETATM   24  C11 UNL     1      15.660  16.368  17.770  1.00  0.00     0.182 C 
HETATM   25  O8  UNL     1      16.607  15.543  17.140  1.00  0.00    -0.339 OA
BRANCH  21  26
HETATM   26  C8  UNL     1      13.355  16.775  15.826  1.00  0.00     0.180 C 
HETATM   27  O3  UNL     1      14.110  17.513  15.146  1.00  0.00    -0.648 OA
HETATM   28  O4  UNL     1      12.064  17.207  16.049  1.00  0.00    -0.648 OA
ENDBRANCH  21  26
BRANCH  22  29
HETATM   29  C10 UNL     1      13.514  15.699  18.858  1.00  0.00     0.213 C 
HETATM   30  O5  UNL     1      13.286  14.785  19.683  1.00  0.00    -0.646 OA
HETATM   31  O6  UNL     1      12.826  16.903  19.132  1.00  0.00    -0.646 OA
ENDBRANCH  22  29
BRANCH  24  32
HETATM   32  C12 UNL     1      16.073  16.699  19.180  1.00  0.00     0.121 C 
HETATM   33  S1  UNL     1      17.864  16.362  19.300  1.00  0.00    -0.095 SA
ENDBRANCH  24  32
ENDBRANCH   1  19
TORSDOF 10
ENDMDL
