MODEL 1
REMARK VINA RESULT: -8.211192248      0.000      0.000
REMARK  11 active torsions:
REMARK  status: ('A' for Active; 'I' for Inactive)
REMARK    1  A    between atoms: C5_5  and  N1_6 
REMARK    2  A    between atoms: C6_10  and  O1_11 
REMARK    3  A    between atoms: O1_11  and  C7_12 
REMARK    4  A    between atoms: C8_13  and  N2_14 
REMARK    5  A    between atoms: C10_19  and  N3_20 
REMARK    6  A    between atoms: C11_24  and  O2_25 
REMARK    7  A    between atoms: O2_25  and  C12_26 
REMARK    8  A    between atoms: C14_28  and  C15_29 
REMARK    9  A    between atoms: C15_29  and  C16_30 
REMARK   10  A    between atoms: C22_40  and  N6_41 
REMARK   11  A    between atoms: C23_45  and  O3_46 
ROOT
HETATM    1  C1  UNL     1      12.968  15.899  19.821  1.00  0.00     0.015 C 
HETATM    2  C2  UNL     1      12.515  16.025  18.714  1.00  0.00    -0.085 C 
HETATM    3  C3  UNL     1      11.952  16.187  17.400  1.00  0.00     0.204 C 
HETATM    4  C4  UNL     1      12.362  17.541  16.814  1.00  0.00     0.082 C 
HETATM    5  C5  UNL     1      13.565  17.146  15.983  1.00  0.00     0.241 C 
HETATM    6  C6  UNL     1      13.705  15.695  16.263  1.00  0.00     0.292 C 
HETATM    7  O4  UNL     1      12.425  15.254  16.470  1.00  0.00    -0.342 OA
ENDROOT
BRANCH   5   8
HETATM    8  N1  UNL     1      13.331  17.360  14.570  1.00  0.00    -0.070 N 
ATOM      9  H13 UNL     1      12.334  17.384  14.357  1.00  0.00     0.274 HD
ATOM     10  H12 UNL     1      13.575  18.311  14.292  1.00  0.00     0.274 HD
ATOM     11  H11 UNL     1      13.819  16.669  14.000  1.00  0.00     0.274 HD
ENDBRANCH   5   8
BRANCH   6  12
HETATM   12  O1  UNL     1      14.606  15.364  17.242  1.00  0.00    -0.349 OA
BRANCH  12  13
HETATM   13  C7  UNL     1      15.910  15.282  16.834  1.00  0.00     0.186 C 
HETATM   14  C8  UNL     1      16.820  16.147  17.680  1.00  0.00     0.217 C 
HETATM   15  C9  UNL     1      18.062  15.402  18.107  1.00  0.00     0.071 C 
HETATM   16  C10 UNL     1      18.645  14.682  16.902  1.00  0.00     0.217 C 
HETATM   17  C11 UNL     1      17.711  13.608  16.380  1.00  0.00     0.183 C 
HETATM   18  C23 UNL     1      16.373  13.836  17.069  1.00  0.00     0.180 C 
BRANCH  14  19
HETATM   19  N2  UNL     1      16.170  16.643  18.865  1.00  0.00    -0.072 N 
ATOM     20  H23 UNL     1      15.563  17.433  18.646  1.00  0.00     0.274 HD
ATOM     21  H22 UNL     1      15.467  15.984  19.200  1.00  0.00     0.274 HD
ATOM     22  H21 UNL     1      16.830  16.882  19.604  1.00  0.00     0.274 HD
ENDBRANCH  14  19
BRANCH  16  23
HETATM   23  N3  UNL     1      18.914  15.699  15.902  1.00  0.00    -0.072 N 
ATOM     24  H33 UNL     1      18.097  16.266  15.672  1.00  0.00     0.274 HD
ATOM     25  H32 UNL     1      19.501  16.458  16.248  1.00  0.00     0.274 HD
ATOM     26  H31 UNL     1      19.310  15.216  15.096  1.00  0.00     0.274 HD
ENDBRANCH  16  23
BRANCH  17  27
HETATM   27  O2  UNL     1      18.253  12.390  16.694  1.00  0.00    -0.374 OA
BRANCH  27  28
HETATM   28  C12 UNL     1      18.512  11.562  15.594  1.00  0.00     0.153 C 
HETATM   29  C13 UNL     1      19.975  11.247  15.644  1.00  0.00     0.042 C 
HETATM   30  C14 UNL     1      20.531  10.678  14.323  1.00  0.00     0.011 C 
HETATM   31  C20 UNL     1      19.380  10.178  13.534  1.00  0.00     0.011 C 
HETATM   32  C21 UNL     1      18.483  11.314  13.149  1.00  0.00     0.036 C 
HETATM   33  C22 UNL     1      18.187  12.236  14.302  1.00  0.00     0.212 C 
BRANCH  30  34
HETATM   34  C15 UNL     1      21.475  11.619  13.719  1.00  0.00    -0.020 C 
BRANCH  34  35
HETATM   35  C16 UNL     1      22.524  11.270  12.775  1.00  0.00     0.027 C 
HETATM   36  C17 UNL     1      23.931  11.227  13.114  1.00  0.00     0.048 A 
HETATM   37  C18 UNL     1      24.613  10.145  13.696  1.00  0.00     0.118 A 
HETATM   38  N5  UNL     1      24.863  12.150  12.890  1.00  0.00    -0.351 N 
HETATM   39  N4  UNL     1      25.900  10.464  13.791  1.00  0.00    -0.360 N 
HETATM   40  C19 UNL     1      26.052  11.698  13.294  1.00  0.00     0.180 A 
ATOM     41  H4  UNL     1      26.640   9.874  14.173  1.00  0.00     0.166 HD
ATOM     42  H5  UNL     1      24.694  13.065  12.472  1.00  0.00     0.166 HD
ENDBRANCH  34  35
ENDBRANCH  30  34
BRANCH  33  43
HETATM   43  N6  UNL     1      16.783  12.592  14.189  1.00  0.00    -0.073 N 
ATOM     44  H63 UNL     1      16.216  12.051  14.841  1.00  0.00     0.274 HD
ATOM     45  H62 UNL     1      16.613  13.527  14.557  1.00  0.00     0.274 HD
ATOM     46  H61 UNL     1      16.428  12.505  13.236  1.00  0.00     0.274 HD
ENDBRANCH  33  43
ENDBRANCH  27  28
ENDBRANCH  17  27
BRANCH  18  47
HETATM   47  O3  UNL     1      15.355  13.045  16.551  1.00  0.00    -0.390 OA
ATOM     48  H3  UNL     1      14.754  12.915  17.275  1.00  0.00     0.210 HD
ENDBRANCH  18  47
ENDBRANCH  12  13
ENDBRANCH   6  12
TORSDOF 11
ENDMDL
MODEL 2
REMARK VINA RESULT: -8.152164957      0.861      1.087
REMARK  11 active torsions:
REMARK  status: ('A' for Active; 'I' for Inactive)
REMARK    1  A    between atoms: C5_5  and  N1_6 
REMARK    2  A    between atoms: C6_10  and  O1_11 
REMARK    3  A    between atoms: O1_11  and  C7_12 
REMARK    4  A    between atoms: C8_13  and  N2_14 
REMARK    5  A    between atoms: C10_19  and  N3_20 
REMARK    6  A    between atoms: C11_24  and  O2_25 
REMARK    7  A    between atoms: O2_25  and  C12_26 
REMARK    8  A    between atoms: C14_28  and  C15_29 
REMARK    9  A    between atoms: C15_29  and  C16_30 
REMARK   10  A    between atoms: C22_40  and  N6_41 
REMARK   11  A    between atoms: C23_45  and  O3_46 
ROOT
HETATM    1  C1  UNL     1      12.609  15.507  19.476  1.00  0.00     0.015 C 
HETATM    2  C2  UNL     1      12.302  15.766  18.343  1.00  0.00    -0.085 C 
HETATM    3  C3  UNL     1      11.916  16.088  16.994  1.00  0.00     0.204 C 
HETATM    4  C4  UNL     1      12.521  17.432  16.579  1.00  0.00     0.082 C 
HETATM    5  C5  UNL     1      13.769  16.975  15.851  1.00  0.00     0.241 C 
HETATM    6  C6  UNL     1      13.733  15.501  16.015  1.00  0.00     0.292 C 
HETATM    7  O4  UNL     1      12.401  15.185  16.043  1.00  0.00    -0.342 OA
ENDROOT
BRANCH   5   8
HETATM    8  N1  UNL     1      13.724  17.322  14.446  1.00  0.00    -0.070 N 
ATOM      9  H13 UNL     1      12.856  17.007  14.013  1.00  0.00     0.274 HD
ATOM     10  H12 UNL     1      13.612  18.327  14.314  1.00  0.00     0.274 HD
ATOM     11  H11 UNL     1      14.540  16.969  13.946  1.00  0.00     0.274 HD
ENDBRANCH   5   8
BRANCH   6  12
HETATM   12  O1  UNL     1      14.478  15.002  17.053  1.00  0.00    -0.349 OA
BRANCH  12  13
HETATM   13  C7  UNL     1      15.824  15.230  16.970  1.00  0.00     0.186 C 
HETATM   14  C8  UNL     1      16.382  15.776  18.268  1.00  0.00     0.217 C 
HETATM   15  C9  UNL     1      17.647  15.061  18.678  1.00  0.00     0.071 C 
HETATM   16  C10 UNL     1      18.566  14.950  17.472  1.00  0.00     0.217 C 
HETATM   17  C11 UNL     1      17.967  14.081  16.384  1.00  0.00     0.183 C 
HETATM   18  C23 UNL     1      16.508  13.869  16.765  1.00  0.00     0.180 C 
BRANCH  14  19
HETATM   19  N2  UNL     1      15.446  15.685  19.357  1.00  0.00    -0.072 N 
ATOM     20  H23 UNL     1      14.968  14.783  19.354  1.00  0.00     0.274 HD
ATOM     21  H22 UNL     1      15.930  15.611  20.252  1.00  0.00     0.274 HD
ATOM     22  H21 UNL     1      14.776  16.453  19.364  1.00  0.00     0.274 HD
ENDBRANCH  14  19
BRANCH  16  23
HETATM   23  N3  UNL     1      18.809  16.305  17.012  1.00  0.00    -0.072 N 
ATOM     24  H33 UNL     1      19.061  16.357  16.025  1.00  0.00     0.274 HD
ATOM     25  H32 UNL     1      17.962  16.870  16.956  1.00  0.00     0.274 HD
ATOM     26  H31 UNL     1      19.518  16.699  17.630  1.00  0.00     0.274 HD
ENDBRANCH  16  23
BRANCH  17  27
HETATM   27  O2  UNL     1      18.668  12.905  16.351  1.00  0.00    -0.374 OA
BRANCH  27  28
HETATM   28  C12 UNL     1      18.443  12.120  15.214  1.00  0.00     0.153 C 
HETATM   29  C13 UNL     1      19.264  10.881  15.393  1.00  0.00     0.042 C 
HETATM   30  C14 UNL     1      19.460  10.075  14.092  1.00  0.00     0.011 C 
HETATM   31  C20 UNL     1      18.407  10.504  13.141  1.00  0.00     0.011 C 
HETATM   32  C21 UNL     1      18.599  11.942  12.768  1.00  0.00     0.036 C 
HETATM   33  C22 UNL     1      18.856  12.822  13.963  1.00  0.00     0.212 C 
BRANCH  30  34
HETATM   34  C15 UNL     1      20.864  10.098  13.683  1.00  0.00    -0.020 C 
BRANCH  34  35
HETATM   35  C16 UNL     1      21.862  11.046  14.151  1.00  0.00     0.027 C 
HETATM   36  C17 UNL     1      23.205  11.132  13.618  1.00  0.00     0.048 A 
HETATM   37  C18 UNL     1      23.602  11.851  12.478  1.00  0.00     0.118 A 
HETATM   38  N5  UNL     1      24.327  10.620  14.117  1.00  0.00    -0.351 N 
HETATM   39  N4  UNL     1      24.920  11.740  12.350  1.00  0.00    -0.360 N 
HETATM   40  C19 UNL     1      25.365  10.981  13.361  1.00  0.00     0.180 A 
ATOM     41  H4  UNL     1      25.491  12.157  11.614  1.00  0.00     0.166 HD
ATOM     42  H5  UNL     1      24.384  10.038  14.953  1.00  0.00     0.166 HD
ENDBRANCH  34  35
ENDBRANCH  30  34
BRANCH  33  43
HETATM   43  N6  UNL     1      18.114  14.048  13.732  1.00  0.00    -0.073 N 
ATOM     44  H63 UNL     1      17.124  13.853  13.586  1.00  0.00     0.274 HD
ATOM     45  H62 UNL     1      18.050  14.602  14.585  1.00  0.00     0.274 HD
ATOM     46  H61 UNL     1      18.493  14.603  12.964  1.00  0.00     0.274 HD
ENDBRANCH  33  43
ENDBRANCH  27  28
ENDBRANCH  17  27
BRANCH  18  47
HETATM   47  O3  UNL     1      15.772  13.247  15.763  1.00  0.00    -0.390 OA
ATOM     48  H3  UNL     1      16.264  12.463  15.549  1.00  0.00     0.210 HD
ENDBRANCH  18  47
ENDBRANCH  12  13
ENDBRANCH   6  12
TORSDOF 11
ENDMDL
MODEL 3
REMARK VINA RESULT: -7.941005708      1.461      1.736
REMARK  11 active torsions:
REMARK  status: ('A' for Active; 'I' for Inactive)
REMARK    1  A    between atoms: C5_5  and  N1_6 
REMARK    2  A    between atoms: C6_10  and  O1_11 
REMARK    3  A    between atoms: O1_11  and  C7_12 
REMARK    4  A    between atoms: C8_13  and  N2_14 
REMARK    5  A    between atoms: C10_19  and  N3_20 
REMARK    6  A    between atoms: C11_24  and  O2_25 
REMARK    7  A    between atoms: O2_25  and  C12_26 
REMARK    8  A    between atoms: C14_28  and  C15_29 
REMARK    9  A    between atoms: C15_29  and  C16_30 
REMARK   10  A    between atoms: C22_40  and  N6_41 
REMARK   11  A    between atoms: C23_45  and  O3_46 
ROOT
HETATM    1  C1  UNL     1      12.505  15.346  19.084  1.00  0.00     0.015 C 
HETATM    2  C2  UNL     1      12.227  15.787  18.000  1.00  0.00    -0.085 C 
HETATM    3  C3  UNL     1      11.879  16.329  16.714  1.00  0.00     0.204 C 
HETATM    4  C4  UNL     1      12.707  17.585  16.428  1.00  0.00     0.082 C 
HETATM    5  C5  UNL     1      13.839  17.006  15.605  1.00  0.00     0.241 C 
HETATM    6  C6  UNL     1      13.543  15.552  15.603  1.00  0.00     0.292 C 
HETATM    7  O4  UNL     1      12.176  15.473  15.647  1.00  0.00    -0.342 OA
ENDROOT
BRANCH   5   8
HETATM    8  N1  UNL     1      13.829  17.518  14.251  1.00  0.00    -0.070 N 
ATOM      9  H13 UNL     1      14.732  17.382  13.795  1.00  0.00     0.274 HD
ATOM     10  H12 UNL     1      13.253  16.941  13.638  1.00  0.00     0.274 HD
ATOM     11  H11 UNL     1      13.540  18.496  14.221  1.00  0.00     0.274 HD
ENDBRANCH   5   8
BRANCH   6  12
HETATM   12  O1  UNL     1      14.205  14.811  16.547  1.00  0.00    -0.349 OA
BRANCH  12  13
HETATM   13  C7  UNL     1      15.429  15.296  16.920  1.00  0.00     0.186 C 
HETATM   14  C8  UNL     1      15.848  14.780  18.280  1.00  0.00     0.217 C 
HETATM   15  C9  UNL     1      17.275  14.287  18.277  1.00  0.00     0.071 C 
HETATM   16  C10 UNL     1      18.151  15.315  17.579  1.00  0.00     0.217 C 
HETATM   17  C11 UNL     1      17.791  15.464  16.114  1.00  0.00     0.183 C 
HETATM   18  C23 UNL     1      16.464  14.741  15.928  1.00  0.00     0.180 C 
BRANCH  14  19
HETATM   19  N2  UNL     1      15.009  13.709  18.750  1.00  0.00    -0.072 N 
ATOM     20  H23 UNL     1      15.346  13.343  19.640  1.00  0.00     0.274 HD
ATOM     21  H22 UNL     1      14.100  14.061  19.050  1.00  0.00     0.274 HD
ATOM     22  H21 UNL     1      14.905  12.962  18.063  1.00  0.00     0.274 HD
ENDBRANCH  14  19
BRANCH  16  23
HETATM   23  N3  UNL     1      17.987  16.560  18.307  1.00  0.00    -0.072 N 
ATOM     24  H33 UNL     1      18.765  16.768  18.933  1.00  0.00     0.274 HD
ATOM     25  H32 UNL     1      18.075  17.387  17.717  1.00  0.00     0.274 HD
ATOM     26  H31 UNL     1      17.089  16.500  18.786  1.00  0.00     0.274 HD
ENDBRANCH  16  23
BRANCH  17  27
HETATM   27  O2  UNL     1      18.795  14.898  15.374  1.00  0.00    -0.374 OA
BRANCH  27  28
HETATM   28  C12 UNL     1      18.643  13.528  15.130  1.00  0.00     0.153 C 
HETATM   29  C13 UNL     1      19.581  12.830  16.065  1.00  0.00     0.042 C 
HETATM   30  C14 UNL     1      19.849  11.358  15.688  1.00  0.00     0.011 C 
HETATM   31  C20 UNL     1      18.756  10.924  14.786  1.00  0.00     0.011 C 
HETATM   32  C21 UNL     1      18.807  11.694  13.502  1.00  0.00     0.036 C 
HETATM   33  C22 UNL     1      18.982  13.174  13.720  1.00  0.00     0.212 C 
BRANCH  30  34
HETATM   34  C15 UNL     1      21.243  11.181  15.283  1.00  0.00    -0.020 C 
BRANCH  34  35
HETATM   35  C16 UNL     1      21.688  10.539  14.057  1.00  0.00     0.027 C 
HETATM   36  C17 UNL     1      22.682  11.101  13.167  1.00  0.00     0.048 A 
HETATM   37  C18 UNL     1      24.076  10.976  13.294  1.00  0.00     0.118 A 
HETATM   38  N5  UNL     1      22.492  11.777  12.037  1.00  0.00    -0.351 N 
HETATM   39  N4  UNL     1      24.647  11.572  12.251  1.00  0.00    -0.360 N 
HETATM   40  C19 UNL     1      23.670  12.064  11.478  1.00  0.00     0.180 A 
ATOM     41  H4  UNL     1      25.649  11.642  12.072  1.00  0.00     0.166 HD
ATOM     42  H5  UNL     1      21.583  12.037  11.655  1.00  0.00     0.166 HD
ENDBRANCH  34  35
ENDBRANCH  30  34
BRANCH  33  43
HETATM   43  N6  UNL     1      18.123  13.831  12.750  1.00  0.00    -0.073 N 
ATOM     44  H63 UNL     1      18.561  13.851  11.830  1.00  0.00     0.274 HD
ATOM     45  H62 UNL     1      17.309  13.256  12.535  1.00  0.00     0.274 HD
ATOM     46  H61 UNL     1      17.842  14.768  13.040  1.00  0.00     0.274 HD
ENDBRANCH  33  43
ENDBRANCH  27  28
ENDBRANCH  17  27
BRANCH  18  47
HETATM   47  O3  UNL     1      15.905  14.950  14.673  1.00  0.00    -0.390 OA
ATOM     48  H3  UNL     1      15.039  14.561  14.723  1.00  0.00     0.210 HD
ENDBRANCH  18  47
ENDBRANCH  12  13
ENDBRANCH   6  12
TORSDOF 11
ENDMDL
MODEL 4
REMARK VINA RESULT: -7.719729204      1.476      1.870
REMARK  11 active torsions:
REMARK  status: ('A' for Active; 'I' for Inactive)
REMARK    1  A    between atoms: C5_5  and  N1_6 
REMARK    2  A    between atoms: C6_10  and  O1_11 
REMARK    3  A    between atoms: O1_11  and  C7_12 
REMARK    4  A    between atoms: C8_13  and  N2_14 
REMARK    5  A    between atoms: C10_19  and  N3_20 
REMARK    6  A    between atoms: C11_24  and  O2_25 
REMARK    7  A    between atoms: O2_25  and  C12_26 
REMARK    8  A    between atoms: C14_28  and  C15_29 
REMARK    9  A    between atoms: C15_29  and  C16_30 
REMARK   10  A    between atoms: C22_40  and  N6_41 
REMARK   11  A    between atoms: C23_45  and  O3_46 
ROOT
HETATM    1  C1  UNL     1      12.610  14.012  17.848  1.00  0.00     0.015 C 
HETATM    2  C2  UNL     1      12.697  14.760  16.910  1.00  0.00    -0.085 C 
HETATM    3  C3  UNL     1      12.778  15.648  15.781  1.00  0.00     0.204 C 
HETATM    4  C4  UNL     1      12.201  17.019  16.145  1.00  0.00     0.082 C 
HETATM    5  C5  UNL     1      13.459  17.774  16.519  1.00  0.00     0.241 C 
HETATM    6  C6  UNL     1      14.520  16.745  16.390  1.00  0.00     0.292 C 
HETATM    7  O4  UNL     1      14.090  15.924  15.381  1.00  0.00    -0.342 OA
ENDROOT
BRANCH   5   8
HETATM    8  N1  UNL     1      13.714  18.870  15.607  1.00  0.00    -0.070 N 
ATOM      9  H13 UNL     1      13.838  18.537  14.651  1.00  0.00     0.274 HD
ATOM     10  H12 UNL     1      12.881  19.442  15.470  1.00  0.00     0.274 HD
ATOM     11  H11 UNL     1      14.507  19.435  15.912  1.00  0.00     0.274 HD
ENDBRANCH   5   8
BRANCH   6  12
HETATM   12  O1  UNL     1      14.875  16.110  17.552  1.00  0.00    -0.349 OA
BRANCH  12  13
HETATM   13  C7  UNL     1      16.207  16.156  17.861  1.00  0.00     0.186 C 
HETATM   14  C8  UNL     1      16.434  16.395  19.339  1.00  0.00     0.217 C 
HETATM   15  C9  UNL     1      17.465  15.450  19.907  1.00  0.00     0.071 C 
HETATM   16  C10 UNL     1      18.666  15.412  18.976  1.00  0.00     0.217 C 
HETATM   17  C11 UNL     1      18.313  14.829  17.622  1.00  0.00     0.183 C 
HETATM   18  C23 UNL     1      16.793  14.765  17.571  1.00  0.00     0.180 C 
BRANCH  14  19
HETATM   19  N2  UNL     1      15.229  16.257  20.115  1.00  0.00    -0.072 N 
ATOM     20  H23 UNL     1      14.696  17.127  20.120  1.00  0.00     0.274 HD
ATOM     21  H22 UNL     1      14.556  15.655  19.641  1.00  0.00     0.274 HD
ATOM     22  H21 UNL     1      15.408  15.932  21.064  1.00  0.00     0.274 HD
ENDBRANCH  14  19
BRANCH  16  23
HETATM   23  N3  UNL     1      19.150  16.776  18.870  1.00  0.00    -0.072 N 
ATOM     24  H33 UNL     1      18.426  17.442  18.601  1.00  0.00     0.274 HD
ATOM     25  H32 UNL     1      19.380  17.194  19.771  1.00  0.00     0.274 HD
ATOM     26  H31 UNL     1      19.938  16.754  18.222  1.00  0.00     0.274 HD
ENDBRANCH  16  23
BRANCH  17  27
HETATM   27  O2  UNL     1      18.885  13.587  17.537  1.00  0.00    -0.374 OA
BRANCH  27  28
HETATM   28  C12 UNL     1      18.787  12.983  16.277  1.00  0.00     0.153 C 
HETATM   29  C13 UNL     1      19.416  11.631  16.413  1.00  0.00     0.042 C 
HETATM   30  C14 UNL     1      19.758  10.968  15.063  1.00  0.00     0.011 C 
HETATM   31  C20 UNL     1      18.955  11.648  14.018  1.00  0.00     0.011 C 
HETATM   32  C21 UNL     1      19.375  13.081  13.893  1.00  0.00     0.036 C 
HETATM   33  C22 UNL     1      19.502  13.767  15.227  1.00  0.00     0.212 C 
BRANCH  30  34
HETATM   34  C15 UNL     1      21.207  10.848  14.905  1.00  0.00    -0.020 C 
BRANCH  34  35
HETATM   35  C16 UNL     1      21.885  10.312  13.736  1.00  0.00     0.027 C 
HETATM   36  C17 UNL     1      22.941  11.006  13.029  1.00  0.00     0.048 A 
HETATM   37  C18 UNL     1      24.307  10.997  13.358  1.00  0.00     0.118 A 
HETATM   38  N5  UNL     1      22.855  11.721  11.910  1.00  0.00    -0.351 N 
HETATM   39  N4  UNL     1      24.965  11.694  12.437  1.00  0.00    -0.360 N 
HETATM   40  C19 UNL     1      24.069  12.139  11.546  1.00  0.00     0.180 A 
ATOM     41  H4  UNL     1      25.971  11.860  12.414  1.00  0.00     0.166 HD
ATOM     42  H5  UNL     1      21.991  11.920  11.406  1.00  0.00     0.166 HD
ENDBRANCH  34  35
ENDBRANCH  30  34
BRANCH  33  43
HETATM   43  N6  UNL     1      18.959  15.102  15.051  1.00  0.00    -0.073 N 
ATOM     44  H63 UNL     1      18.100  15.220  15.588  1.00  0.00     0.274 HD
ATOM     45  H62 UNL     1      19.542  15.797  15.516  1.00  0.00     0.274 HD
ATOM     46  H61 UNL     1      18.813  15.345  14.071  1.00  0.00     0.274 HD
ENDBRANCH  33  43
ENDBRANCH  27  28
ENDBRANCH  17  27
BRANCH  18  47
HETATM   47  O3  UNL     1      16.307  14.428  16.313  1.00  0.00    -0.390 OA
ATOM     48  H3  UNL     1      16.253  15.252  15.843  1.00  0.00     0.210 HD
ENDBRANCH  18  47
ENDBRANCH  12  13
ENDBRANCH   6  12
TORSDOF 11
ENDMDL
MODEL 5
REMARK VINA RESULT: -6.922730470      1.419      2.044
REMARK  11 active torsions:
REMARK  status: ('A' for Active; 'I' for Inactive)
REMARK    1  A    between atoms: C5_5  and  N1_6 
REMARK    2  A    between atoms: C6_10  and  O1_11 
REMARK    3  A    between atoms: O1_11  and  C7_12 
REMARK    4  A    between atoms: C8_13  and  N2_14 
REMARK    5  A    between atoms: C10_19  and  N3_20 
REMARK    6  A    between atoms: C11_24  and  O2_25 
REMARK    7  A    between atoms: O2_25  and  C12_26 
REMARK    8  A    between atoms: C14_28  and  C15_29 
REMARK    9  A    between atoms: C15_29  and  C16_30 
REMARK   10  A    between atoms: C22_40  and  N6_41 
REMARK   11  A    between atoms: C23_45  and  O3_46 
ROOT
HETATM    1  C1  UNL     1      13.885  15.842  14.290  1.00  0.00     0.015 C 
HETATM    2  C2  UNL     1      13.471  16.460  15.236  1.00  0.00    -0.085 C 
HETATM    3  C3  UNL     1      12.960  17.210  16.352  1.00  0.00     0.204 C 
HETATM    4  C4  UNL     1      11.756  16.489  16.966  1.00  0.00     0.082 C 
HETATM    5  C5  UNL     1      12.419  15.728  18.095  1.00  0.00     0.241 C 
HETATM    6  C6  UNL     1      13.856  16.054  17.923  1.00  0.00     0.292 C 
HETATM    7  O4  UNL     1      13.867  17.324  17.411  1.00  0.00    -0.342 OA
ENDROOT
BRANCH   5   8
HETATM    8  N1  UNL     1      11.956  16.184  19.390  1.00  0.00    -0.070 N 
ATOM      9  H13 UNL     1      12.717  16.584  19.937  1.00  0.00     0.274 HD
ATOM     10  H12 UNL     1      11.369  17.014  19.304  1.00  0.00     0.274 HD
ATOM     11  H11 UNL     1      11.478  15.441  19.900  1.00  0.00     0.274 HD
ENDBRANCH   5   8
BRANCH   6  12
HETATM   12  O1  UNL     1      14.593  15.133  17.225  1.00  0.00    -0.349 OA
BRANCH  12  13
HETATM   13  C7  UNL     1      15.946  15.336  17.236  1.00  0.00     0.186 C 
HETATM   14  C8  UNL     1      16.444  15.735  18.610  1.00  0.00     0.217 C 
HETATM   15  C9  UNL     1      17.672  14.953  19.009  1.00  0.00     0.071 C 
HETATM   16  C10 UNL     1      18.652  14.943  17.847  1.00  0.00     0.217 C 
HETATM   17  C11 UNL     1      18.096  14.203  16.646  1.00  0.00     0.183 C 
HETATM   18  C23 UNL     1      16.616  13.988  16.928  1.00  0.00     0.180 C 
BRANCH  14  19
HETATM   19  N2  UNL     1      15.449  15.556  19.634  1.00  0.00    -0.072 N 
ATOM     20  H23 UNL     1      14.517  15.774  19.281  1.00  0.00     0.274 HD
ATOM     21  H22 UNL     1      15.317  14.567  19.847  1.00  0.00     0.274 HD
ATOM     22  H21 UNL     1      15.655  16.089  20.479  1.00  0.00     0.274 HD
ENDBRANCH  14  19
BRANCH  16  23
HETATM   23  N3  UNL     1      18.944  16.331  17.540  1.00  0.00    -0.072 N 
ATOM     24  H33 UNL     1      19.522  16.788  18.246  1.00  0.00     0.274 HD
ATOM     25  H32 UNL     1      19.586  16.445  16.757  1.00  0.00     0.274 HD
ATOM     26  H31 UNL     1      18.045  16.792  17.396  1.00  0.00     0.274 HD
ENDBRANCH  16  23
BRANCH  17  27
HETATM   27  O2  UNL     1      18.777  13.020  16.529  1.00  0.00    -0.374 OA
BRANCH  27  28
HETATM   28  C12 UNL     1      18.507  12.302  15.358  1.00  0.00     0.153 C 
HETATM   29  C13 UNL     1      19.247  11.006  15.482  1.00  0.00     0.042 C 
HETATM   30  C14 UNL     1      19.397  10.248  14.147  1.00  0.00     0.011 C 
HETATM   31  C20 UNL     1      18.378  10.785  13.214  1.00  0.00     0.011 C 
HETATM   32  C21 UNL     1      18.664  12.223  12.906  1.00  0.00     0.036 C 
HETATM   33  C22 UNL     1      18.970  13.031  14.140  1.00  0.00     0.212 C 
BRANCH  30  34
HETATM   34  C15 UNL     1      20.802  10.199  13.743  1.00  0.00    -0.020 C 
BRANCH  34  35
HETATM   35  C16 UNL     1      21.832  11.135  14.163  1.00  0.00     0.027 C 
HETATM   36  C17 UNL     1      23.170  11.162  13.611  1.00  0.00     0.048 A 
HETATM   37  C18 UNL     1      23.572  11.826  12.439  1.00  0.00     0.118 A 
HETATM   38  N5  UNL     1      24.283  10.638  14.117  1.00  0.00    -0.351 N 
HETATM   39  N4  UNL     1      24.885  11.672  12.301  1.00  0.00    -0.360 N 
HETATM   40  C19 UNL     1      25.321  10.940  13.335  1.00  0.00     0.180 A 
ATOM     41  H4  UNL     1      25.458  12.045  11.543  1.00  0.00     0.166 HD
ATOM     42  H5  UNL     1      24.335  10.087  14.973  1.00  0.00     0.166 HD
ENDBRANCH  34  35
ENDBRANCH  30  34
BRANCH  33  43
HETATM   43  N6  UNL     1      18.309  14.311  13.962  1.00  0.00    -0.073 N 
ATOM     44  H63 UNL     1      18.825  14.901  13.310  1.00  0.00     0.274 HD
ATOM     45  H62 UNL     1      17.441  14.204  13.438  1.00  0.00     0.274 HD
ATOM     46  H61 UNL     1      18.145  14.799  14.844  1.00  0.00     0.274 HD
ENDBRANCH  33  43
ENDBRANCH  27  28
ENDBRANCH  17  27
BRANCH  18  47
HETATM   47  O3  UNL     1      15.923  13.488  15.832  1.00  0.00    -0.390 OA
ATOM     48  H3  UNL     1      15.912  12.546  15.958  1.00  0.00     0.210 HD
ENDBRANCH  18  47
ENDBRANCH  12  13
ENDBRANCH   6  12
TORSDOF 11
ENDMDL
