MODEL 1
REMARK VINA RESULT: -6.617107247      0.000      0.000
REMARK  16 active torsions:
REMARK  status: ('A' for Active; 'I' for Inactive)
REMARK    1  A    between atoms: C2_2  and  O2_4 
REMARK    2  A    between atoms: O2_4  and  C3_5 
REMARK    3  A    between atoms: C4_8  and  C5_9 
REMARK    4  A    between atoms: C5_9  and  S3_10 
REMARK    5  A    between atoms: S3_10  and  C6_13 
REMARK    6  A    between atoms: C6_13  and  C7_14 
REMARK    7  A    between atoms: C6_13  and  C8_17 
REMARK    8  A    between atoms: C8_17  and  O7_18 
REMARK    9  A    between atoms: C8_17  and  O8_20 
REMARK   10  A    between atoms: C9_22  and  C10_23 
REMARK   11  A    between atoms: C12_29  and  N2_30 
REMARK       I    between atoms: N2_30  and  C13_32 
REMARK   12  A    between atoms: C13_32  and  C14_34 
REMARK   13  A    between atoms: C14_34  and  C15_35 
REMARK   14  A    between atoms: C16_36  and  O13_37 
REMARK   15  A    between atoms: N5_43  and  C17_44 
REMARK   16  A    between atoms: C21_48  and  O14_49 
ROOT
HETATM    1  C3  UNL     1      70.766  34.796  67.383  1.00  0.00     0.242 C 
HETATM    2  S1  UNL     1      72.223  34.178  66.423  1.00  0.00    -0.028 SA
HETATM    3  S2  UNL     1      71.471  34.197  64.445  1.00  0.00    -0.054 SA
HETATM    4  C4  UNL     1      70.096  35.398  64.457  1.00  0.00     0.037 C 
HETATM    5  C9  UNL     1      69.774  36.158  65.474  1.00  0.00     0.132 C 
HETATM    6  N1  UNL     1      70.466  36.080  66.752  1.00  0.00    -0.263 N 
HETATM    7  C11 UNL     1      70.944  37.131  67.559  1.00  0.00     0.253 C 
HETATM    8  O11 UNL     1      71.057  38.361  67.223  1.00  0.00    -0.270 OA
HETATM    9  C12 UNL     1      71.321  36.640  68.893  1.00  0.00     0.211 C 
HETATM   10  C21 UNL     1      71.126  35.136  68.758  1.00  0.00     0.219 C 
ENDROOT
BRANCH   9  11
HETATM   11  N2  UNL     1      70.479  37.177  69.938  1.00  0.00    -0.345 N 
HETATM   12  C13 UNL     1      70.874  37.178  71.286  1.00  0.00     0.224 C 
HETATM   13  O12 UNL     1      71.977  36.686  71.573  1.00  0.00    -0.273 OA
ATOM     14  H2  UNL     1      69.570  37.569  69.690  1.00  0.00     0.163 HD
BRANCH  12  15
HETATM   15  C14 UNL     1      70.016  37.745  72.377  1.00  0.00     0.166 C 
BRANCH  15  16
HETATM   16  C15 UNL     1      70.431  39.086  72.806  1.00  0.00     0.091 A 
HETATM   17  C16 UNL     1      69.590  40.181  72.560  1.00  0.00     0.181 A 
HETATM   18  N3  UNL     1      70.222  41.259  73.037  1.00  0.00    -0.264 N 
HETATM   19  N4  UNL     1      71.352  40.859  73.534  1.00  0.00    -0.238 N 
ATOM     20  H3  UNL     1      69.879  42.219  73.015  1.00  0.00     0.190 HD
HETATM   21  N5  UNL     1      71.516  39.519  73.408  1.00  0.00    -0.273 N 
ATOM     22  H4  UNL     1      72.035  41.479  73.968  1.00  0.00     0.208 HD
BRANCH  17  23
HETATM   23  O13 UNL     1      68.333  40.162  71.937  1.00  0.00    -0.344 OA
ATOM     24  H13 UNL     1      67.963  40.828  71.371  1.00  0.00     0.219 HD
ENDBRANCH  17  23
BRANCH  21  25
HETATM   25  C17 UNL     1      72.682  38.836  73.859  1.00  0.00     0.109 A 
HETATM   26  C18 UNL     1      73.795  39.583  74.497  1.00  0.00     0.027 A 
HETATM   27  C19 UNL     1      73.744  38.581  75.644  1.00  0.00     0.004 A 
HETATM   28  C20 UNL     1      72.616  37.829  74.939  1.00  0.00     0.027 A 
ENDBRANCH  21  25
ENDBRANCH  15  16
ENDBRANCH  12  15
ENDBRANCH   9  11
BRANCH  10  29
HETATM   29  O14 UNL     1      72.268  34.459  69.221  1.00  0.00    -0.387 OA
ATOM     30  H14 UNL     1      72.867  35.016  69.704  1.00  0.00     0.210 HD
ENDBRANCH  10  29
BRANCH   1  31
HETATM   31  O2  UNL     1      69.789  33.823  67.216  1.00  0.00    -0.275 OA
BRANCH  31  32
HETATM   32  C2  UNL     1      68.725  33.562  68.043  1.00  0.00     0.257 C 
HETATM   33  C1  UNL     1      68.732  32.233  68.734  1.00  0.00     0.126 C 
HETATM   34  O1  UNL     1      67.829  34.422  68.175  1.00  0.00    -0.266 OA
ENDBRANCH  31  32
ENDBRANCH   1  31
BRANCH   5  35
HETATM   35  C10 UNL     1      68.667  37.119  65.421  1.00  0.00     0.228 C 
HETATM   36  O9  UNL     1      67.612  36.867  66.112  1.00  0.00    -0.643 OA
HETATM   37  O10 UNL     1      68.591  38.282  64.723  1.00  0.00    -0.643 OA
ENDBRANCH   5  35
BRANCH   4  38
HETATM   38  C5  UNL     1      69.295  35.368  63.205  1.00  0.00     0.190 C 
BRANCH  38  39
HETATM   39  S3  UNL     1      68.048  34.094  63.246  1.00  0.00     0.167 S 
HETATM   40  O3  UNL     1      66.678  34.637  63.436  1.00  0.00    -0.226 OA
HETATM   41  O4  UNL     1      68.373  33.103  64.320  1.00  0.00    -0.226 OA
BRANCH  39  42
HETATM   42  C6  UNL     1      68.186  33.226  61.682  1.00  0.00     0.263 C 
BRANCH  42  43
HETATM   43  C7  UNL     1      67.548  33.962  60.573  1.00  0.00     0.197 C 
HETATM   44  O5  UNL     1      68.282  34.721  59.849  1.00  0.00    -0.647 OA
HETATM   45  O6  UNL     1      66.199  33.834  60.322  1.00  0.00    -0.647 OA
ENDBRANCH  42  43
BRANCH  42  46
HETATM   46  C8  UNL     1      67.457  31.882  61.809  1.00  0.00     0.282 C 
BRANCH  46  47
HETATM   47  O7  UNL     1      67.328  31.276  60.584  1.00  0.00    -0.370 OA
ATOM     48  H7  UNL     1      66.548  30.735  60.553  1.00  0.00     0.212 HD
ENDBRANCH  46  47
BRANCH  46  49
HETATM   49  O8  UNL     1      66.280  32.124  62.476  1.00  0.00    -0.370 OA
ATOM     50  H8  UNL     1      65.786  31.312  62.472  1.00  0.00     0.212 HD
ENDBRANCH  46  49
ENDBRANCH  42  46
ENDBRANCH  39  42
ENDBRANCH  38  39
ENDBRANCH   4  38
TORSDOF 16
ENDMDL
MODEL 2
REMARK VINA RESULT: -6.299877913      2.138      3.606
REMARK  16 active torsions:
REMARK  status: ('A' for Active; 'I' for Inactive)
REMARK    1  A    between atoms: C2_2  and  O2_4 
REMARK    2  A    between atoms: O2_4  and  C3_5 
REMARK    3  A    between atoms: C4_8  and  C5_9 
REMARK    4  A    between atoms: C5_9  and  S3_10 
REMARK    5  A    between atoms: S3_10  and  C6_13 
REMARK    6  A    between atoms: C6_13  and  C7_14 
REMARK    7  A    between atoms: C6_13  and  C8_17 
REMARK    8  A    between atoms: C8_17  and  O7_18 
REMARK    9  A    between atoms: C8_17  and  O8_20 
REMARK   10  A    between atoms: C9_22  and  C10_23 
REMARK   11  A    between atoms: C12_29  and  N2_30 
REMARK       I    between atoms: N2_30  and  C13_32 
REMARK   12  A    between atoms: C13_32  and  C14_34 
REMARK   13  A    between atoms: C14_34  and  C15_35 
REMARK   14  A    between atoms: C16_36  and  O13_37 
REMARK   15  A    between atoms: N5_43  and  C17_44 
REMARK   16  A    between atoms: C21_48  and  O14_49 
ROOT
HETATM    1  C3  UNL     1      67.891  35.564  65.992  1.00  0.00     0.242 C 
HETATM    2  S1  UNL     1      66.346  34.604  65.647  1.00  0.00    -0.028 SA
HETATM    3  S2  UNL     1      67.003  33.262  64.148  1.00  0.00    -0.054 SA
HETATM    4  C4  UNL     1      68.813  33.146  64.356  1.00  0.00     0.037 C 
HETATM    5  C9  UNL     1      69.493  33.698  65.330  1.00  0.00     0.132 C 
HETATM    6  N1  UNL     1      68.860  34.528  66.345  1.00  0.00    -0.263 N 
HETATM    7  C11 UNL     1      69.038  34.497  67.742  1.00  0.00     0.253 C 
HETATM    8  O11 UNL     1      69.631  33.586  68.417  1.00  0.00    -0.270 OA
HETATM    9  C12 UNL     1      68.438  35.682  68.374  1.00  0.00     0.211 C 
HETATM   10  C21 UNL     1      67.766  36.378  67.199  1.00  0.00     0.219 C 
ENDROOT
BRANCH   9  11
HETATM   11  N2  UNL     1      69.425  36.542  68.988  1.00  0.00    -0.345 N 
HETATM   12  C13 UNL     1      69.771  36.429  70.344  1.00  0.00     0.224 C 
HETATM   13  O12 UNL     1      69.193  35.569  71.027  1.00  0.00    -0.273 OA
ATOM     14  H2  UNL     1      69.885  37.252  68.418  1.00  0.00     0.163 HD
BRANCH  12  15
HETATM   15  C14 UNL     1      70.803  37.306  70.988  1.00  0.00     0.166 C 
BRANCH  15  16
HETATM   16  C15 UNL     1      70.231  38.304  71.899  1.00  0.00     0.091 A 
HETATM   17  C16 UNL     1      69.280  39.216  71.417  1.00  0.00     0.181 A 
HETATM   18  N3  UNL     1      68.953  40.003  72.447  1.00  0.00    -0.264 N 
HETATM   19  N4  UNL     1      69.643  39.608  73.472  1.00  0.00    -0.238 N 
ATOM     20  H3  UNL     1      68.284  40.772  72.430  1.00  0.00     0.190 HD
HETATM   21  N5  UNL     1      70.446  38.559  73.170  1.00  0.00    -0.273 N 
ATOM     22  H4  UNL     1      69.587  40.037  74.396  1.00  0.00     0.208 HD
BRANCH  17  23
HETATM   23  O13 UNL     1      68.767  39.294  70.114  1.00  0.00    -0.344 OA
ATOM     24  H13 UNL     1      68.910  39.989  69.481  1.00  0.00     0.219 HD
ENDBRANCH  17  23
BRANCH  21  25
HETATM   25  C17 UNL     1      71.317  37.952  74.121  1.00  0.00     0.109 A 
HETATM   26  C18 UNL     1      71.158  36.522  74.487  1.00  0.00     0.027 A 
HETATM   27  C19 UNL     1      72.644  36.337  74.207  1.00  0.00     0.004 A 
HETATM   28  C20 UNL     1      72.767  37.820  73.862  1.00  0.00     0.027 A 
ENDBRANCH  21  25
ENDBRANCH  15  16
ENDBRANCH  12  15
ENDBRANCH   9  11
BRANCH  10  29
HETATM   29  O14 UNL     1      66.436  36.696  67.524  1.00  0.00    -0.387 OA
ATOM     30  H14 UNL     1      66.216  37.607  67.368  1.00  0.00     0.210 HD
ENDBRANCH  10  29
BRANCH   1  31
HETATM   31  O2  UNL     1      68.165  36.238  64.809  1.00  0.00    -0.275 OA
BRANCH  31  32
HETATM   32  C2  UNL     1      68.772  37.461  64.671  1.00  0.00     0.257 C 
HETATM   33  C1  UNL     1      70.207  37.541  65.094  1.00  0.00     0.126 C 
HETATM   34  O1  UNL     1      68.117  38.421  64.212  1.00  0.00    -0.266 OA
ENDBRANCH  31  32
ENDBRANCH   1  31
BRANCH   5  35
HETATM   35  C10 UNL     1      70.947  33.558  65.456  1.00  0.00     0.228 C 
HETATM   36  O9  UNL     1      71.407  32.490  66.007  1.00  0.00    -0.643 OA
HETATM   37  O10 UNL     1      71.917  34.422  65.060  1.00  0.00    -0.643 OA
ENDBRANCH   5  35
BRANCH   4  38
HETATM   38  C5  UNL     1      69.476  32.428  63.236  1.00  0.00     0.190 C 
BRANCH  38  39
HETATM   39  S3  UNL     1      69.378  33.343  61.710  1.00  0.00     0.167 S 
HETATM   40  O3  UNL     1      70.516  33.060  60.796  1.00  0.00    -0.226 OA
HETATM   41  O4  UNL     1      69.294  34.808  62.003  1.00  0.00    -0.226 OA
BRANCH  39  42
HETATM   42  C6  UNL     1      67.818  32.875  60.959  1.00  0.00     0.263 C 
BRANCH  42  43
HETATM   43  C7  UNL     1      67.989  31.890  59.874  1.00  0.00     0.197 C 
HETATM   44  O5  UNL     1      68.121  30.656  60.192  1.00  0.00    -0.647 OA
HETATM   45  O6  UNL     1      68.006  32.285  58.555  1.00  0.00    -0.647 OA
ENDBRANCH  42  43
BRANCH  42  46
HETATM   46  C8  UNL     1      67.186  34.126  60.335  1.00  0.00     0.282 C 
BRANCH  46  47
HETATM   47  O7  UNL     1      66.012  33.816  59.694  1.00  0.00    -0.370 OA
ATOM     48  H7  UNL     1      65.797  34.474  59.043  1.00  0.00     0.212 HD
ENDBRANCH  46  47
BRANCH  46  49
HETATM   49  O8  UNL     1      68.150  34.716  59.552  1.00  0.00    -0.370 OA
ATOM     50  H8  UNL     1      68.978  34.308  59.775  1.00  0.00     0.212 HD
ENDBRANCH  46  49
ENDBRANCH  42  46
ENDBRANCH  39  42
ENDBRANCH  38  39
ENDBRANCH   4  38
TORSDOF 16
ENDMDL
MODEL 3
REMARK VINA RESULT: -6.298700285      2.035      2.891
REMARK  16 active torsions:
REMARK  status: ('A' for Active; 'I' for Inactive)
REMARK    1  A    between atoms: C2_2  and  O2_4 
REMARK    2  A    between atoms: O2_4  and  C3_5 
REMARK    3  A    between atoms: C4_8  and  C5_9 
REMARK    4  A    between atoms: C5_9  and  S3_10 
REMARK    5  A    between atoms: S3_10  and  C6_13 
REMARK    6  A    between atoms: C6_13  and  C7_14 
REMARK    7  A    between atoms: C6_13  and  C8_17 
REMARK    8  A    between atoms: C8_17  and  O7_18 
REMARK    9  A    between atoms: C8_17  and  O8_20 
REMARK   10  A    between atoms: C9_22  and  C10_23 
REMARK   11  A    between atoms: C12_29  and  N2_30 
REMARK       I    between atoms: N2_30  and  C13_32 
REMARK   12  A    between atoms: C13_32  and  C14_34 
REMARK   13  A    between atoms: C14_34  and  C15_35 
REMARK   14  A    between atoms: C16_36  and  O13_37 
REMARK   15  A    between atoms: N5_43  and  C17_44 
REMARK   16  A    between atoms: C21_48  and  O14_49 
ROOT
HETATM    1  C3  UNL     1      68.331  34.179  66.716  1.00  0.00     0.242 C 
HETATM    2  S1  UNL     1      68.077  32.352  66.871  1.00  0.00    -0.028 SA
HETATM    3  S2  UNL     1      68.423  31.704  64.887  1.00  0.00    -0.054 SA
HETATM    4  C4  UNL     1      69.449  33.004  64.119  1.00  0.00     0.037 C 
HETATM    5  C9  UNL     1      69.947  34.037  64.753  1.00  0.00     0.132 C 
HETATM    6  N1  UNL     1      69.680  34.286  66.162  1.00  0.00    -0.263 N 
HETATM    7  C11 UNL     1      70.587  34.644  67.179  1.00  0.00     0.253 C 
HETATM    8  O11 UNL     1      71.864  34.610  67.110  1.00  0.00    -0.270 OA
HETATM    9  C12 UNL     1      69.873  35.080  68.390  1.00  0.00     0.211 C 
HETATM   10  C21 UNL     1      68.418  34.828  68.023  1.00  0.00     0.219 C 
ENDROOT
BRANCH   9  11
HETATM   11  N2  UNL     1      70.096  36.477  68.690  1.00  0.00    -0.345 N 
HETATM   12  C13 UNL     1      69.820  37.019  69.956  1.00  0.00     0.224 C 
HETATM   13  O12 UNL     1      69.360  36.266  70.828  1.00  0.00    -0.273 OA
ATOM     14  H2  UNL     1      70.464  37.087  67.960  1.00  0.00     0.163 HD
BRANCH  12  15
HETATM   15  C14 UNL     1      70.059  38.463  70.283  1.00  0.00     0.166 C 
BRANCH  15  16
HETATM   16  C15 UNL     1      70.324  38.701  71.707  1.00  0.00     0.091 A 
HETATM   17  C16 UNL     1      69.474  39.545  72.436  1.00  0.00     0.181 A 
HETATM   18  N3  UNL     1      69.960  39.588  73.681  1.00  0.00    -0.264 N 
HETATM   19  N4  UNL     1      71.016  38.835  73.713  1.00  0.00    -0.238 N 
ATOM     20  H3  UNL     1      69.572  40.116  74.463  1.00  0.00     0.190 HD
HETATM   21  N5  UNL     1      71.272  38.269  72.508  1.00  0.00    -0.273 N 
ATOM     22  H4  UNL     1      71.585  38.685  74.546  1.00  0.00     0.208 HD
BRANCH  17  23
HETATM   23  O13 UNL     1      68.337  40.217  71.963  1.00  0.00    -0.344 OA
ATOM     24  H13 UNL     1      67.881  40.938  72.382  1.00  0.00     0.219 HD
ENDBRANCH  17  23
BRANCH  21  25
HETATM   25  C17 UNL     1      72.387  37.412  72.276  1.00  0.00     0.109 A 
HETATM   26  C18 UNL     1      73.660  37.613  73.013  1.00  0.00     0.027 A 
HETATM   27  C19 UNL     1      73.623  36.134  73.378  1.00  0.00     0.004 A 
HETATM   28  C20 UNL     1      72.326  35.969  72.587  1.00  0.00     0.027 A 
ENDBRANCH  21  25
ENDBRANCH  15  16
ENDBRANCH  12  15
ENDBRANCH   9  11
BRANCH  10  29
HETATM   29  O14 UNL     1      67.781  34.107  69.049  1.00  0.00    -0.387 OA
ATOM     30  H14 UNL     1      67.307  34.658  69.660  1.00  0.00     0.210 HD
ENDBRANCH  10  29
BRANCH   1  31
HETATM   31  O2  UNL     1      67.318  34.611  65.870  1.00  0.00    -0.275 OA
BRANCH  31  32
HETATM   32  C2  UNL     1      66.783  35.873  65.791  1.00  0.00     0.257 C 
HETATM   33  C1  UNL     1      65.302  35.978  65.990  1.00  0.00     0.126 C 
HETATM   34  O1  UNL     1      67.535  36.843  65.564  1.00  0.00    -0.266 OA
ENDBRANCH  31  32
ENDBRANCH   1  31
BRANCH   5  35
HETATM   35  C10 UNL     1      70.779  35.045  64.088  1.00  0.00     0.228 C 
HETATM   36  O9  UNL     1      70.252  36.188  63.824  1.00  0.00    -0.643 OA
HETATM   37  O10 UNL     1      72.075  34.944  63.696  1.00  0.00    -0.643 OA
ENDBRANCH   5  35
BRANCH   4  38
HETATM   38  C5  UNL     1      69.594  32.832  62.650  1.00  0.00     0.190 C 
BRANCH  38  39
HETATM   39  S3  UNL     1      68.154  33.404  61.770  1.00  0.00     0.167 S 
HETATM   40  O3  UNL     1      67.927  34.864  61.925  1.00  0.00    -0.226 OA
HETATM   41  O4  UNL     1      66.949  32.636  62.217  1.00  0.00    -0.226 OA
BRANCH  39  42
HETATM   42  C6  UNL     1      68.431  32.975  60.049  1.00  0.00     0.263 C 
BRANCH  42  43
HETATM   43  C7  UNL     1      69.224  33.995  59.337  1.00  0.00     0.197 C 
HETATM   44  O5  UNL     1      70.460  33.749  59.107  1.00  0.00    -0.647 OA
HETATM   45  O6  UNL     1      68.652  35.180  58.929  1.00  0.00    -0.647 OA
ENDBRANCH  42  43
BRANCH  42  46
HETATM   46  C8  UNL     1      67.069  32.892  59.346  1.00  0.00     0.282 C 
BRANCH  46  47
HETATM   47  O7  UNL     1      67.219  32.930  57.982  1.00  0.00    -0.370 OA
ATOM     48  H7  UNL     1      66.514  32.463  57.550  1.00  0.00     0.212 HD
ENDBRANCH  46  47
BRANCH  46  49
HETATM   49  O8  UNL     1      66.278  33.879  59.883  1.00  0.00    -0.370 OA
ATOM     50  H8  UNL     1      65.429  33.816  59.461  1.00  0.00     0.212 HD
ENDBRANCH  46  49
ENDBRANCH  42  46
ENDBRANCH  39  42
ENDBRANCH  38  39
ENDBRANCH   4  38
TORSDOF 16
ENDMDL
MODEL 4
REMARK VINA RESULT: -6.284112325      2.094      3.484
REMARK  16 active torsions:
REMARK  status: ('A' for Active; 'I' for Inactive)
REMARK    1  A    between atoms: C2_2  and  O2_4 
REMARK    2  A    between atoms: O2_4  and  C3_5 
REMARK    3  A    between atoms: C4_8  and  C5_9 
REMARK    4  A    between atoms: C5_9  and  S3_10 
REMARK    5  A    between atoms: S3_10  and  C6_13 
REMARK    6  A    between atoms: C6_13  and  C7_14 
REMARK    7  A    between atoms: C6_13  and  C8_17 
REMARK    8  A    between atoms: C8_17  and  O7_18 
REMARK    9  A    between atoms: C8_17  and  O8_20 
REMARK   10  A    between atoms: C9_22  and  C10_23 
REMARK   11  A    between atoms: C12_29  and  N2_30 
REMARK       I    between atoms: N2_30  and  C13_32 
REMARK   12  A    between atoms: C13_32  and  C14_34 
REMARK   13  A    between atoms: C14_34  and  C15_35 
REMARK   14  A    between atoms: C16_36  and  O13_37 
REMARK   15  A    between atoms: N5_43  and  C17_44 
REMARK   16  A    between atoms: C21_48  and  O14_49 
ROOT
HETATM    1  C3  UNL     1      70.632  36.252  66.191  1.00  0.00     0.242 C 
HETATM    2  S1  UNL     1      70.055  36.896  64.553  1.00  0.00    -0.028 SA
HETATM    3  S2  UNL     1      69.372  35.125  63.617  1.00  0.00    -0.054 SA
HETATM    4  C4  UNL     1      68.998  33.966  64.976  1.00  0.00     0.037 C 
HETATM    5  C9  UNL     1      69.039  34.267  66.250  1.00  0.00     0.132 C 
HETATM    6  N1  UNL     1      69.449  35.580  66.725  1.00  0.00    -0.263 N 
HETATM    7  C11 UNL     1      68.840  36.392  67.703  1.00  0.00     0.253 C 
HETATM    8  O11 UNL     1      67.678  36.229  68.215  1.00  0.00    -0.270 OA
HETATM    9  C12 UNL     1      69.724  37.502  68.089  1.00  0.00     0.211 C 
HETATM   10  C21 UNL     1      70.899  37.334  67.136  1.00  0.00     0.219 C 
ENDROOT
BRANCH   9  11
HETATM   11  N2  UNL     1      70.159  37.410  69.465  1.00  0.00    -0.345 N 
HETATM   12  C13 UNL     1      69.609  38.217  70.475  1.00  0.00     0.224 C 
HETATM   13  O12 UNL     1      68.734  39.038  70.157  1.00  0.00    -0.273 OA
ATOM     14  H2  UNL     1      70.886  36.739  69.711  1.00  0.00     0.163 HD
BRANCH  12  15
HETATM   15  C14 UNL     1      70.041  38.122  71.907  1.00  0.00     0.166 C 
BRANCH  15  16
HETATM   16  C15 UNL     1      70.494  39.402  72.464  1.00  0.00     0.091 A 
HETATM   17  C16 UNL     1      69.566  40.435  72.664  1.00  0.00     0.181 A 
HETATM   18  N3  UNL     1      70.252  41.471  73.159  1.00  0.00    -0.264 N 
HETATM   19  N4  UNL     1      71.493  41.104  73.255  1.00  0.00    -0.238 N 
ATOM     20  H3  UNL     1      69.871  42.381  73.413  1.00  0.00     0.190 HD
HETATM   21  N5  UNL     1      71.680  39.830  72.833  1.00  0.00    -0.273 N 
ATOM     22  H4  UNL     1      72.239  41.704  73.606  1.00  0.00     0.208 HD
BRANCH  17  23
HETATM   23  O13 UNL     1      68.189  40.400  72.400  1.00  0.00    -0.344 OA
ATOM     24  H13 UNL     1      67.543  41.057  72.631  1.00  0.00     0.219 HD
ENDBRANCH  17  23
BRANCH  21  25
HETATM   25  C17 UNL     1      72.957  39.197  72.822  1.00  0.00     0.109 A 
HETATM   26  C18 UNL     1      74.201  40.006  72.890  1.00  0.00     0.027 A 
HETATM   27  C19 UNL     1      74.661  39.109  74.033  1.00  0.00     0.004 A 
HETATM   28  C20 UNL     1      73.377  38.290  73.910  1.00  0.00     0.027 A 
ENDBRANCH  21  25
ENDBRANCH  15  16
ENDBRANCH  12  15
ENDBRANCH   9  11
BRANCH  10  29
HETATM   29  O14 UNL     1      71.193  38.561  66.514  1.00  0.00    -0.387 OA
ATOM     30  H14 UNL     1      70.838  39.312  66.973  1.00  0.00     0.210 HD
ENDBRANCH  10  29
BRANCH   1  31
HETATM   31  O2  UNL     1      71.694  35.409  65.890  1.00  0.00    -0.275 OA
BRANCH  31  32
HETATM   32  C2  UNL     1      72.758  35.092  66.697  1.00  0.00     0.257 C 
HETATM   33  C1  UNL     1      74.087  35.652  66.292  1.00  0.00     0.126 C 
HETATM   34  O1  UNL     1      72.571  34.373  67.700  1.00  0.00    -0.266 OA
ENDBRANCH  31  32
ENDBRANCH   1  31
BRANCH   5  35
HETATM   35  C10 UNL     1      68.712  33.297  67.301  1.00  0.00     0.228 C 
HETATM   36  O9  UNL     1      69.683  32.750  67.943  1.00  0.00    -0.643 OA
HETATM   37  O10 UNL     1      67.488  32.877  67.712  1.00  0.00    -0.643 OA
ENDBRANCH   5  35
BRANCH   4  38
HETATM   38  C5  UNL     1      68.728  32.585  64.497  1.00  0.00     0.190 C 
BRANCH  38  39
HETATM   39  S3  UNL     1      67.018  32.359  64.052  1.00  0.00     0.167 S 
HETATM   40  O3  UNL     1      66.819  32.218  62.585  1.00  0.00    -0.226 OA
HETATM   41  O4  UNL     1      66.202  33.496  64.584  1.00  0.00    -0.226 OA
BRANCH  39  42
HETATM   42  C6  UNL     1      66.478  30.884  64.919  1.00  0.00     0.263 C 
BRANCH  42  43
HETATM   43  C7  UNL     1      66.599  29.669  64.090  1.00  0.00     0.197 C 
HETATM   44  O5  UNL     1      67.763  29.161  63.929  1.00  0.00    -0.647 OA
HETATM   45  O6  UNL     1      65.491  29.096  63.508  1.00  0.00    -0.647 OA
ENDBRANCH  42  43
BRANCH  42  46
HETATM   46  C8  UNL     1      64.992  31.045  65.268  1.00  0.00     0.282 C 
BRANCH  46  47
HETATM   47  O7  UNL     1      64.288  31.540  64.198  1.00  0.00    -0.370 OA
ATOM     48  H7  UNL     1      63.365  31.625  64.410  1.00  0.00     0.212 HD
ENDBRANCH  46  47
BRANCH  46  49
HETATM   49  O8  UNL     1      64.928  31.795  66.418  1.00  0.00    -0.370 OA
ATOM     50  H8  UNL     1      64.596  31.226  67.103  1.00  0.00     0.212 HD
ENDBRANCH  46  49
ENDBRANCH  42  46
ENDBRANCH  39  42
ENDBRANCH  38  39
ENDBRANCH   4  38
TORSDOF 16
ENDMDL
MODEL 5
REMARK VINA RESULT: -6.239630572      1.382      2.043
REMARK  16 active torsions:
REMARK  status: ('A' for Active; 'I' for Inactive)
REMARK    1  A    between atoms: C2_2  and  O2_4 
REMARK    2  A    between atoms: O2_4  and  C3_5 
REMARK    3  A    between atoms: C4_8  and  C5_9 
REMARK    4  A    between atoms: C5_9  and  S3_10 
REMARK    5  A    between atoms: S3_10  and  C6_13 
REMARK    6  A    between atoms: C6_13  and  C7_14 
REMARK    7  A    between atoms: C6_13  and  C8_17 
REMARK    8  A    between atoms: C8_17  and  O7_18 
REMARK    9  A    between atoms: C8_17  and  O8_20 
REMARK   10  A    between atoms: C9_22  and  C10_23 
REMARK   11  A    between atoms: C12_29  and  N2_30 
REMARK       I    between atoms: N2_30  and  C13_32 
REMARK   12  A    between atoms: C13_32  and  C14_34 
REMARK   13  A    between atoms: C14_34  and  C15_35 
REMARK   14  A    between atoms: C16_36  and  O13_37 
REMARK   15  A    between atoms: N5_43  and  C17_44 
REMARK   16  A    between atoms: C21_48  and  O14_49 
ROOT
HETATM    1  C3  UNL     1      70.166  34.360  68.555  1.00  0.00     0.242 C 
HETATM    2  S1  UNL     1      71.458  33.528  67.523  1.00  0.00    -0.028 SA
HETATM    3  S2  UNL     1      70.433  33.259  65.692  1.00  0.00    -0.054 SA
HETATM    4  C4  UNL     1      69.102  34.508  65.688  1.00  0.00     0.037 C 
HETATM    5  C9  UNL     1      68.945  35.438  66.598  1.00  0.00     0.132 C 
HETATM    6  N1  UNL     1      69.810  35.537  67.764  1.00  0.00    -0.263 N 
HETATM    7  C11 UNL     1      70.422  36.683  68.310  1.00  0.00     0.253 C 
HETATM    8  O11 UNL     1      70.514  37.835  67.761  1.00  0.00    -0.270 OA
HETATM    9  C12 UNL     1      70.972  36.398  69.645  1.00  0.00     0.211 C 
HETATM   10  C21 UNL     1      70.725  34.903  69.791  1.00  0.00     0.219 C 
ENDROOT
BRANCH   9  11
HETATM   11  N2  UNL     1      70.300  37.137  70.690  1.00  0.00    -0.345 N 
HETATM   12  C13 UNL     1      70.832  37.246  71.985  1.00  0.00     0.224 C 
HETATM   13  O12 UNL     1      71.906  36.673  72.227  1.00  0.00    -0.273 OA
ATOM     14  H2  UNL     1      69.413  37.595  70.480  1.00  0.00     0.163 HD
BRANCH  12  15
HETATM   15  C14 UNL     1      70.151  38.021  73.073  1.00  0.00     0.166 C 
BRANCH  15  16
HETATM   16  C15 UNL     1      70.527  39.439  73.099  1.00  0.00     0.091 A 
HETATM   17  C16 UNL     1      69.630  40.401  72.608  1.00  0.00     0.181 A 
HETATM   18  N3  UNL     1      70.235  41.586  72.740  1.00  0.00    -0.264 N 
HETATM   19  N4  UNL     1      71.401  41.370  73.267  1.00  0.00    -0.238 N 
ATOM     20  H3  UNL     1      69.851  42.492  72.476  1.00  0.00     0.190 HD
HETATM   21  N5  UNL     1      71.617  40.053  73.502  1.00  0.00    -0.273 N 
ATOM     22  H4  UNL     1      72.075  42.105  73.480  1.00  0.00     0.208 HD
BRANCH  17  23
HETATM   23  O13 UNL     1      68.350  40.174  72.081  1.00  0.00    -0.344 OA
ATOM     24  H13 UNL     1      67.855  40.749  71.509  1.00  0.00     0.219 HD
ENDBRANCH  17  23
BRANCH  21  25
HETATM   25  C17 UNL     1      72.829  39.554  74.060  1.00  0.00     0.109 A 
HETATM   26  C18 UNL     1      74.029  39.360  73.208  1.00  0.00     0.027 A 
HETATM   27  C19 UNL     1      74.825  40.155  74.236  1.00  0.00     0.004 A 
HETATM   28  C20 UNL     1      73.570  40.309  75.093  1.00  0.00     0.027 A 
ENDBRANCH  21  25
ENDBRANCH  15  16
ENDBRANCH  12  15
ENDBRANCH   9  11
BRANCH  10  29
HETATM   29  O14 UNL     1      71.906  34.259  70.202  1.00  0.00    -0.387 OA
ATOM     30  H14 UNL     1      72.440  33.953  69.480  1.00  0.00     0.210 HD
ENDBRANCH  10  29
BRANCH   1  31
HETATM   31  O2  UNL     1      69.153  33.419  68.688  1.00  0.00    -0.275 OA
BRANCH  31  32
HETATM   32  C2  UNL     1      68.989  32.513  69.706  1.00  0.00     0.257 C 
HETATM   33  C1  UNL     1      67.968  32.861  70.745  1.00  0.00     0.126 C 
HETATM   34  O1  UNL     1      69.680  31.473  69.716  1.00  0.00    -0.266 OA
ENDBRANCH  31  32
ENDBRANCH   1  31
BRANCH   5  35
HETATM   35  C10 UNL     1      67.864  36.428  66.535  1.00  0.00     0.228 C 
HETATM   36  O9  UNL     1      68.045  37.476  65.812  1.00  0.00    -0.643 OA
HETATM   37  O10 UNL     1      66.654  36.398  67.151  1.00  0.00    -0.643 OA
ENDBRANCH   5  35
BRANCH   4  38
HETATM   38  C5  UNL     1      68.130  34.311  64.581  1.00  0.00     0.190 C 
BRANCH  38  39
HETATM   39  S3  UNL     1      68.780  34.874  63.020  1.00  0.00     0.167 S 
HETATM   40  O3  UNL     1      70.179  34.429  62.786  1.00  0.00    -0.226 OA
HETATM   41  O4  UNL     1      68.684  36.366  62.939  1.00  0.00    -0.226 OA
BRANCH  39  42
HETATM   42  C6  UNL     1      67.678  34.216  61.766  1.00  0.00     0.263 C 
BRANCH  42  43
HETATM   43  C7  UNL     1      67.609  32.743  61.795  1.00  0.00     0.197 C 
HETATM   44  O5  UNL     1      68.576  32.081  61.278  1.00  0.00    -0.647 OA
HETATM   45  O6  UNL     1      66.535  32.095  62.365  1.00  0.00    -0.647 OA
ENDBRANCH  42  43
BRANCH  42  46
HETATM   46  C8  UNL     1      68.222  34.614  60.387  1.00  0.00     0.282 C 
BRANCH  46  47
HETATM   47  O7  UNL     1      68.233  35.980  60.240  1.00  0.00    -0.370 OA
ATOM     48  H7  UNL     1      68.692  36.232  59.448  1.00  0.00     0.212 HD
ENDBRANCH  46  47
BRANCH  46  49
HETATM   49  O8  UNL     1      67.489  33.924  59.451  1.00  0.00    -0.370 OA
ATOM     50  H8  UNL     1      68.109  33.518  58.857  1.00  0.00     0.212 HD
ENDBRANCH  46  49
ENDBRANCH  42  46
ENDBRANCH  39  42
ENDBRANCH  38  39
ENDBRANCH   4  38
TORSDOF 16
ENDMDL
