MODEL 1
REMARK VINA RESULT: -6.276648568      0.000      0.000
REMARK  4 active torsions:
REMARK  status: ('A' for Active; 'I' for Inactive)
REMARK    1  A    between atoms: C2_2  and  N1_3 
REMARK       I    between atoms: N1_3  and  C3_5 
REMARK       I    between atoms: C3_5  and  N5_21 
REMARK       I    between atoms: N2_6  and  C4_8 
REMARK       I    between atoms: C4_8  and  N4_18 
REMARK    2  A    between atoms: N3_9  and  C5_11 
REMARK    3  A    between atoms: C5_11  and  C6_12 
REMARK    4  A    between atoms: C8_14  and  O1_16 
ROOT
HETATM    1  N1  UNL     1      25.845  19.106  30.952  1.00  0.00    -0.226 N 
ATOM      2  H1  UNL     1      26.641  19.632  31.314  1.00  0.00     0.177 HD
HETATM    3  C3  UNL     1      24.898  18.542  31.871  1.00  0.00     0.690 C 
HETATM    4  N2  UNL     1      23.695  18.456  31.471  1.00  0.00    -0.023 N 
ATOM      5  H2  UNL     1      23.482  18.790  30.531  1.00  0.00     0.203 HD
HETATM    6  C4  UNL     1      22.619  17.921  32.249  1.00  0.00     0.692 C 
HETATM    7  N3  UNL     1      22.085  16.858  31.801  1.00  0.00    -0.193 N 
ATOM      8  H3  UNL     1      22.465  16.479  30.933  1.00  0.00     0.184 HD
HETATM    9  N4  UNL     1      22.271  18.631  33.411  1.00  0.00    -0.230 N 
ATOM     10  H4  UNL     1      22.146  19.639  33.322  1.00  0.00     0.177 HD
HETATM   11  C10 UNL     1      22.080  18.056  34.714  1.00  0.00     0.165 C 
HETATM   12  N5  UNL     1      25.397  18.140  33.126  1.00  0.00    -0.217 N 
HETATM   13  C11 UNL     1      25.760  19.144  34.069  1.00  0.00     0.141 C 
HETATM   14  C12 UNL     1      25.909  18.666  35.474  1.00  0.00     0.020 C 
HETATM   15  C13 UNL     1      26.430  17.302  35.668  1.00  0.00     0.003 C 
HETATM   16  C14 UNL     1      26.456  16.398  34.499  1.00  0.00     0.020 C 
HETATM   17  C15 UNL     1      25.518  16.745  33.390  1.00  0.00     0.141 C 
ENDROOT
BRANCH   1  18
HETATM   18  C2  UNL     1      25.690  18.944  29.515  1.00  0.00     0.133 C 
HETATM   19  C1  UNL     1      26.957  18.443  28.884  1.00  0.00     0.027 C 
ENDBRANCH   1  18
BRANCH   7  20
HETATM   20  C5  UNL     1      21.001  16.146  32.402  1.00  0.00     0.054 C 
HETATM   21  C8  UNL     1      21.254  15.076  33.104  1.00  0.00     0.062 C 
HETATM   22  C9  UNL     1      22.683  14.613  33.268  1.00  0.00     0.078 C 
BRANCH  20  23
HETATM   23  C6  UNL     1      19.662  16.683  32.186  1.00  0.00     0.056 C 
HETATM   24  C7  UNL     1      18.936  17.203  33.379  1.00  0.00     0.011 C 
ENDBRANCH  20  23
BRANCH  21  25
HETATM   25  O1  UNL     1      20.327  14.276  33.747  1.00  0.00    -0.363 OA
ATOM     26  H1  UNL     1      19.398  14.450  33.842  1.00  0.00     0.217 HD
ENDBRANCH  21  25
ENDBRANCH   7  20
TORSDOF 4
ENDMDL
MODEL 2
REMARK VINA RESULT: -6.268379571      2.979      4.985
REMARK  4 active torsions:
REMARK  status: ('A' for Active; 'I' for Inactive)
REMARK    1  A    between atoms: C2_2  and  N1_3 
REMARK       I    between atoms: N1_3  and  C3_5 
REMARK       I    between atoms: C3_5  and  N5_21 
REMARK       I    between atoms: N2_6  and  C4_8 
REMARK       I    between atoms: C4_8  and  N4_18 
REMARK    2  A    between atoms: N3_9  and  C5_11 
REMARK    3  A    between atoms: C5_11  and  C6_12 
REMARK    4  A    between atoms: C8_14  and  O1_16 
ROOT
HETATM    1  N1  UNL     1      24.333  11.924  32.846  1.00  0.00    -0.226 N 
ATOM      2  H1  UNL     1      25.091  11.451  32.355  1.00  0.00     0.177 HD
HETATM    3  C3  UNL     1      24.042  13.295  32.538  1.00  0.00     0.690 C 
HETATM    4  N2  UNL     1      22.830  13.661  32.652  1.00  0.00    -0.023 N 
ATOM      5  H2  UNL     1      22.150  12.964  32.952  1.00  0.00     0.203 HD
HETATM    6  C4  UNL     1      22.356  14.986  32.388  1.00  0.00     0.692 C 
HETATM    7  N3  UNL     1      21.887  15.617  33.386  1.00  0.00    -0.193 N 
ATOM      8  H3  UNL     1      21.888  15.131  34.284  1.00  0.00     0.184 HD
HETATM    9  N4  UNL     1      22.456  15.435  31.060  1.00  0.00    -0.230 N 
ATOM     10  H4  UNL     1      22.116  14.810  30.329  1.00  0.00     0.177 HD
HETATM   11  C10 UNL     1      22.999  16.700  30.645  1.00  0.00     0.165 C 
HETATM   12  N5  UNL     1      25.129  14.099  32.139  1.00  0.00    -0.217 N 
HETATM   13  C11 UNL     1      25.688  13.894  30.845  1.00  0.00     0.141 C 
HETATM   14  C12 UNL     1      26.555  15.003  30.350  1.00  0.00     0.020 C 
HETATM   15  C13 UNL     1      27.354  15.729  31.353  1.00  0.00     0.003 C 
HETATM   16  C14 UNL     1      27.008  15.547  32.778  1.00  0.00     0.020 C 
HETATM   17  C15 UNL     1      25.618  15.076  33.053  1.00  0.00     0.141 C 
ENDROOT
BRANCH   1  18
HETATM   18  C2  UNL     1      23.567  11.197  33.846  1.00  0.00     0.133 C 
HETATM   19  C1  UNL     1      24.456  10.324  34.684  1.00  0.00     0.027 C 
ENDBRANCH   1  18
BRANCH   7  20
HETATM   20  C5  UNL     1      21.358  16.945  33.367  1.00  0.00     0.054 C 
HETATM   21  C8  UNL     1      22.039  17.910  33.922  1.00  0.00     0.062 C 
HETATM   22  C9  UNL     1      23.369  17.605  34.571  1.00  0.00     0.078 C 
BRANCH  20  23
HETATM   23  C6  UNL     1      20.070  17.129  32.708  1.00  0.00     0.056 C 
HETATM   24  C7  UNL     1      18.852  17.075  33.564  1.00  0.00     0.011 C 
ENDBRANCH  20  23
BRANCH  21  25
HETATM   25  O1  UNL     1      21.673  19.241  33.991  1.00  0.00    -0.363 OA
ATOM     26  H1  UNL     1      21.965  19.876  34.635  1.00  0.00     0.217 HD
ENDBRANCH  21  25
ENDBRANCH   7  20
TORSDOF 4
ENDMDL
MODEL 3
REMARK VINA RESULT: -6.074634635      3.041      5.121
REMARK  4 active torsions:
REMARK  status: ('A' for Active; 'I' for Inactive)
REMARK    1  A    between atoms: C2_2  and  N1_3 
REMARK       I    between atoms: N1_3  and  C3_5 
REMARK       I    between atoms: C3_5  and  N5_21 
REMARK       I    between atoms: N2_6  and  C4_8 
REMARK       I    between atoms: C4_8  and  N4_18 
REMARK    2  A    between atoms: N3_9  and  C5_11 
REMARK    3  A    between atoms: C5_11  and  C6_12 
REMARK    4  A    between atoms: C8_14  and  O1_16 
ROOT
HETATM    1  N1  UNL     1      23.708  12.265  32.626  1.00  0.00    -0.226 N 
ATOM      2  H1  UNL     1      24.233  11.648  32.006  1.00  0.00     0.177 HD
HETATM    3  C3  UNL     1      23.790  13.686  32.440  1.00  0.00     0.690 C 
HETATM    4  N2  UNL     1      22.758  14.362  32.745  1.00  0.00    -0.023 N 
ATOM      5  H2  UNL     1      21.947  13.857  33.098  1.00  0.00     0.203 HD
HETATM    6  C4  UNL     1      22.658  15.785  32.625  1.00  0.00     0.692 C 
HETATM    7  N3  UNL     1      22.514  16.425  33.714  1.00  0.00    -0.193 N 
ATOM      8  H3  UNL     1      22.483  15.876  34.573  1.00  0.00     0.184 HD
HETATM    9  N4  UNL     1      22.724  16.312  31.323  1.00  0.00    -0.230 N 
ATOM     10  H4  UNL     1      22.132  15.878  30.614  1.00  0.00     0.177 HD
HETATM   11  C10 UNL     1      23.554  17.409  30.908  1.00  0.00     0.165 C 
HETATM   12  N5  UNL     1      25.006  14.189  31.936  1.00  0.00    -0.217 N 
HETATM   13  C11 UNL     1      25.324  13.960  30.566  1.00  0.00     0.141 C 
HETATM   14  C12 UNL     1      26.407  14.825  30.016  1.00  0.00     0.020 C 
HETATM   15  C13 UNL     1      27.496  15.203  30.935  1.00  0.00     0.003 C 
HETATM   16  C14 UNL     1      27.286  14.990  32.383  1.00  0.00     0.020 C 
HETATM   17  C15 UNL     1      25.863  14.901  32.824  1.00  0.00     0.141 C 
ENDROOT
BRANCH   1  18
HETATM   18  C2  UNL     1      22.891  11.690  33.682  1.00  0.00     0.133 C 
HETATM   19  C1  UNL     1      23.261  10.257  33.937  1.00  0.00     0.027 C 
ENDBRANCH   1  18
BRANCH   7  20
HETATM   20  C5  UNL     1      22.393  17.843  33.844  1.00  0.00     0.054 C 
HETATM   21  C8  UNL     1      23.401  18.529  34.308  1.00  0.00     0.062 C 
HETATM   22  C9  UNL     1      24.673  17.812  34.697  1.00  0.00     0.078 C 
BRANCH  20  23
HETATM   23  C6  UNL     1      21.124  18.434  33.433  1.00  0.00     0.056 C 
HETATM   24  C7  UNL     1      19.912  18.057  34.213  1.00  0.00     0.011 C 
ENDBRANCH  20  23
BRANCH  21  25
HETATM   25  O1  UNL     1      23.448  19.898  34.497  1.00  0.00    -0.363 OA
ATOM     26  H1  UNL     1      22.875  20.413  35.055  1.00  0.00     0.217 HD
ENDBRANCH  21  25
ENDBRANCH   7  20
TORSDOF 4
ENDMDL
MODEL 4
REMARK VINA RESULT: -5.979718469      2.885      5.684
REMARK  4 active torsions:
REMARK  status: ('A' for Active; 'I' for Inactive)
REMARK    1  A    between atoms: C2_2  and  N1_3 
REMARK       I    between atoms: N1_3  and  C3_5 
REMARK       I    between atoms: C3_5  and  N5_21 
REMARK       I    between atoms: N2_6  and  C4_8 
REMARK       I    between atoms: C4_8  and  N4_18 
REMARK    2  A    between atoms: N3_9  and  C5_11 
REMARK    3  A    between atoms: C5_11  and  C6_12 
REMARK    4  A    between atoms: C8_14  and  O1_16 
ROOT
HETATM    1  N1  UNL     1      21.634  18.040  34.219  1.00  0.00    -0.226 N 
ATOM      2  H1  UNL     1      21.443  17.601  35.120  1.00  0.00     0.177 HD
HETATM    3  C3  UNL     1      22.991  18.161  33.769  1.00  0.00     0.690 C 
HETATM    4  N2  UNL     1      23.182  18.116  32.513  1.00  0.00    -0.023 N 
ATOM      5  H2  UNL     1      22.367  17.999  31.913  1.00  0.00     0.203 HD
HETATM    6  C4  UNL     1      24.464  18.220  31.885  1.00  0.00     0.692 C 
HETATM    7  N3  UNL     1      24.641  19.240  31.148  1.00  0.00    -0.193 N 
ATOM      8  H3  UNL     1      23.862  19.894  31.068  1.00  0.00     0.184 HD
HETATM    9  N4  UNL     1      25.377  17.183  32.146  1.00  0.00    -0.230 N 
ATOM     10  H4  UNL     1      25.037  16.226  32.048  1.00  0.00     0.177 HD
HETATM   11  C10 UNL     1      26.748  17.358  32.541  1.00  0.00     0.165 C 
HETATM   12  N5  UNL     1      23.977  18.315  34.764  1.00  0.00    -0.217 N 
HETATM   13  C11 UNL     1      24.312  17.190  35.571  1.00  0.00     0.141 C 
HETATM   14  C12 UNL     1      25.597  17.312  36.320  1.00  0.00     0.020 C 
HETATM   15  C13 UNL     1      25.971  18.654  36.798  1.00  0.00     0.003 C 
HETATM   16  C14 UNL     1      25.248  19.816  36.237  1.00  0.00     0.020 C 
HETATM   17  C15 UNL     1      24.589  19.592  34.916  1.00  0.00     0.141 C 
ENDROOT
BRANCH   1  18
HETATM   18  C2  UNL     1      20.527  18.533  33.415  1.00  0.00     0.133 C 
HETATM   19  C1  UNL     1      19.257  17.795  33.728  1.00  0.00     0.027 C 
ENDBRANCH   1  18
BRANCH   7  20
HETATM   20  C5  UNL     1      25.831  19.556  30.423  1.00  0.00     0.054 C 
HETATM   21  C8  UNL     1      26.659  20.439  30.909  1.00  0.00     0.062 C 
HETATM   22  C9  UNL     1      26.343  21.108  32.227  1.00  0.00     0.078 C 
BRANCH  20  23
HETATM   23  C6  UNL     1      26.041  18.847  29.165  1.00  0.00     0.056 C 
HETATM   24  C7  UNL     1      27.220  17.939  29.083  1.00  0.00     0.011 C 
ENDBRANCH  20  23
BRANCH  21  25
HETATM   25  O1  UNL     1      27.847  20.857  30.338  1.00  0.00    -0.363 OA
ATOM     26  H1  UNL     1      28.436  21.519  30.679  1.00  0.00     0.217 HD
ENDBRANCH  21  25
ENDBRANCH   7  20
TORSDOF 4
ENDMDL
MODEL 5
REMARK VINA RESULT: -5.970870173      2.780      5.076
REMARK  4 active torsions:
REMARK  status: ('A' for Active; 'I' for Inactive)
REMARK    1  A    between atoms: C2_2  and  N1_3 
REMARK       I    between atoms: N1_3  and  C3_5 
REMARK       I    between atoms: C3_5  and  N5_21 
REMARK       I    between atoms: N2_6  and  C4_8 
REMARK       I    between atoms: C4_8  and  N4_18 
REMARK    2  A    between atoms: N3_9  and  C5_11 
REMARK    3  A    between atoms: C5_11  and  C6_12 
REMARK    4  A    between atoms: C8_14  and  O1_16 
ROOT
HETATM    1  N1  UNL     1      23.731  12.275  32.625  1.00  0.00    -0.226 N 
ATOM      2  H1  UNL     1      24.344  11.748  32.004  1.00  0.00     0.177 HD
HETATM    3  C3  UNL     1      23.682  13.706  32.519  1.00  0.00     0.690 C 
HETATM    4  N2  UNL     1      22.574  14.262  32.801  1.00  0.00    -0.023 N 
ATOM      5  H2  UNL     1      21.799  13.661  33.082  1.00  0.00     0.203 HD
HETATM    6  C4  UNL     1      22.341  15.673  32.752  1.00  0.00     0.692 C 
HETATM    7  N3  UNL     1      22.080  16.232  33.863  1.00  0.00    -0.193 N 
ATOM      8  H3  UNL     1      22.059  15.633  34.690  1.00  0.00     0.184 HD
HETATM    9  N4  UNL     1      22.420  16.278  31.486  1.00  0.00    -0.230 N 
ATOM     10  H4  UNL     1      21.911  15.832  30.723  1.00  0.00     0.177 HD
HETATM   11  C10 UNL     1      23.158  17.472  31.176  1.00  0.00     0.165 C 
HETATM   12  N5  UNL     1      24.867  14.351  32.112  1.00  0.00    -0.217 N 
HETATM   13  C11 UNL     1      25.274  14.233  30.752  1.00  0.00     0.141 C 
HETATM   14  C12 UNL     1      26.294  15.229  30.310  1.00  0.00     0.020 C 
HETATM   15  C13 UNL     1      27.292  15.654  31.307  1.00  0.00     0.003 C 
HETATM   16  C14 UNL     1      27.031  15.339  32.727  1.00  0.00     0.020 C 
HETATM   17  C15 UNL     1      25.603  15.088  33.083  1.00  0.00     0.141 C 
ENDROOT
BRANCH   1  18
HETATM   18  C2  UNL     1      22.921  11.564  33.602  1.00  0.00     0.133 C 
HETATM   19  C1  UNL     1      23.724  10.511  34.310  1.00  0.00     0.027 C 
ENDBRANCH   1  18
BRANCH   7  20
HETATM   20  C5  UNL     1      21.813  17.622  34.061  1.00  0.00     0.054 C 
HETATM   21  C8  UNL     1      20.595  18.064  33.913  1.00  0.00     0.062 C 
HETATM   22  C9  UNL     1      19.494  17.100  33.538  1.00  0.00     0.078 C 
BRANCH  20  23
HETATM   23  C6  UNL     1      22.947  18.462  34.429  1.00  0.00     0.056 C 
HETATM   24  C7  UNL     1      23.967  17.872  35.341  1.00  0.00     0.011 C 
ENDBRANCH  20  23
BRANCH  21  25
HETATM   25  O1  UNL     1      20.169  19.371  34.066  1.00  0.00    -0.363 OA
ATOM     26  H1  UNL     1      20.702  20.153  33.981  1.00  0.00     0.217 HD
ENDBRANCH  21  25
ENDBRANCH   7  20
TORSDOF 4
ENDMDL
