MODEL 1
REMARK VINA RESULT: -6.231130338      0.000      0.000
REMARK  3 active torsions:
REMARK  status: ('A' for Active; 'I' for Inactive)
REMARK    1  A    between atoms: C3_3  and  N1_4 
REMARK       I    between atoms: N2_9  and  C8_10 
REMARK       I    between atoms: C8_10  and  N3_12 
REMARK       I    between atoms: N3_12  and  C9_14 
REMARK       I    between atoms: C9_14  and  N5_18 
REMARK    2  A    between atoms: N5_18  and  C10_20 
REMARK    3  A    between atoms: C10_20  and  C11_21 
ROOT
HETATM    1  C1  UNL     1      26.549  19.503  30.648  1.00  0.00     0.034 C 
HETATM    2  C2  UNL     1      26.733  18.003  30.737  1.00  0.00     0.117 C 
HETATM    3  C3  UNL     1      26.910  17.299  29.442  1.00  0.00     0.229 C 
HETATM    4  C7  UNL     1      25.940  16.308  29.947  1.00  0.00     0.163 C 
HETATM    5  N2  UNL     1      25.537  17.232  30.988  1.00  0.00    -0.325 N 
HETATM    6  C8  UNL     1      24.463  17.386  31.903  1.00  0.00     0.337 C 
HETATM    7  O1  UNL     1      23.522  16.523  31.882  1.00  0.00    -0.246 OA
HETATM    8  N3  UNL     1      24.372  18.444  32.842  1.00  0.00    -0.142 N 
ATOM      9  H3  UNL     1      25.113  19.144  32.875  1.00  0.00     0.189 HD
HETATM   10  C9  UNL     1      23.278  18.555  33.735  1.00  0.00     0.675 C 
HETATM   11  N4  UNL     1      23.220  19.522  34.575  1.00  0.00    -0.235 N 
ATOM     12  H41 UNL     1      22.432  19.601  35.218  1.00  0.00     0.174 HD
ATOM     13  H42 UNL     1      23.978  20.204  34.582  1.00  0.00     0.174 HD
HETATM   14  N5  UNL     1      22.223  17.606  33.725  1.00  0.00    -0.226 N 
ATOM     15  H5  UNL     1      22.374  16.651  34.051  1.00  0.00     0.177 HD
ENDROOT
BRANCH  14  16
HETATM   16  C10 UNL     1      20.933  18.027  33.243  1.00  0.00     0.142 C 
BRANCH  16  17
HETATM   17  C11 UNL     1      19.828  17.875  34.230  1.00  0.00     0.004 C 
HETATM   18  C12 UNL     1      19.125  19.205  34.391  1.00  0.00     0.006 C 
HETATM   19  C13 UNL     1      18.452  19.358  33.042  1.00  0.00     0.000 C 
HETATM   20  C14 UNL     1      18.190  17.956  32.545  1.00  0.00     0.000 C 
HETATM   21  C15 UNL     1      18.741  17.023  33.602  1.00  0.00     0.006 C 
ENDBRANCH  16  17
ENDBRANCH  14  16
BRANCH   3  22
HETATM   22  N1  UNL     1      28.240  16.843  29.130  1.00  0.00    -0.071 N 
HETATM   23  C4  UNL     1      28.740  17.667  28.044  1.00  0.00     0.272 C 
HETATM   24  C5  UNL     1      29.135  16.880  30.261  1.00  0.00     0.272 C 
HETATM   25  C6  UNL     1      28.157  15.486  28.631  1.00  0.00     0.272 C 
ENDBRANCH   3  22
TORSDOF 3
ENDMDL
MODEL 2
REMARK VINA RESULT: -6.181560059      0.949      1.528
REMARK  3 active torsions:
REMARK  status: ('A' for Active; 'I' for Inactive)
REMARK    1  A    between atoms: C3_3  and  N1_4 
REMARK       I    between atoms: N2_9  and  C8_10 
REMARK       I    between atoms: C8_10  and  N3_12 
REMARK       I    between atoms: N3_12  and  C9_14 
REMARK       I    between atoms: C9_14  and  N5_18 
REMARK    2  A    between atoms: N5_18  and  C10_20 
REMARK    3  A    between atoms: C10_20  and  C11_21 
ROOT
HETATM    1  C1  UNL     1      25.840  19.402  29.970  1.00  0.00     0.034 C 
HETATM    2  C2  UNL     1      26.651  18.205  30.415  1.00  0.00     0.117 C 
HETATM    3  C3  UNL     1      26.932  17.192  29.366  1.00  0.00     0.229 C 
HETATM    4  C7  UNL     1      26.550  16.177  30.366  1.00  0.00     0.163 C 
HETATM    5  N2  UNL     1      25.939  17.207  31.181  1.00  0.00    -0.325 N 
HETATM    6  C8  UNL     1      25.035  17.291  32.271  1.00  0.00     0.337 C 
HETATM    7  O1  UNL     1      24.554  16.207  32.743  1.00  0.00    -0.246 OA
HETATM    8  N3  UNL     1      24.633  18.511  32.872  1.00  0.00    -0.142 N 
ATOM      9  H3  UNL     1      25.006  19.389  32.510  1.00  0.00     0.189 HD
HETATM   10  C9  UNL     1      23.727  18.543  33.960  1.00  0.00     0.675 C 
HETATM   11  N4  UNL     1      23.380  19.660  34.484  1.00  0.00    -0.235 N 
ATOM     12  H41 UNL     1      22.727  19.683  35.268  1.00  0.00     0.174 HD
ATOM     13  H42 UNL     1      23.771  20.520  34.099  1.00  0.00     0.174 HD
HETATM   14  N5  UNL     1      23.182  17.347  34.496  1.00  0.00    -0.226 N 
ATOM     15  H5  UNL     1      23.765  16.694  35.019  1.00  0.00     0.177 HD
ENDROOT
BRANCH  14  16
HETATM   16  C10 UNL     1      21.782  17.082  34.282  1.00  0.00     0.142 C 
BRANCH  16  17
HETATM   17  C11 UNL     1      21.255  17.577  32.979  1.00  0.00     0.004 C 
HETATM   18  C12 UNL     1      20.766  16.399  32.166  1.00  0.00     0.006 C 
HETATM   19  C13 UNL     1      19.553  15.963  32.961  1.00  0.00     0.000 C 
HETATM   20  C14 UNL     1      19.029  17.208  33.637  1.00  0.00     0.000 C 
HETATM   21  C15 UNL     1      19.965  18.330  33.242  1.00  0.00     0.006 C 
ENDBRANCH  16  17
ENDBRANCH  14  16
BRANCH   3  22
HETATM   22  N1  UNL     1      28.275  17.155  28.846  1.00  0.00    -0.071 N 
HETATM   23  C4  UNL     1      28.242  17.731  27.513  1.00  0.00     0.272 C 
HETATM   24  C5  UNL     1      29.229  17.842  29.682  1.00  0.00     0.272 C 
HETATM   25  C6  UNL     1      28.675  15.771  28.701  1.00  0.00     0.272 C 
ENDBRANCH   3  22
TORSDOF 3
ENDMDL
MODEL 3
REMARK VINA RESULT: -6.080675163      5.205      6.664
REMARK  3 active torsions:
REMARK  status: ('A' for Active; 'I' for Inactive)
REMARK    1  A    between atoms: C3_3  and  N1_4 
REMARK       I    between atoms: N2_9  and  C8_10 
REMARK       I    between atoms: C8_10  and  N3_12 
REMARK       I    between atoms: N3_12  and  C9_14 
REMARK       I    between atoms: C9_14  and  N5_18 
REMARK    2  A    between atoms: N5_18  and  C10_20 
REMARK    3  A    between atoms: C10_20  and  C11_21 
ROOT
HETATM    1  C1  UNL     1      22.698  10.979  33.384  1.00  0.00     0.034 C 
HETATM    2  C2  UNL     1      23.981  10.886  32.587  1.00  0.00     0.117 C 
HETATM    3  C3  UNL     1      25.115  10.213  33.270  1.00  0.00     0.229 C 
HETATM    4  C7  UNL     1      25.953  11.330  32.793  1.00  0.00     0.163 C 
HETATM    5  N2  UNL     1      24.761  12.100  32.499  1.00  0.00    -0.325 N 
HETATM    6  C8  UNL     1      24.418  13.450  32.226  1.00  0.00     0.337 C 
HETATM    7  O1  UNL     1      25.352  14.321  32.223  1.00  0.00    -0.246 OA
HETATM    8  N3  UNL     1      23.099  13.890  31.956  1.00  0.00    -0.142 N 
ATOM      9  H3  UNL     1      22.339  13.209  31.953  1.00  0.00     0.189 HD
HETATM   10  C9  UNL     1      22.807  15.251  31.689  1.00  0.00     0.675 C 
HETATM   11  N4  UNL     1      21.604  15.622  31.447  1.00  0.00    -0.235 N 
ATOM     12  H41 UNL     1      21.395  16.602  31.255  1.00  0.00     0.174 HD
ATOM     13  H42 UNL     1      20.868  14.916  31.452  1.00  0.00     0.174 HD
HETATM   14  N5  UNL     1      23.831  16.233  31.682  1.00  0.00    -0.226 N 
ATOM     15  H5  UNL     1      24.533  16.253  30.943  1.00  0.00     0.177 HD
ENDROOT
BRANCH  14  16
HETATM   16  C10 UNL     1      23.852  17.201  32.749  1.00  0.00     0.142 C 
BRANCH  16  17
HETATM   17  C11 UNL     1      23.638  16.625  34.106  1.00  0.00     0.004 C 
HETATM   18  C12 UNL     1      24.918  16.754  34.903  1.00  0.00     0.006 C 
HETATM   19  C13 UNL     1      25.002  18.253  35.102  1.00  0.00     0.000 C 
HETATM   20  C14 UNL     1      23.577  18.755  35.099  1.00  0.00     0.000 C 
HETATM   21  C15 UNL     1      22.702  17.542  34.871  1.00  0.00     0.006 C 
ENDBRANCH  16  17
ENDBRANCH  14  16
BRANCH   3  22
HETATM   22  N1  UNL     1      25.443   8.884  32.822  1.00  0.00    -0.071 N 
HETATM   23  C4  UNL     1      24.943   7.953  33.818  1.00  0.00     0.272 C 
HETATM   24  C5  UNL     1      24.914   8.577  31.515  1.00  0.00     0.272 C 
HETATM   25  C6  UNL     1      26.885   8.748  32.799  1.00  0.00     0.272 C 
ENDBRANCH   3  22
TORSDOF 3
ENDMDL
MODEL 4
REMARK VINA RESULT: -5.988244276      3.397      4.129
REMARK  3 active torsions:
REMARK  status: ('A' for Active; 'I' for Inactive)
REMARK    1  A    between atoms: C3_3  and  N1_4 
REMARK       I    between atoms: N2_9  and  C8_10 
REMARK       I    between atoms: C8_10  and  N3_12 
REMARK       I    between atoms: N3_12  and  C9_14 
REMARK       I    between atoms: C9_14  and  N5_18 
REMARK    2  A    between atoms: N5_18  and  C10_20 
REMARK    3  A    between atoms: C10_20  and  C11_21 
ROOT
HETATM    1  C1  UNL     1      25.389  13.984  30.168  1.00  0.00     0.034 C 
HETATM    2  C2  UNL     1      25.605  13.526  31.594  1.00  0.00     0.117 C 
HETATM    3  C3  UNL     1      25.204  12.127  31.889  1.00  0.00     0.229 C 
HETATM    4  C7  UNL     1      24.559  12.658  33.104  1.00  0.00     0.163 C 
HETATM    5  N2  UNL     1      24.643  14.000  32.564  1.00  0.00    -0.325 N 
HETATM    6  C8  UNL     1      24.074  15.275  32.815  1.00  0.00     0.337 C 
HETATM    7  O1  UNL     1      23.225  15.383  33.763  1.00  0.00    -0.246 OA
HETATM    8  N3  UNL     1      24.394  16.442  32.076  1.00  0.00    -0.142 N 
ATOM      9  H3  UNL     1      25.070  16.378  31.315  1.00  0.00     0.189 HD
HETATM   10  C9  UNL     1      23.798  17.694  32.366  1.00  0.00     0.675 C 
HETATM   11  N4  UNL     1      24.105  18.734  31.681  1.00  0.00    -0.235 N 
ATOM     12  H41 UNL     1      23.676  19.635  31.890  1.00  0.00     0.174 HD
ATOM     13  H42 UNL     1      24.785  18.635  30.928  1.00  0.00     0.174 HD
HETATM   14  N5  UNL     1      22.852  17.832  33.414  1.00  0.00    -0.226 N 
ATOM     15  H5  UNL     1      23.137  17.757  34.391  1.00  0.00     0.177 HD
ENDROOT
BRANCH  14  16
HETATM   16  C10 UNL     1      21.477  18.079  33.062  1.00  0.00     0.142 C 
BRANCH  16  17
HETATM   17  C11 UNL     1      20.489  17.615  34.077  1.00  0.00     0.004 C 
HETATM   18  C12 UNL     1      19.524  18.741  34.374  1.00  0.00     0.006 C 
HETATM   19  C13 UNL     1      18.758  18.838  33.071  1.00  0.00     0.000 C 
HETATM   20  C14 UNL     1      18.780  17.452  32.470  1.00  0.00     0.000 C 
HETATM   21  C15 UNL     1      19.581  16.591  33.424  1.00  0.00     0.006 C 
ENDBRANCH  16  17
ENDBRANCH  14  16
BRANCH   3  22
HETATM   22  N1  UNL     1      26.268  11.170  32.053  1.00  0.00    -0.071 N 
HETATM   23  C4  UNL     1      26.223  10.268  30.915  1.00  0.00     0.272 C 
HETATM   24  C5  UNL     1      27.570  11.782  32.176  1.00  0.00     0.272 C 
HETATM   25  C6  UNL     1      25.998  10.378  33.234  1.00  0.00     0.272 C 
ENDBRANCH   3  22
TORSDOF 3
ENDMDL
MODEL 5
REMARK VINA RESULT: -5.946513721      1.256      1.771
REMARK  3 active torsions:
REMARK  status: ('A' for Active; 'I' for Inactive)
REMARK    1  A    between atoms: C3_3  and  N1_4 
REMARK       I    between atoms: N2_9  and  C8_10 
REMARK       I    between atoms: C8_10  and  N3_12 
REMARK       I    between atoms: N3_12  and  C9_14 
REMARK       I    between atoms: C9_14  and  N5_18 
REMARK    2  A    between atoms: N5_18  and  C10_20 
REMARK    3  A    between atoms: C10_20  and  C11_21 
ROOT
HETATM    1  C1  UNL     1      26.373  17.795  30.552  1.00  0.00     0.034 C 
HETATM    2  C2  UNL     1      26.203  16.358  30.995  1.00  0.00     0.117 C 
HETATM    3  C3  UNL     1      26.093  15.357  29.904  1.00  0.00     0.229 C 
HETATM    4  C7  UNL     1      24.964  14.784  30.660  1.00  0.00     0.163 C 
HETATM    5  N2  UNL     1      24.884  15.990  31.458  1.00  0.00    -0.325 N 
HETATM    6  C8  UNL     1      23.962  16.613  32.338  1.00  0.00     0.337 C 
HETATM    7  O1  UNL     1      22.845  16.033  32.553  1.00  0.00    -0.246 OA
HETATM    8  N3  UNL     1      24.207  17.844  32.997  1.00  0.00    -0.142 N 
ATOM      9  H3  UNL     1      25.093  18.324  32.839  1.00  0.00     0.189 HD
HETATM   10  C9  UNL     1      23.252  18.426  33.867  1.00  0.00     0.675 C 
HETATM   11  N4  UNL     1      23.500  19.541  34.450  1.00  0.00    -0.235 N 
ATOM     12  H41 UNL     1      22.812  19.960  35.077  1.00  0.00     0.174 HD
ATOM     13  H42 UNL     1      24.396  19.995  34.271  1.00  0.00     0.174 HD
HETATM   14  N5  UNL     1      22.006  17.796  34.117  1.00  0.00    -0.226 N 
ATOM     15  H5  UNL     1      21.954  16.934  34.659  1.00  0.00     0.177 HD
ENDROOT
BRANCH  14  16
HETATM   16  C10 UNL     1      20.816  18.407  33.583  1.00  0.00     0.142 C 
BRANCH  16  17
HETATM   17  C11 UNL     1      19.592  18.190  34.405  1.00  0.00     0.004 C 
HETATM   18  C12 UNL     1      18.744  19.442  34.365  1.00  0.00     0.006 C 
HETATM   19  C13 UNL     1      18.275  19.446  32.925  1.00  0.00     0.000 C 
HETATM   20  C14 UNL     1      18.234  17.998  32.496  1.00  0.00     0.000 C 
HETATM   21  C15 UNL     1      18.706  17.191  33.686  1.00  0.00     0.006 C 
ENDBRANCH  16  17
ENDBRANCH  14  16
BRANCH   3  22
HETATM   22  N1  UNL     1      27.245  14.523  29.674  1.00  0.00    -0.071 N 
HETATM   23  C4  UNL     1      26.760  13.205  29.301  1.00  0.00     0.272 C 
HETATM   24  C5  UNL     1      28.137  15.048  28.669  1.00  0.00     0.272 C 
HETATM   25  C6  UNL     1      27.964  14.374  30.922  1.00  0.00     0.272 C 
ENDBRANCH   3  22
TORSDOF 3
ENDMDL
