MODEL 1
REMARK VINA RESULT: -6.899478962      0.000      0.000
REMARK  3 active torsions:
REMARK  status: ('A' for Active; 'I' for Inactive)
REMARK    1  A    between atoms: C4_5  and  N2_6 
REMARK       I    between atoms: N2_6  and  C5_8 
REMARK       I    between atoms: C5_8  and  N4_12 
REMARK    2  A    between atoms: N4_12  and  C6_14 
REMARK    3  A    between atoms: C6_14  and  C7_15 
ROOT
HETATM    1  C1  UNL     1      24.171  11.014  32.244  1.00  0.00     0.228 C 
HETATM    2  N1  UNL     1      24.383  12.256  32.372  1.00  0.00    -0.438 NA
HETATM    3  C2  UNL     1      24.535  13.497  32.461  1.00  0.00     0.067 C 
HETATM    4  C3  UNL     1      23.571  14.087  33.373  1.00  0.00     0.100 C 
HETATM    5  C4  UNL     1      23.292  15.508  32.861  1.00  0.00     0.054 C 
HETATM    6  C10 UNL     1      22.989  15.430  31.409  1.00  0.00     0.036 C 
HETATM    7  C11 UNL     1      24.144  15.595  30.485  1.00  0.00    -0.011 C 
HETATM    8  C12 UNL     1      25.072  16.724  30.879  1.00  0.00     0.009 C 
HETATM    9  C13 UNL     1      25.587  16.364  32.271  1.00  0.00    -0.011 C 
HETATM   10  C14 UNL     1      26.338  15.078  32.293  1.00  0.00     0.016 C 
HETATM   11  C15 UNL     1      25.640  13.931  31.605  1.00  0.00     0.046 C 
HETATM   12  C16 UNL     1      24.995  14.371  30.295  1.00  0.00     0.016 C 
HETATM   13  C17 UNL     1      24.425  16.434  33.212  1.00  0.00     0.036 C 
ENDROOT
BRANCH   5  14
HETATM   14  N2  UNL     1      22.131  15.972  33.595  1.00  0.00    -0.217 N 
HETATM   15  C5  UNL     1      20.821  15.955  33.081  1.00  0.00     0.668 C 
HETATM   16  N3  UNL     1      20.108  14.903  33.293  1.00  0.00    -0.235 N 
HETATM   17  N4  UNL     1      20.238  17.015  32.347  1.00  0.00    -0.226 N 
ATOM     18  H32 UNL     1      20.527  14.139  33.822  1.00  0.00     0.174 HD
ATOM     19  H31 UNL     1      19.159  14.890  32.920  1.00  0.00     0.174 HD
ATOM     20  H4  UNL     1      20.845  17.594  31.767  1.00  0.00     0.177 HD
ATOM     21  H2  UNL     1      22.272  16.332  34.539  1.00  0.00     0.178 HD
BRANCH  17  22
HETATM   22  C6  UNL     1      18.827  17.322  32.378  1.00  0.00     0.142 C 
BRANCH  22  23
HETATM   23  C7  UNL     1      18.411  18.079  33.624  1.00  0.00     0.004 A 
HETATM   24  C8  UNL     1      18.038  19.529  33.342  1.00  0.00     0.007 A 
HETATM   25  C9  UNL     1      19.261  19.210  34.111  1.00  0.00     0.007 A 
ENDBRANCH  22  23
ENDBRANCH  17  22
ENDBRANCH   5  14
TORSDOF 3
ENDMDL
MODEL 2
REMARK VINA RESULT: -6.390250847      2.385      3.369
REMARK  3 active torsions:
REMARK  status: ('A' for Active; 'I' for Inactive)
REMARK    1  A    between atoms: C4_5  and  N2_6 
REMARK       I    between atoms: N2_6  and  C5_8 
REMARK       I    between atoms: C5_8  and  N4_12 
REMARK    2  A    between atoms: N4_12  and  C6_14 
REMARK    3  A    between atoms: C6_14  and  C7_15 
ROOT
HETATM    1  C1  UNL     1      27.912  14.863  28.716  1.00  0.00     0.228 C 
HETATM    2  N1  UNL     1      27.435  15.740  29.495  1.00  0.00    -0.438 NA
HETATM    3  C2  UNL     1      26.902  16.600  30.234  1.00  0.00     0.067 C 
HETATM    4  C3  UNL     1      26.004  15.989  31.200  1.00  0.00     0.100 C 
HETATM    5  C4  UNL     1      24.890  17.011  31.473  1.00  0.00     0.054 C 
HETATM    6  C10 UNL     1      24.364  17.488  30.168  1.00  0.00     0.036 C 
HETATM    7  C11 UNL     1      25.001  18.712  29.609  1.00  0.00    -0.011 C 
HETATM    8  C12 UNL     1      25.224  19.798  30.639  1.00  0.00     0.009 C 
HETATM    9  C13 UNL     1      26.148  19.184  31.690  1.00  0.00    -0.011 C 
HETATM   10  C14 UNL     1      27.460  18.761  31.126  1.00  0.00     0.016 C 
HETATM   11  C15 UNL     1      27.367  17.938  29.866  1.00  0.00     0.046 C 
HETATM   12  C16 UNL     1      26.314  18.490  28.912  1.00  0.00     0.016 C 
HETATM   13  C17 UNL     1      25.380  18.103  32.386  1.00  0.00     0.036 C 
ENDROOT
BRANCH   5  14
HETATM   14  N2  UNL     1      23.863  16.290  32.199  1.00  0.00    -0.217 N 
HETATM   15  C5  UNL     1      22.515  16.231  31.797  1.00  0.00     0.668 C 
HETATM   16  N3  UNL     1      22.163  15.264  31.022  1.00  0.00    -0.235 N 
HETATM   17  N4  UNL     1      21.524  17.163  32.188  1.00  0.00    -0.226 N 
ATOM     18  H32 UNL     1      22.877  14.592  30.740  1.00  0.00     0.174 HD
ATOM     19  H31 UNL     1      21.187  15.220  30.730  1.00  0.00     0.174 HD
ATOM     20  H4  UNL     1      21.808  18.128  32.358  1.00  0.00     0.177 HD
ATOM     21  H2  UNL     1      24.132  15.798  33.051  1.00  0.00     0.178 HD
BRANCH  17  22
HETATM   22  C6  UNL     1      20.132  16.818  32.359  1.00  0.00     0.142 C 
BRANCH  22  23
HETATM   23  C7  UNL     1      19.493  17.506  33.550  1.00  0.00     0.004 A 
HETATM   24  C8  UNL     1      18.388  18.477  33.152  1.00  0.00     0.007 A 
HETATM   25  C9  UNL     1      19.658  18.983  33.718  1.00  0.00     0.007 A 
ENDBRANCH  22  23
ENDBRANCH  17  22
ENDBRANCH   5  14
TORSDOF 3
ENDMDL
MODEL 3
REMARK VINA RESULT: -6.386355073      2.557      4.232
REMARK  3 active torsions:
REMARK  status: ('A' for Active; 'I' for Inactive)
REMARK    1  A    between atoms: C4_5  and  N2_6 
REMARK       I    between atoms: N2_6  and  C5_8 
REMARK       I    between atoms: C5_8  and  N4_12 
REMARK    2  A    between atoms: N4_12  and  C6_14 
REMARK    3  A    between atoms: C6_14  and  C7_15 
ROOT
HETATM    1  C1  UNL     1      27.401  19.947  34.561  1.00  0.00     0.228 C 
HETATM    2  N1  UNL     1      26.695  19.630  33.558  1.00  0.00    -0.438 NA
HETATM    3  C2  UNL     1      26.019  19.251  32.574  1.00  0.00     0.067 C 
HETATM    4  C3  UNL     1      24.857  18.485  32.990  1.00  0.00     0.100 C 
HETATM    5  C4  UNL     1      24.576  17.468  31.873  1.00  0.00     0.054 C 
HETATM    6  C10 UNL     1      25.846  16.771  31.545  1.00  0.00     0.036 C 
HETATM    7  C11 UNL     1      26.662  17.368  30.452  1.00  0.00    -0.011 C 
HETATM    8  C12 UNL     1      25.841  17.788  29.252  1.00  0.00     0.009 C 
HETATM    9  C13 UNL     1      24.857  18.834  29.774  1.00  0.00    -0.011 C 
HETATM   10  C14 UNL     1      25.536  20.027  30.350  1.00  0.00     0.016 C 
HETATM   11  C15 UNL     1      26.639  19.711  31.330  1.00  0.00     0.046 C 
HETATM   12  C16 UNL     1      27.501  18.550  30.848  1.00  0.00     0.016 C 
HETATM   13  C17 UNL     1      23.909  18.135  30.700  1.00  0.00     0.036 C 
ENDROOT
BRANCH   5  14
HETATM   14  N2  UNL     1      23.614  16.533  32.422  1.00  0.00    -0.217 N 
HETATM   15  C5  UNL     1      22.303  16.379  31.932  1.00  0.00     0.668 C 
HETATM   16  N3  UNL     1      22.109  15.505  31.006  1.00  0.00    -0.235 N 
HETATM   17  N4  UNL     1      21.188  17.121  32.390  1.00  0.00    -0.226 N 
ATOM     18  H32 UNL     1      22.912  14.970  30.676  1.00  0.00     0.174 HD
ATOM     19  H31 UNL     1      21.159  15.393  30.651  1.00  0.00     0.174 HD
ATOM     20  H4  UNL     1      21.342  18.076  32.714  1.00  0.00     0.177 HD
ATOM     21  H2  UNL     1      23.903  15.953  33.210  1.00  0.00     0.178 HD
BRANCH  17  22
HETATM   22  C6  UNL     1      19.843  16.596  32.422  1.00  0.00     0.142 C 
BRANCH  22  23
HETATM   23  C7  UNL     1      18.945  17.326  33.402  1.00  0.00     0.004 A 
HETATM   24  C8  UNL     1      18.020  18.330  32.726  1.00  0.00     0.007 A 
HETATM   25  C9  UNL     1      19.119  18.798  33.598  1.00  0.00     0.007 A 
ENDBRANCH  22  23
ENDBRANCH  17  22
ENDBRANCH   5  14
TORSDOF 3
ENDMDL
MODEL 4
REMARK VINA RESULT: -6.346305581      3.590      5.870
REMARK  3 active torsions:
REMARK  status: ('A' for Active; 'I' for Inactive)
REMARK    1  A    between atoms: C4_5  and  N2_6 
REMARK       I    between atoms: N2_6  and  C5_8 
REMARK       I    between atoms: C5_8  and  N4_12 
REMARK    2  A    between atoms: N4_12  and  C6_14 
REMARK    3  A    between atoms: C6_14  and  C7_15 
ROOT
HETATM    1  C1  UNL     1      18.480  17.671  32.355  1.00  0.00     0.228 C 
HETATM    2  N1  UNL     1      19.627  17.352  32.788  1.00  0.00    -0.438 NA
HETATM    3  C2  UNL     1      20.788  17.085  33.175  1.00  0.00     0.067 C 
HETATM    4  C3  UNL     1      21.309  18.123  34.049  1.00  0.00     0.100 C 
HETATM    5  C4  UNL     1      22.830  18.156  33.835  1.00  0.00     0.054 C 
HETATM    6  C10 UNL     1      23.095  18.213  32.374  1.00  0.00     0.036 C 
HETATM    7  C11 UNL     1      23.281  16.906  31.687  1.00  0.00    -0.011 C 
HETATM    8  C12 UNL     1      24.162  15.944  32.454  1.00  0.00     0.009 C 
HETATM    9  C13 UNL     1      23.454  15.715  33.789  1.00  0.00    -0.011 C 
HETATM   10  C14 UNL     1      22.098  15.122  33.627  1.00  0.00     0.016 C 
HETATM   11  C15 UNL     1      21.227  15.811  32.606  1.00  0.00     0.046 C 
HETATM   12  C16 UNL     1      22.013  16.171  31.351  1.00  0.00     0.016 C 
HETATM   13  C17 UNL     1      23.495  17.007  34.545  1.00  0.00     0.036 C 
ENDROOT
BRANCH   5  14
HETATM   14  N2  UNL     1      23.294  19.369  34.480  1.00  0.00    -0.217 N 
HETATM   15  C5  UNL     1      24.433  19.431  35.304  1.00  0.00     0.668 C 
HETATM   16  N3  UNL     1      25.562  19.705  34.747  1.00  0.00    -0.235 N 
HETATM   17  N4  UNL     1      24.419  19.212  36.702  1.00  0.00    -0.226 N 
ATOM     18  H32 UNL     1      25.572  19.863  33.740  1.00  0.00     0.174 HD
ATOM     19  H31 UNL     1      26.388  19.750  35.344  1.00  0.00     0.174 HD
ATOM     20  H4  UNL     1      23.734  18.559  37.083  1.00  0.00     0.177 HD
ATOM     21  H2  UNL     1      22.763  20.227  34.328  1.00  0.00     0.178 HD
BRANCH  17  22
HETATM   22  C6  UNL     1      25.325  19.865  37.618  1.00  0.00     0.142 C 
BRANCH  22  23
HETATM   23  C7  UNL     1      25.159  19.397  39.052  1.00  0.00     0.004 A 
HETATM   24  C8  UNL     1      26.188  18.350  39.458  1.00  0.00     0.007 A 
HETATM   25  C9  UNL     1      24.763  17.979  39.318  1.00  0.00     0.007 A 
ENDBRANCH  22  23
ENDBRANCH  17  22
ENDBRANCH   5  14
TORSDOF 3
ENDMDL
MODEL 5
REMARK VINA RESULT: -6.339063014      2.073      3.451
REMARK  3 active torsions:
REMARK  status: ('A' for Active; 'I' for Inactive)
REMARK    1  A    between atoms: C4_5  and  N2_6 
REMARK       I    between atoms: N2_6  and  C5_8 
REMARK       I    between atoms: C5_8  and  N4_12 
REMARK    2  A    between atoms: N4_12  and  C6_14 
REMARK    3  A    between atoms: C6_14  and  C7_15 
ROOT
HETATM    1  C1  UNL     1      27.380  18.039  28.758  1.00  0.00     0.228 C 
HETATM    2  N1  UNL     1      26.509  17.368  29.389  1.00  0.00    -0.438 NA
HETATM    3  C2  UNL     1      25.657  16.748  30.066  1.00  0.00     0.067 C 
HETATM    4  C3  UNL     1      24.424  17.506  30.194  1.00  0.00     0.100 C 
HETATM    5  C4  UNL     1      23.813  17.128  31.552  1.00  0.00     0.054 C 
HETATM    6  C10 UNL     1      24.870  17.250  32.589  1.00  0.00     0.036 C 
HETATM    7  C11 UNL     1      25.650  16.016  32.882  1.00  0.00    -0.011 C 
HETATM    8  C12 UNL     1      24.792  14.774  32.993  1.00  0.00     0.009 C 
HETATM    9  C13 UNL     1      24.106  14.627  31.635  1.00  0.00    -0.011 C 
HETATM   10  C14 UNL     1      25.074  14.460  30.516  1.00  0.00     0.016 C 
HETATM   11  C15 UNL     1      26.202  15.462  30.505  1.00  0.00     0.046 C 
HETATM   12  C16 UNL     1      26.750  15.705  31.906  1.00  0.00     0.016 C 
HETATM   13  C17 UNL     1      23.157  15.776  31.485  1.00  0.00     0.036 C 
ENDROOT
BRANCH   5  14
HETATM   14  N2  UNL     1      22.757  18.092  31.792  1.00  0.00    -0.217 N 
HETATM   15  C5  UNL     1      21.910  18.062  32.916  1.00  0.00     0.668 C 
HETATM   16  N3  UNL     1      22.277  18.719  33.961  1.00  0.00    -0.235 N 
HETATM   17  N4  UNL     1      20.683  17.359  32.971  1.00  0.00    -0.226 N 
ATOM     18  H32 UNL     1      23.161  19.226  33.922  1.00  0.00     0.174 HD
ATOM     19  H31 UNL     1      21.664  18.697  34.776  1.00  0.00     0.174 HD
ATOM     20  H4  UNL     1      20.593  16.500  32.428  1.00  0.00     0.177 HD
ATOM     21  H2  UNL     1      22.620  18.836  31.107  1.00  0.00     0.178 HD
BRANCH  17  22
HETATM   22  C6  UNL     1      19.552  17.794  33.756  1.00  0.00     0.142 C 
BRANCH  22  23
HETATM   23  C7  UNL     1      18.715  18.848  33.057  1.00  0.00     0.004 A 
HETATM   24  C8  UNL     1      18.769  20.205  33.748  1.00  0.00     0.007 A 
HETATM   25  C9  UNL     1      17.519  19.414  33.754  1.00  0.00     0.007 A 
ENDBRANCH  22  23
ENDBRANCH  17  22
ENDBRANCH   5  14
TORSDOF 3
ENDMDL
