MODEL 1
REMARK VINA RESULT: -6.432190692      0.000      0.000
REMARK  3 active torsions:
REMARK  status: ('A' for Active; 'I' for Inactive)
REMARK    1  A    between atoms: C2_2  and  N1_3 
REMARK       I    between atoms: C3_5  and  N2_6 
REMARK       I    between atoms: C3_5  and  N5_11 
REMARK    2  A    between atoms: N5_11  and  C5_13 
REMARK    3  A    between atoms: C5_13  and  C7_15 
ROOT
HETATM    1  N1  UNL     1      21.282  17.710  33.438  1.00  0.00    -0.227 N 
ATOM      2  H1  UNL     1      20.962  17.920  34.383  1.00  0.00     0.177 HD
HETATM    3  C3  UNL     1      22.421  18.125  33.040  1.00  0.00     0.676 C 
HETATM    4  N2  UNL     1      23.268  18.881  33.882  1.00  0.00    -0.166 N 
ATOM      5  H2  UNL     1      23.782  19.666  33.483  1.00  0.00     0.186 HD
HETATM    6  C4  UNL     1      23.414  18.621  35.120  1.00  0.00     0.215 C 
HETATM    7  N3  UNL     1      22.683  17.512  35.660  1.00  0.00    -0.066 NA
HETATM    8  N4  UNL     1      24.275  19.404  35.939  1.00  0.00    -0.066 NA
HETATM    9  N5  UNL     1      22.861  17.832  31.731  1.00  0.00    -0.221 N 
ATOM     10  H5  UNL     1      22.403  18.244  30.918  1.00  0.00     0.178 HD
ENDROOT
BRANCH   9  11
HETATM   11  C5  UNL     1      23.985  16.930  31.577  1.00  0.00     0.103 C 
HETATM   12  C6  UNL     1      23.574  15.715  30.799  1.00  0.00     0.033 C 
BRANCH  11  13
HETATM   13  C7  UNL     1      25.107  17.692  30.915  1.00  0.00    -0.019 C 
HETATM   14  C8  UNL     1      25.919  16.775  30.011  1.00  0.00     0.016 C 
HETATM   15  C9  UNL     1      27.084  17.572  29.470  1.00  0.00    -0.013 C 
HETATM   16  C10 UNL     1      28.002  18.047  30.571  1.00  0.00     0.009 C 
HETATM   17  C14 UNL     1      26.625  18.792  28.701  1.00  0.00     0.009 C 
HETATM   18  C11 UNL     1      27.208  18.946  31.483  1.00  0.00    -0.013 C 
HETATM   19  C12 UNL     1      26.648  20.136  30.758  1.00  0.00     0.009 C 
HETATM   20  C16 UNL     1      26.042  18.150  32.026  1.00  0.00     0.016 C 
HETATM   21  C13 UNL     1      25.795  19.656  29.625  1.00  0.00    -0.013 C 
HETATM   22  C15 UNL     1      24.617  18.829  30.075  1.00  0.00     0.016 C 
ENDBRANCH  11  13
ENDBRANCH   9  11
BRANCH   1  23
HETATM   23  C2  UNL     1      20.453  16.944  32.548  1.00  0.00     0.133 C 
HETATM   24  C1  UNL     1      19.032  17.433  32.502  1.00  0.00     0.027 C 
ENDBRANCH   1  23
TORSDOF 3
ENDMDL
MODEL 2
REMARK VINA RESULT: -6.409435464      2.119      3.716
REMARK  3 active torsions:
REMARK  status: ('A' for Active; 'I' for Inactive)
REMARK    1  A    between atoms: C2_2  and  N1_3 
REMARK       I    between atoms: C3_5  and  N2_6 
REMARK       I    between atoms: C3_5  and  N5_11 
REMARK    2  A    between atoms: N5_11  and  C5_13 
REMARK    3  A    between atoms: C5_13  and  C7_15 
ROOT
HETATM    1  N1  UNL     1      21.731  15.843  31.424  1.00  0.00    -0.227 N 
ATOM      2  H1  UNL     1      20.942  15.207  31.307  1.00  0.00     0.177 HD
HETATM    3  C3  UNL     1      21.579  16.945  32.048  1.00  0.00     0.676 C 
HETATM    4  N2  UNL     1      20.330  17.320  32.594  1.00  0.00    -0.166 N 
ATOM      5  H2  UNL     1      20.035  18.293  32.519  1.00  0.00     0.186 HD
HETATM    6  C4  UNL     1      19.559  16.490  33.175  1.00  0.00     0.215 C 
HETATM    7  N3  UNL     1      19.995  15.127  33.271  1.00  0.00    -0.066 NA
HETATM    8  N4  UNL     1      18.308  16.902  33.713  1.00  0.00    -0.066 NA
HETATM    9  N5  UNL     1      22.673  17.823  32.208  1.00  0.00    -0.221 N 
ATOM     10  H5  UNL     1      23.079  18.307  31.407  1.00  0.00     0.178 HD
ENDROOT
BRANCH   9  11
HETATM   11  C5  UNL     1      23.203  18.015  33.544  1.00  0.00     0.103 C 
HETATM   12  C6  UNL     1      22.948  16.799  34.384  1.00  0.00     0.033 C 
BRANCH  11  13
HETATM   13  C7  UNL     1      24.672  18.339  33.420  1.00  0.00    -0.019 C 
HETATM   14  C8  UNL     1      25.057  18.539  31.961  1.00  0.00     0.016 C 
HETATM   15  C9  UNL     1      26.553  18.750  31.902  1.00  0.00    -0.013 C 
HETATM   16  C10 UNL     1      27.311  17.546  32.407  1.00  0.00     0.009 C 
HETATM   17  C14 UNL     1      26.987  19.942  32.726  1.00  0.00     0.009 C 
HETATM   18  C11 UNL     1      26.929  17.327  33.848  1.00  0.00    -0.013 C 
HETATM   19  C12 UNL     1      27.257  18.514  34.707  1.00  0.00     0.009 C 
HETATM   20  C16 UNL     1      25.433  17.115  33.909  1.00  0.00     0.016 C 
HETATM   21  C13 UNL     1      26.556  19.717  34.158  1.00  0.00    -0.013 C 
HETATM   22  C15 UNL     1      25.053  19.583  34.159  1.00  0.00     0.016 C 
ENDBRANCH  11  13
ENDBRANCH   9  11
BRANCH   1  23
HETATM   23  C2  UNL     1      23.019  15.501  30.885  1.00  0.00     0.133 C 
HETATM   24  C1  UNL     1      23.737  14.459  31.696  1.00  0.00     0.027 C 
ENDBRANCH   1  23
TORSDOF 3
ENDMDL
MODEL 3
REMARK VINA RESULT: -6.409187021      2.057      3.934
REMARK  3 active torsions:
REMARK  status: ('A' for Active; 'I' for Inactive)
REMARK    1  A    between atoms: C2_2  and  N1_3 
REMARK       I    between atoms: C3_5  and  N2_6 
REMARK       I    between atoms: C3_5  and  N5_11 
REMARK    2  A    between atoms: N5_11  and  C5_13 
REMARK    3  A    between atoms: C5_13  and  C7_15 
ROOT
HETATM    1  N1  UNL     1      21.726  15.822  31.417  1.00  0.00    -0.227 N 
ATOM      2  H1  UNL     1      20.933  15.190  31.305  1.00  0.00     0.177 HD
HETATM    3  C3  UNL     1      21.583  16.927  32.038  1.00  0.00     0.676 C 
HETATM    4  N2  UNL     1      20.337  17.310  32.587  1.00  0.00    -0.166 N 
ATOM      5  H2  UNL     1      20.047  18.285  32.509  1.00  0.00     0.186 HD
HETATM    6  C4  UNL     1      19.564  16.487  33.173  1.00  0.00     0.215 C 
HETATM    7  N3  UNL     1      19.993  15.122  33.272  1.00  0.00    -0.066 NA
HETATM    8  N4  UNL     1      18.316  16.907  33.713  1.00  0.00    -0.066 NA
HETATM    9  N5  UNL     1      22.682  17.799  32.191  1.00  0.00    -0.221 N 
ATOM     10  H5  UNL     1      23.087  18.278  31.387  1.00  0.00     0.178 HD
ENDROOT
BRANCH   9  11
HETATM   11  C5  UNL     1      23.217  17.994  33.524  1.00  0.00     0.103 C 
HETATM   12  C6  UNL     1      22.939  16.791  34.376  1.00  0.00     0.033 C 
BRANCH  11  13
HETATM   13  C7  UNL     1      24.692  18.288  33.396  1.00  0.00    -0.019 C 
HETATM   14  C8  UNL     1      25.049  19.571  34.133  1.00  0.00     0.016 C 
HETATM   15  C9  UNL     1      26.510  19.862  33.872  1.00  0.00    -0.013 C 
HETATM   16  C10 UNL     1      26.785  20.093  32.406  1.00  0.00     0.009 C 
HETATM   17  C14 UNL     1      27.401  18.729  34.331  1.00  0.00     0.009 C 
HETATM   18  C11 UNL     1      26.422  18.835  31.661  1.00  0.00    -0.013 C 
HETATM   19  C12 UNL     1      27.214  17.650  32.131  1.00  0.00     0.009 C 
HETATM   20  C16 UNL     1      24.961  18.543  31.919  1.00  0.00     0.016 C 
HETATM   21  C13 UNL     1      26.990  17.470  33.601  1.00  0.00    -0.013 C 
HETATM   22  C15 UNL     1      25.549  17.197  33.954  1.00  0.00     0.016 C 
ENDBRANCH  11  13
ENDBRANCH   9  11
BRANCH   1  23
HETATM   23  C2  UNL     1      23.011  15.472  30.875  1.00  0.00     0.133 C 
HETATM   24  C1  UNL     1      23.737  14.446  31.701  1.00  0.00     0.027 C 
ENDBRANCH   1  23
TORSDOF 3
ENDMDL
MODEL 4
REMARK VINA RESULT: -6.408167402      2.255      3.604
REMARK  3 active torsions:
REMARK  status: ('A' for Active; 'I' for Inactive)
REMARK    1  A    between atoms: C2_2  and  N1_3 
REMARK       I    between atoms: C3_5  and  N2_6 
REMARK       I    between atoms: C3_5  and  N5_11 
REMARK    2  A    between atoms: N5_11  and  C5_13 
REMARK    3  A    between atoms: C5_13  and  C7_15 
ROOT
HETATM    1  N1  UNL     1      22.803  13.979  32.272  1.00  0.00    -0.227 N 
ATOM      2  H1  UNL     1      21.891  13.542  32.404  1.00  0.00     0.177 HD
HETATM    3  C3  UNL     1      22.885  15.164  31.806  1.00  0.00     0.676 C 
HETATM    4  N2  UNL     1      21.730  15.903  31.460  1.00  0.00    -0.166 N 
ATOM      5  H2  UNL     1      21.748  16.473  30.614  1.00  0.00     0.186 HD
HETATM    6  C4  UNL     1      20.669  15.886  32.163  1.00  0.00     0.215 C 
HETATM    7  N3  UNL     1      20.667  15.080  33.349  1.00  0.00    -0.066 NA
HETATM    8  N4  UNL     1      19.524  16.642  31.785  1.00  0.00    -0.066 NA
HETATM    9  N5  UNL     1      24.148  15.766  31.623  1.00  0.00    -0.221 N 
ATOM     10  H5  UNL     1      24.798  15.420  30.918  1.00  0.00     0.178 HD
ENDROOT
BRANCH   9  11
HETATM   11  C5  UNL     1      24.494  16.891  32.470  1.00  0.00     0.103 C 
HETATM   12  C6  UNL     1      25.247  16.421  33.679  1.00  0.00     0.033 C 
BRANCH  11  13
HETATM   13  C7  UNL     1      25.284  17.873  31.639  1.00  0.00    -0.019 C 
HETATM   14  C8  UNL     1      24.414  18.470  30.542  1.00  0.00     0.016 C 
HETATM   15  C9  UNL     1      25.292  19.355  29.685  1.00  0.00    -0.013 C 
HETATM   16  C10 UNL     1      26.392  18.572  29.011  1.00  0.00     0.009 C 
HETATM   17  C14 UNL     1      25.944  20.455  30.494  1.00  0.00     0.009 C 
HETATM   18  C11 UNL     1      27.255  17.962  30.085  1.00  0.00    -0.013 C 
HETATM   19  C12 UNL     1      27.865  19.002  30.980  1.00  0.00     0.009 C 
HETATM   20  C16 UNL     1      26.379  17.076  30.942  1.00  0.00     0.016 C 
HETATM   21  C13 UNL     1      26.769  19.819  31.590  1.00  0.00    -0.013 C 
HETATM   22  C15 UNL     1      25.829  19.008  32.447  1.00  0.00     0.016 C 
ENDBRANCH  11  13
ENDBRANCH   9  11
BRANCH   1  23
HETATM   23  C2  UNL     1      24.004  13.263  32.610  1.00  0.00     0.133 C 
HETATM   24  C1  UNL     1      23.747  12.064  33.479  1.00  0.00     0.027 C 
ENDBRANCH   1  23
TORSDOF 3
ENDMDL
MODEL 5
REMARK VINA RESULT: -6.405996081      0.116      1.597
REMARK  3 active torsions:
REMARK  status: ('A' for Active; 'I' for Inactive)
REMARK    1  A    between atoms: C2_2  and  N1_3 
REMARK       I    between atoms: C3_5  and  N2_6 
REMARK       I    between atoms: C3_5  and  N5_11 
REMARK    2  A    between atoms: N5_11  and  C5_13 
REMARK    3  A    between atoms: C5_13  and  C7_15 
ROOT
HETATM    1  N1  UNL     1      21.303  17.697  33.395  1.00  0.00    -0.227 N 
ATOM      2  H1  UNL     1      20.964  17.890  34.338  1.00  0.00     0.177 HD
HETATM    3  C3  UNL     1      22.442  18.131  33.021  1.00  0.00     0.676 C 
HETATM    4  N2  UNL     1      23.266  18.885  33.888  1.00  0.00    -0.166 N 
ATOM      5  H2  UNL     1      23.778  19.682  33.508  1.00  0.00     0.186 HD
HETATM    6  C4  UNL     1      23.395  18.609  35.124  1.00  0.00     0.215 C 
HETATM    7  N3  UNL     1      22.669  17.484  35.637  1.00  0.00    -0.066 NA
HETATM    8  N4  UNL     1      24.233  19.391  35.968  1.00  0.00    -0.066 NA
HETATM    9  N5  UNL     1      22.908  17.861  31.716  1.00  0.00    -0.221 N 
ATOM     10  H5  UNL     1      22.457  18.278  30.902  1.00  0.00     0.178 HD
ENDROOT
BRANCH   9  11
HETATM   11  C5  UNL     1      24.045  16.974  31.569  1.00  0.00     0.103 C 
HETATM   12  C6  UNL     1      23.685  15.808  30.696  1.00  0.00     0.033 C 
BRANCH  11  13
HETATM   13  C7  UNL     1      25.195  17.780  31.017  1.00  0.00    -0.019 C 
HETATM   14  C8  UNL     1      24.684  18.927  30.156  1.00  0.00     0.016 C 
HETATM   15  C9  UNL     1      25.882  19.621  29.550  1.00  0.00    -0.013 C 
HETATM   16  C10 UNL     1      26.671  18.700  28.651  1.00  0.00     0.009 C 
HETATM   17  C14 UNL     1      26.827  20.143  30.610  1.00  0.00     0.009 C 
HETATM   18  C11 UNL     1      27.173  17.552  29.486  1.00  0.00    -0.013 C 
HETATM   19  C12 UNL     1      28.051  18.012  30.614  1.00  0.00     0.009 C 
HETATM   20  C16 UNL     1      25.975  16.855  30.093  1.00  0.00     0.016 C 
HETATM   21  C13 UNL     1      27.283  18.979  31.461  1.00  0.00    -0.013 C 
HETATM   22  C15 UNL     1      26.053  18.373  32.090  1.00  0.00     0.016 C 
ENDBRANCH  11  13
ENDBRANCH   9  11
BRANCH   1  23
HETATM   23  C2  UNL     1      20.497  16.933  32.481  1.00  0.00     0.133 C 
HETATM   24  C1  UNL     1      19.051  17.345  32.488  1.00  0.00     0.027 C 
ENDBRANCH   1  23
TORSDOF 3
ENDMDL
