MODEL 1
REMARK VINA RESULT: -5.397098829      0.000      0.000
REMARK  12 active torsions:
REMARK  status: ('A' for Active; 'I' for Inactive)
REMARK    1  A    between atoms: C2_2  and  N1_3 
REMARK    2  A    between atoms: C3_4  and  C4_5 
REMARK    3  A    between atoms: C5_6  and  C6_7 
REMARK    4  A    between atoms: C6_7  and  C7_8 
REMARK    5  A    between atoms: C7_8  and  C8_9 
REMARK    6  A    between atoms: C8_9  and  C9_10 
REMARK    7  A    between atoms: C9_10  and  C10_11 
REMARK    8  A    between atoms: C10_11  and  C11_12 
REMARK    9  A    between atoms: C11_12  and  C12_13 
REMARK   10  A    between atoms: C12_13  and  C13_14 
REMARK   11  A    between atoms: C13_14  and  C14_15 
REMARK   12  A    between atoms: C14_15  and  N2_16 
REMARK       I    between atoms: N2_16  and  C15_18 
ROOT
HETATM    1  C6  UNL     1      24.331  11.794  32.406  1.00  0.00    -0.001 C 
ENDROOT
BRANCH   1   2
HETATM    2  C5  UNL     1      24.884  10.525  32.117  1.00  0.00    -0.006 C 
HETATM    3  C4  UNL     1      25.375   9.445  31.857  1.00  0.00    -0.016 C 
BRANCH   3   4
HETATM    4  C3  UNL     1      25.974   8.180  31.540  1.00  0.00     0.165 A 
HETATM    5  N1  UNL     1      26.045   7.065  32.283  1.00  0.00    -0.329 N 
HETATM    6  C18 UNL     1      26.696   6.100  31.606  1.00  0.00     0.032 A 
HETATM    7  C16 UNL     1      27.045   6.643  30.385  1.00  0.00     0.030 A 
HETATM    8  C19 UNL     1      27.017   4.708  32.012  1.00  0.00     0.070 C 
HETATM    9  N5  UNL     1      26.589   7.916  30.376  1.00  0.00    -0.337 N 
HETATM   10  C17 UNL     1      27.780   5.961  29.292  1.00  0.00     0.070 C 
ATOM     11  H5  UNL     1      26.695   8.575  29.604  1.00  0.00     0.168 HD
BRANCH   5  12
HETATM   12  C2  UNL     1      25.510   6.900  33.617  1.00  0.00     0.126 C 
HETATM   13  C1  UNL     1      26.551   7.348  34.640  1.00  0.00     0.027 C 
ENDBRANCH   5  12
ENDBRANCH   3   4
ENDBRANCH   1   2
BRANCH   1  14
HETATM   14  C7  UNL     1      23.841  12.877  32.642  1.00  0.00    -0.000 C 
BRANCH  14  15
HETATM   15  C8  UNL     1      23.258  14.141  32.897  1.00  0.00    -0.000 C 
BRANCH  15  16
HETATM   16  C9  UNL     1      22.738  15.228  33.106  1.00  0.00    -0.001 C 
BRANCH  16  17
HETATM   17  C10 UNL     1      22.143  16.491  33.327  1.00  0.00    -0.014 C 
BRANCH  17  18
HETATM   18  C11 UNL     1      21.627  17.577  33.495  1.00  0.00    -0.092 C 
BRANCH  18  19
HETATM   19  C12 UNL     1      21.021  18.892  33.717  1.00  0.00     0.096 C 
BRANCH  19  20
HETATM   20  C13 UNL     1      19.767  18.685  34.515  1.00  0.00     0.032 C 
BRANCH  20  21
HETATM   21  C14 UNL     1      18.978  17.531  33.944  1.00  0.00     0.123 C 
BRANCH  21  22
HETATM   22  N2  UNL     1      17.825  18.052  33.242  1.00  0.00    -0.367 N 
HETATM   23  C15 UNL     1      17.680  17.780  31.996  1.00  0.00     0.196 C 
HETATM   24  N3  UNL     1      16.560  18.275  31.271  1.00  0.00    -0.067 NA
HETATM   25  N4  UNL     1      18.634  16.985  31.333  1.00  0.00    -0.067 NA
ATOM     26  H2  UNL     1      17.139  18.627  33.729  1.00  0.00     0.161 HD
ENDBRANCH  21  22
ENDBRANCH  20  21
ENDBRANCH  19  20
ENDBRANCH  18  19
ENDBRANCH  17  18
ENDBRANCH  16  17
ENDBRANCH  15  16
ENDBRANCH  14  15
ENDBRANCH   1  14
TORSDOF 12
ENDMDL
MODEL 2
REMARK VINA RESULT: -5.355560908      1.170      2.197
REMARK  12 active torsions:
REMARK  status: ('A' for Active; 'I' for Inactive)
REMARK    1  A    between atoms: C2_2  and  N1_3 
REMARK    2  A    between atoms: C3_4  and  C4_5 
REMARK    3  A    between atoms: C5_6  and  C6_7 
REMARK    4  A    between atoms: C6_7  and  C7_8 
REMARK    5  A    between atoms: C7_8  and  C8_9 
REMARK    6  A    between atoms: C8_9  and  C9_10 
REMARK    7  A    between atoms: C9_10  and  C10_11 
REMARK    8  A    between atoms: C10_11  and  C11_12 
REMARK    9  A    between atoms: C11_12  and  C12_13 
REMARK   10  A    between atoms: C12_13  and  C13_14 
REMARK   11  A    between atoms: C13_14  and  C14_15 
REMARK   12  A    between atoms: C14_15  and  N2_16 
REMARK       I    between atoms: N2_16  and  C15_18 
ROOT
HETATM    1  C6  UNL     1      23.991  11.593  33.555  1.00  0.00    -0.001 C 
ENDROOT
BRANCH   1   2
HETATM    2  C5  UNL     1      24.510  10.279  33.609  1.00  0.00    -0.006 C 
HETATM    3  C4  UNL     1      24.955   9.149  33.634  1.00  0.00    -0.016 C 
BRANCH   3   4
HETATM    4  C3  UNL     1      25.481   7.814  33.638  1.00  0.00     0.165 A 
HETATM    5  N1  UNL     1      26.026   7.113  32.632  1.00  0.00    -0.329 N 
HETATM    6  C18 UNL     1      26.394   5.893  33.065  1.00  0.00     0.032 A 
HETATM    7  C16 UNL     1      26.061   5.834  34.405  1.00  0.00     0.030 A 
HETATM    8  C19 UNL     1      27.032   4.776  32.324  1.00  0.00     0.070 C 
HETATM    9  N5  UNL     1      25.506   7.025  34.724  1.00  0.00    -0.337 N 
HETATM   10  C17 UNL     1      26.273   4.685  35.318  1.00  0.00     0.070 C 
ATOM     11  H5  UNL     1      25.158   7.284  35.648  1.00  0.00     0.168 HD
BRANCH   5  12
HETATM   12  C2  UNL     1      26.202   7.579  31.273  1.00  0.00     0.126 C 
HETATM   13  C1  UNL     1      27.541   8.305  31.155  1.00  0.00     0.027 C 
ENDBRANCH   5  12
ENDBRANCH   3   4
ENDBRANCH   1   2
BRANCH   1  14
HETATM   14  C7  UNL     1      23.548  12.721  33.529  1.00  0.00    -0.000 C 
BRANCH  14  15
HETATM   15  C8  UNL     1      23.029  14.038  33.522  1.00  0.00    -0.000 C 
BRANCH  15  16
HETATM   16  C9  UNL     1      22.563  15.168  33.513  1.00  0.00    -0.001 C 
BRANCH  16  17
HETATM   17  C10 UNL     1      22.033  16.479  33.523  1.00  0.00    -0.014 C 
BRANCH  17  18
HETATM   18  C11 UNL     1      21.585  17.607  33.552  1.00  0.00    -0.092 C 
BRANCH  18  19
HETATM   19  C12 UNL     1      21.046  18.968  33.561  1.00  0.00     0.096 C 
BRANCH  19  20
HETATM   20  C13 UNL     1      19.748  18.936  34.314  1.00  0.00     0.032 C 
BRANCH  20  21
HETATM   21  C14 UNL     1      18.939  17.731  33.895  1.00  0.00     0.123 C 
BRANCH  21  22
HETATM   22  N2  UNL     1      17.740  18.182  33.223  1.00  0.00    -0.367 N 
HETATM   23  C15 UNL     1      17.546  17.840  32.001  1.00  0.00     0.196 C 
HETATM   24  N3  UNL     1      16.379  18.264  31.305  1.00  0.00    -0.067 NA
HETATM   25  N4  UNL     1      18.493  17.038  31.336  1.00  0.00    -0.067 NA
ATOM     26  H2  UNL     1      17.059  18.763  33.712  1.00  0.00     0.161 HD
ENDBRANCH  21  22
ENDBRANCH  20  21
ENDBRANCH  19  20
ENDBRANCH  18  19
ENDBRANCH  17  18
ENDBRANCH  16  17
ENDBRANCH  15  16
ENDBRANCH  14  15
ENDBRANCH   1  14
TORSDOF 12
ENDMDL
MODEL 3
REMARK VINA RESULT: -5.155746675      1.656     11.887
REMARK  12 active torsions:
REMARK  status: ('A' for Active; 'I' for Inactive)
REMARK    1  A    between atoms: C2_2  and  N1_3 
REMARK    2  A    between atoms: C3_4  and  C4_5 
REMARK    3  A    between atoms: C5_6  and  C6_7 
REMARK    4  A    between atoms: C6_7  and  C7_8 
REMARK    5  A    between atoms: C7_8  and  C8_9 
REMARK    6  A    between atoms: C8_9  and  C9_10 
REMARK    7  A    between atoms: C9_10  and  C10_11 
REMARK    8  A    between atoms: C10_11  and  C11_12 
REMARK    9  A    between atoms: C11_12  and  C12_13 
REMARK   10  A    between atoms: C12_13  and  C13_14 
REMARK   11  A    between atoms: C13_14  and  C14_15 
REMARK   12  A    between atoms: C14_15  and  N2_16 
REMARK       I    between atoms: N2_16  and  C15_18 
ROOT
HETATM    1  C6  UNL     1      23.509  13.405  33.228  1.00  0.00    -0.001 C 
ENDROOT
BRANCH   1   2
HETATM    2  C5  UNL     1      22.568  14.460  33.198  1.00  0.00    -0.006 C 
HETATM    3  C4  UNL     1      21.744  15.352  33.161  1.00  0.00    -0.016 C 
BRANCH   3   4
HETATM    4  C3  UNL     1      20.756  16.391  33.111  1.00  0.00     0.165 A 
HETATM    5  N1  UNL     1      20.678  17.525  33.824  1.00  0.00    -0.329 N 
HETATM    6  C18 UNL     1      19.587  18.225  33.463  1.00  0.00     0.032 A 
HETATM    7  C16 UNL     1      18.957  17.490  32.477  1.00  0.00     0.030 A 
HETATM    8  C19 UNL     1      19.086  19.528  33.967  1.00  0.00     0.070 C 
HETATM    9  N5  UNL     1      19.698  16.375  32.285  1.00  0.00    -0.337 N 
HETATM   10  C17 UNL     1      17.708  17.854  31.765  1.00  0.00     0.070 C 
ATOM     11  H5  UNL     1      19.485  15.635  31.615  1.00  0.00     0.168 HD
BRANCH   5  12
HETATM   12  C2  UNL     1      21.617  17.953  34.839  1.00  0.00     0.126 C 
HETATM   13  C1  UNL     1      22.848  18.560  34.168  1.00  0.00     0.027 C 
ENDBRANCH   5  12
ENDBRANCH   3   4
ENDBRANCH   1   2
BRANCH   1  14
HETATM   14  C7  UNL     1      24.301  12.488  33.253  1.00  0.00    -0.000 C 
BRANCH  14  15
HETATM   15  C8  UNL     1      25.208  11.402  33.279  1.00  0.00    -0.000 C 
BRANCH  15  16
HETATM   16  C9  UNL     1      25.984  10.458  33.319  1.00  0.00    -0.001 C 
BRANCH  16  17
HETATM   17  C10 UNL     1      26.864   9.353  33.370  1.00  0.00    -0.014 C 
BRANCH  17  18
HETATM   18  C11 UNL     1      27.636   8.417  33.420  1.00  0.00    -0.092 C 
BRANCH  18  19
HETATM   19  C12 UNL     1      28.572   7.295  33.503  1.00  0.00     0.096 C 
BRANCH  19  20
HETATM   20  C13 UNL     1      27.915   6.107  32.862  1.00  0.00     0.032 C 
BRANCH  20  21
HETATM   21  C14 UNL     1      26.846   6.568  31.900  1.00  0.00     0.123 C 
BRANCH  21  22
HETATM   22  N2  UNL     1      27.100   5.985  30.601  1.00  0.00    -0.367 N 
HETATM   23  C15 UNL     1      27.546   6.735  29.659  1.00  0.00     0.196 C 
HETATM   24  N3  UNL     1      27.808   6.197  28.368  1.00  0.00    -0.067 NA
HETATM   25  N4  UNL     1      27.781   8.102  29.899  1.00  0.00    -0.067 NA
ATOM     26  H2  UNL     1      26.928   4.993  30.436  1.00  0.00     0.161 HD
ENDBRANCH  21  22
ENDBRANCH  20  21
ENDBRANCH  19  20
ENDBRANCH  18  19
ENDBRANCH  17  18
ENDBRANCH  16  17
ENDBRANCH  15  16
ENDBRANCH  14  15
ENDBRANCH   1  14
TORSDOF 12
ENDMDL
MODEL 4
REMARK VINA RESULT: -4.974174591      1.753     11.966
REMARK  12 active torsions:
REMARK  status: ('A' for Active; 'I' for Inactive)
REMARK    1  A    between atoms: C2_2  and  N1_3 
REMARK    2  A    between atoms: C3_4  and  C4_5 
REMARK    3  A    between atoms: C5_6  and  C6_7 
REMARK    4  A    between atoms: C6_7  and  C7_8 
REMARK    5  A    between atoms: C7_8  and  C8_9 
REMARK    6  A    between atoms: C8_9  and  C9_10 
REMARK    7  A    between atoms: C9_10  and  C10_11 
REMARK    8  A    between atoms: C10_11  and  C11_12 
REMARK    9  A    between atoms: C11_12  and  C12_13 
REMARK   10  A    between atoms: C12_13  and  C13_14 
REMARK   11  A    between atoms: C13_14  and  C14_15 
REMARK   12  A    between atoms: C14_15  and  N2_16 
REMARK       I    between atoms: N2_16  and  C15_18 
ROOT
HETATM    1  C6  UNL     1      23.383  13.586  33.021  1.00  0.00    -0.001 C 
ENDROOT
BRANCH   1   2
HETATM    2  C5  UNL     1      22.438  14.636  33.085  1.00  0.00    -0.006 C 
HETATM    3  C4  UNL     1      21.621  15.535  33.118  1.00  0.00    -0.016 C 
BRANCH   3   4
HETATM    4  C3  UNL     1      20.651  16.591  33.135  1.00  0.00     0.165 A 
HETATM    5  N1  UNL     1      20.634  17.718  33.864  1.00  0.00    -0.329 N 
HETATM    6  C18 UNL     1      19.537  18.441  33.572  1.00  0.00     0.032 A 
HETATM    7  C16 UNL     1      18.839  17.729  32.616  1.00  0.00     0.030 A 
HETATM    8  C19 UNL     1      19.089  19.747  34.118  1.00  0.00     0.070 C 
HETATM    9  N5  UNL     1      19.547  16.604  32.370  1.00  0.00    -0.337 N 
HETATM   10  C17 UNL     1      17.559  18.124  31.979  1.00  0.00     0.070 C 
ATOM     11  H5  UNL     1      19.284  15.875  31.706  1.00  0.00     0.168 HD
BRANCH   5  12
HETATM   12  C2  UNL     1      21.636  18.117  34.829  1.00  0.00     0.126 C 
HETATM   13  C1  UNL     1      22.857  18.667  34.093  1.00  0.00     0.027 C 
ENDBRANCH   5  12
ENDBRANCH   3   4
ENDBRANCH   1   2
BRANCH   1  14
HETATM   14  C7  UNL     1      24.188  12.684  32.948  1.00  0.00    -0.000 C 
BRANCH  14  15
HETATM   15  C8  UNL     1      25.146  11.645  32.868  1.00  0.00    -0.000 C 
BRANCH  15  16
HETATM   16  C9  UNL     1      25.960  10.736  32.789  1.00  0.00    -0.001 C 
BRANCH  16  17
HETATM   17  C10 UNL     1      26.888   9.675  32.681  1.00  0.00    -0.014 C 
BRANCH  17  18
HETATM   18  C11 UNL     1      27.671   8.753  32.577  1.00  0.00    -0.092 C 
BRANCH  18  19
HETATM   19  C12 UNL     1      28.605   7.630  32.473  1.00  0.00     0.096 C 
BRANCH  19  20
HETATM   20  C13 UNL     1      28.029   6.650  31.493  1.00  0.00     0.032 C 
BRANCH  20  21
HETATM   21  C14 UNL     1      26.644   6.237  31.933  1.00  0.00     0.123 C 
BRANCH  21  22
HETATM   22  N2  UNL     1      26.759   5.332  33.056  1.00  0.00    -0.367 N 
HETATM   23  C15 UNL     1      26.056   5.554  34.107  1.00  0.00     0.196 C 
HETATM   24  N3  UNL     1      26.142   4.687  35.233  1.00  0.00    -0.067 NA
HETATM   25  N4  UNL     1      25.191   6.664  34.155  1.00  0.00    -0.067 NA
ATOM     26  H2  UNL     1      27.387   4.531  33.013  1.00  0.00     0.161 HD
ENDBRANCH  21  22
ENDBRANCH  20  21
ENDBRANCH  19  20
ENDBRANCH  18  19
ENDBRANCH  17  18
ENDBRANCH  16  17
ENDBRANCH  15  16
ENDBRANCH  14  15
ENDBRANCH   1  14
TORSDOF 12
ENDMDL
MODEL 5
REMARK VINA RESULT: -4.972129460      5.422      6.347
REMARK  12 active torsions:
REMARK  status: ('A' for Active; 'I' for Inactive)
REMARK    1  A    between atoms: C2_2  and  N1_3 
REMARK    2  A    between atoms: C3_4  and  C4_5 
REMARK    3  A    between atoms: C5_6  and  C6_7 
REMARK    4  A    between atoms: C6_7  and  C7_8 
REMARK    5  A    between atoms: C7_8  and  C8_9 
REMARK    6  A    between atoms: C8_9  and  C9_10 
REMARK    7  A    between atoms: C9_10  and  C10_11 
REMARK    8  A    between atoms: C10_11  and  C11_12 
REMARK    9  A    between atoms: C11_12  and  C12_13 
REMARK   10  A    between atoms: C12_13  and  C13_14 
REMARK   11  A    between atoms: C13_14  and  C14_15 
REMARK   12  A    between atoms: C14_15  and  N2_16 
REMARK       I    between atoms: N2_16  and  C15_18 
ROOT
HETATM    1  C6  UNL     1      26.727  13.406  28.679  1.00  0.00    -0.001 C 
ENDROOT
BRANCH   1   2
HETATM    2  C5  UNL     1      27.650  12.916  27.727  1.00  0.00    -0.006 C 
HETATM    3  C4  UNL     1      28.433  12.506  26.893  1.00  0.00    -0.016 C 
BRANCH   3   4
HETATM    4  C3  UNL     1      29.347  12.037  25.892  1.00  0.00     0.165 A 
HETATM    5  N1  UNL     1      30.663  11.790  25.992  1.00  0.00    -0.329 N 
HETATM    6  C18 UNL     1      31.144  11.361  24.810  1.00  0.00     0.032 A 
HETATM    7  C16 UNL     1      30.075  11.341  23.935  1.00  0.00     0.030 A 
HETATM    8  C19 UNL     1      32.526  10.968  24.435  1.00  0.00     0.070 C 
HETATM    9  N5  UNL     1      28.992  11.759  24.628  1.00  0.00    -0.337 N 
HETATM   10  C17 UNL     1      30.110  10.937  22.508  1.00  0.00     0.070 C 
ATOM     11  H5  UNL     1      28.049  11.850  24.248  1.00  0.00     0.168 HD
BRANCH   5  12
HETATM   12  C2  UNL     1      31.466  11.954  27.184  1.00  0.00     0.126 C 
HETATM   13  C1  UNL     1      31.996  13.386  27.246  1.00  0.00     0.027 C 
ENDBRANCH   5  12
ENDBRANCH   3   4
ENDBRANCH   1   2
BRANCH   1  14
HETATM   14  C7  UNL     1      25.938  13.844  29.488  1.00  0.00    -0.000 C 
BRANCH  14  15
HETATM   15  C8  UNL     1      25.000  14.360  30.414  1.00  0.00    -0.000 C 
BRANCH  15  16
HETATM   16  C9  UNL     1      24.177  14.807  31.199  1.00  0.00    -0.001 C 
BRANCH  16  17
HETATM   17  C10 UNL     1      23.215  15.337  32.090  1.00  0.00    -0.014 C 
BRANCH  17  18
HETATM   18  C11 UNL     1      22.374  15.787  32.842  1.00  0.00    -0.092 C 
BRANCH  18  19
HETATM   19  C12 UNL     1      21.351  16.344  33.728  1.00  0.00     0.096 C 
BRANCH  19  20
HETATM   20  C13 UNL     1      20.012  15.926  33.195  1.00  0.00     0.032 C 
BRANCH  20  21
HETATM   21  C14 UNL     1      19.485  16.977  32.245  1.00  0.00     0.123 C 
BRANCH  21  22
HETATM   22  N2  UNL     1      19.462  18.254  32.925  1.00  0.00    -0.367 N 
HETATM   23  C15 UNL     1      18.370  18.928  32.943  1.00  0.00     0.196 C 
HETATM   24  N3  UNL     1      18.308  20.189  33.601  1.00  0.00    -0.067 NA
HETATM   25  N4  UNL     1      17.219  18.424  32.309  1.00  0.00    -0.067 NA
ATOM     26  H2  UNL     1      20.300  18.612  33.382  1.00  0.00     0.161 HD
ENDBRANCH  21  22
ENDBRANCH  20  21
ENDBRANCH  19  20
ENDBRANCH  18  19
ENDBRANCH  17  18
ENDBRANCH  16  17
ENDBRANCH  15  16
ENDBRANCH  14  15
ENDBRANCH   1  14
TORSDOF 12
ENDMDL
