MODEL 1
REMARK VINA RESULT: -5.929804766      0.000      0.000
REMARK  2 active torsions:
REMARK  status: ('A' for Active; 'I' for Inactive)
REMARK    1  A    between atoms: C5_6  and  N1_7 
REMARK    2  A    between atoms: N1_7  and  N2_9 
ROOT
HETATM    1  N1  UNL     1      10.975  14.728   3.422  1.00  0.00    -0.347 N 
ATOM      2  H1  UNL     1      11.270  13.974   4.043  1.00  0.00     0.174 HD
ENDROOT
BRANCH   1   3
HETATM    3  C5  UNL     1       9.607  15.018   3.195  1.00  0.00     0.124 C 
HETATM    4  C2  UNL     1       8.954  13.842   2.498  1.00  0.00     0.141 C 
HETATM    5  C1  UNL     1       8.247  14.322   1.240  1.00  0.00     0.041 C 
HETATM    6  O1  UNL     1       8.019  13.321   3.355  1.00  0.00    -0.384 OA
HETATM    7  C3  UNL     1       8.447  13.638   4.662  1.00  0.00     0.170 C 
HETATM    8  C4  UNL     1       8.768  15.122   4.439  1.00  0.00     0.055 C 
ENDBRANCH   1   3
BRANCH   1   9
HETATM    9  N2  UNL     1      11.880  15.517   2.761  1.00  0.00    -0.235 NA
HETATM   10  C6  UNL     1      11.602  16.905   2.976  1.00  0.00     0.113 C 
HETATM   11  C7  UNL     1      12.683  17.629   3.720  1.00  0.00     0.016 C 
HETATM   12  C8  UNL     1      13.956  17.593   2.942  1.00  0.00     0.002 C 
HETATM   13  C9  UNL     1      14.133  16.237   2.340  1.00  0.00     0.016 C 
HETATM   14  C10 UNL     1      13.253  15.253   3.121  1.00  0.00     0.113 C 
ENDBRANCH   1   9
TORSDOF 2
ENDMDL
MODEL 2
REMARK VINA RESULT: -5.793071593      0.354      1.370
REMARK  2 active torsions:
REMARK  status: ('A' for Active; 'I' for Inactive)
REMARK    1  A    between atoms: C5_6  and  N1_7 
REMARK    2  A    between atoms: N1_7  and  N2_9 
ROOT
HETATM    1  N1  UNL     1      11.028  14.584   2.833  1.00  0.00    -0.347 N 
ATOM      2  H1  UNL     1      11.384  13.735   2.393  1.00  0.00     0.174 HD
ENDROOT
BRANCH   1   3
HETATM    3  C5  UNL     1       9.641  14.869   2.896  1.00  0.00     0.124 C 
HETATM    4  C2  UNL     1       8.868  13.741   2.244  1.00  0.00     0.141 C 
HETATM    5  C1  UNL     1       7.933  14.307   1.187  1.00  0.00     0.041 C 
HETATM    6  O1  UNL     1       8.115  13.139   3.220  1.00  0.00    -0.384 OA
HETATM    7  C3  UNL     1       8.785  13.359   4.441  1.00  0.00     0.170 C 
HETATM    8  C4  UNL     1       9.057  14.860   4.282  1.00  0.00     0.055 C 
ENDBRANCH   1   3
BRANCH   1   9
HETATM    9  N2  UNL     1      11.864  15.511   3.397  1.00  0.00    -0.235 NA
HETATM   10  C6  UNL     1      13.236  15.186   3.143  1.00  0.00     0.113 C 
HETATM   11  C7  UNL     1      13.948  16.198   2.297  1.00  0.00     0.016 C 
HETATM   12  C8  UNL     1      13.974  17.520   2.989  1.00  0.00     0.002 C 
HETATM   13  C9  UNL     1      12.649  17.769   3.634  1.00  0.00     0.016 C 
HETATM   14  C10 UNL     1      11.614  16.863   2.957  1.00  0.00     0.113 C 
ENDBRANCH   1   9
TORSDOF 2
ENDMDL
MODEL 3
REMARK VINA RESULT: -5.766637461      1.785      2.151
REMARK  2 active torsions:
REMARK  status: ('A' for Active; 'I' for Inactive)
REMARK    1  A    between atoms: C5_6  and  N1_7 
REMARK    2  A    between atoms: N1_7  and  N2_9 
ROOT
HETATM    1  N1  UNL     1      10.610  15.184   2.509  1.00  0.00    -0.347 N 
ATOM      2  H1  UNL     1      11.276  14.577   2.987  1.00  0.00     0.174 HD
ENDROOT
BRANCH   1   3
HETATM    3  C5  UNL     1       9.213  15.064   2.707  1.00  0.00     0.124 C 
HETATM    4  C2  UNL     1       8.746  13.720   2.185  1.00  0.00     0.141 C 
HETATM    5  C1  UNL     1       7.596  13.921   1.213  1.00  0.00     0.041 C 
HETATM    6  O1  UNL     1       8.293  12.995   3.259  1.00  0.00    -0.384 OA
HETATM    7  C3  UNL     1       8.977  13.481   4.393  1.00  0.00     0.170 C 
HETATM    8  C4  UNL     1       8.783  14.983   4.146  1.00  0.00     0.055 C 
ENDBRANCH   1   3
BRANCH   1   9
HETATM    9  N2  UNL     1      11.017  16.162   1.640  1.00  0.00    -0.235 NA
HETATM   10  C6  UNL     1      12.353  16.586   1.935  1.00  0.00     0.113 C 
HETATM   11  C7  UNL     1      13.336  16.288   0.844  1.00  0.00     0.016 C 
HETATM   12  C8  UNL     1      12.955  17.012  -0.405  1.00  0.00     0.002 C 
HETATM   13  C9  UNL     1      11.473  16.943  -0.586  1.00  0.00     0.016 C 
HETATM   14  C10 UNL     1      10.946  15.771   0.252  1.00  0.00     0.113 C 
ENDBRANCH   1   9
TORSDOF 2
ENDMDL
MODEL 4
REMARK VINA RESULT: -5.732397755      2.846      5.369
REMARK  2 active torsions:
REMARK  status: ('A' for Active; 'I' for Inactive)
REMARK    1  A    between atoms: C5_6  and  N1_7 
REMARK    2  A    between atoms: N1_7  and  N2_9 
ROOT
HETATM    1  N1  UNL     1      10.979  14.920   0.161  1.00  0.00    -0.347 N 
ATOM      2  H1  UNL     1      11.603  14.483  -0.517  1.00  0.00     0.174 HD
ENDROOT
BRANCH   1   3
HETATM    3  C5  UNL     1      11.120  16.278   0.541  1.00  0.00     0.124 C 
HETATM    4  C2  UNL     1      12.373  16.437   1.378  1.00  0.00     0.141 C 
HETATM    5  C1  UNL     1      12.030  17.131   2.686  1.00  0.00     0.041 C 
HETATM    6  O1  UNL     1      13.241  17.232   0.673  1.00  0.00    -0.384 OA
HETATM    7  C3  UNL     1      12.926  17.065  -0.691  1.00  0.00     0.170 C 
HETATM    8  C4  UNL     1      11.403  17.226  -0.591  1.00  0.00     0.055 C 
ENDBRANCH   1   3
BRANCH   1   9
HETATM    9  N2  UNL     1       9.957  14.227   0.755  1.00  0.00    -0.235 NA
HETATM   10  C6  UNL     1      10.319  13.812   2.077  1.00  0.00     0.113 C 
HETATM   11  C7  UNL     1       9.487  14.437   3.155  1.00  0.00     0.016 C 
HETATM   12  C8  UNL     1       8.056  14.045   2.993  1.00  0.00     0.002 C 
HETATM   13  C9  UNL     1       7.692  14.081   1.544  1.00  0.00     0.016 C 
HETATM   14  C10 UNL     1       8.716  14.963   0.819  1.00  0.00     0.113 C 
ENDBRANCH   1   9
TORSDOF 2
ENDMDL
MODEL 5
REMARK VINA RESULT: -5.644376664      2.000      2.604
REMARK  2 active torsions:
REMARK  status: ('A' for Active; 'I' for Inactive)
REMARK    1  A    between atoms: C5_6  and  N1_7 
REMARK    2  A    between atoms: N1_7  and  N2_9 
ROOT
HETATM    1  N1  UNL     1       9.607  15.072   1.875  1.00  0.00    -0.347 N 
ATOM      2  H1  UNL     1       8.754  15.072   1.315  1.00  0.00     0.174 HD
ENDROOT
BRANCH   1   3
HETATM    3  C5  UNL     1       9.579  14.901   3.281  1.00  0.00     0.124 C 
HETATM    4  C2  UNL     1       8.146  14.709   3.734  1.00  0.00     0.141 C 
HETATM    5  C1  UNL     1       7.821  15.702   4.838  1.00  0.00     0.041 C 
HETATM    6  O1  UNL     1       8.040  13.439   4.242  1.00  0.00    -0.384 OA
HETATM    7  C3  UNL     1       9.034  12.665   3.606  1.00  0.00     0.170 C 
HETATM    8  C4  UNL     1      10.214  13.631   3.776  1.00  0.00     0.055 C 
ENDBRANCH   1   3
BRANCH   1   9
HETATM    9  N2  UNL     1      10.844  15.238   1.309  1.00  0.00    -0.235 NA
HETATM   10  C6  UNL     1      10.738  15.426  -0.107  1.00  0.00     0.113 C 
HETATM   11  C7  UNL     1      11.200  16.773  -0.573  1.00  0.00     0.016 C 
HETATM   12  C8  UNL     1      12.645  16.961  -0.253  1.00  0.00     0.002 C 
HETATM   13  C9  UNL     1      12.927  16.417   1.110  1.00  0.00     0.016 C 
HETATM   14  C10 UNL     1      11.599  16.332   1.871  1.00  0.00     0.113 C 
ENDBRANCH   1   9
TORSDOF 2
ENDMDL
