MODEL 1
REMARK VINA RESULT: -6.315045220      0.000      0.000
REMARK  2 active torsions:
REMARK  status: ('A' for Active; 'I' for Inactive)
REMARK    1  A    between atoms: N2_5  and  C3_7 
REMARK    2  A    between atoms: C3_7  and  C4_8 
ROOT
HETATM    1  C1  UNL     1      14.592  16.628   2.611  1.00  0.00     0.208 A 
HETATM    2  N1  UNL     1      13.484  16.596   3.372  1.00  0.00    -0.315 N 
ATOM      3  H1  UNL     1      13.431  16.920   4.337  1.00  0.00     0.170 HD
HETATM    4  C2  UNL     1      12.459  16.078   2.683  1.00  0.00     0.244 A 
HETATM    5  N2  UNL     1      11.281  15.924   3.150  1.00  0.00    -0.354 N 
ATOM      6  H2  UNL     1      11.116  16.216   4.113  1.00  0.00     0.163 HD
HETATM    7  O1  UNL     1      12.938  15.789   1.490  1.00  0.00    -0.200 OA
HETATM    8  N3  UNL     1      14.197  16.104   1.416  1.00  0.00    -0.253 N 
ATOM      9  H3  UNL     1      14.793  15.978   0.598  1.00  0.00     0.195 HD
ENDROOT
BRANCH   5  10
HETATM   10  C3  UNL     1      10.173  15.373   2.431  1.00  0.00     0.128 C 
BRANCH  10  11
HETATM   11  C4  UNL     1       9.552  14.258   3.229  1.00  0.00     0.003 C 
HETATM   12  C5  UNL     1       8.189  13.871   2.724  1.00  0.00     0.006 C 
HETATM   13  C6  UNL     1       7.273  15.053   2.798  1.00  0.00     0.000 C 
HETATM   14  C7  UNL     1       7.142  15.516   4.205  1.00  0.00     0.000 C 
HETATM   15  C8  UNL     1       8.101  14.918   5.168  1.00  0.00     0.000 C 
HETATM   16  C9  UNL     1       9.456  14.636   4.665  1.00  0.00     0.006 C 
ENDBRANCH  10  11
ENDBRANCH   5  10
TORSDOF 2
ENDMDL
MODEL 2
REMARK VINA RESULT: -6.105323848      1.851      2.231
REMARK  2 active torsions:
REMARK  status: ('A' for Active; 'I' for Inactive)
REMARK    1  A    between atoms: N2_5  and  C3_7 
REMARK    2  A    between atoms: C3_7  and  C4_8 
ROOT
HETATM    1  C1  UNL     1      12.839  17.241  -0.725  1.00  0.00     0.208 A 
HETATM    2  N1  UNL     1      11.602  16.897  -0.326  1.00  0.00    -0.315 N 
ATOM      3  H1  UNL     1      10.738  17.234  -0.751  1.00  0.00     0.170 HD
HETATM    4  C2  UNL     1      11.663  16.051   0.710  1.00  0.00     0.244 A 
HETATM    5  N2  UNL     1      10.644  15.555   1.299  1.00  0.00    -0.354 N 
ATOM      6  H2  UNL     1       9.724  15.828   0.952  1.00  0.00     0.163 HD
HETATM    7  O1  UNL     1      12.946  15.871   0.951  1.00  0.00    -0.200 OA
HETATM    8  N3  UNL     1      13.667  16.562   0.118  1.00  0.00    -0.253 N 
ATOM      9  H3  UNL     1      14.687  16.591   0.098  1.00  0.00     0.195 HD
ENDROOT
BRANCH   5  10
HETATM   10  C3  UNL     1      10.689  14.650   2.406  1.00  0.00     0.128 C 
BRANCH  10  11
HETATM   11  C4  UNL     1       9.373  13.928   2.526  1.00  0.00     0.003 C 
HETATM   12  C5  UNL     1       8.261  14.822   2.999  1.00  0.00     0.006 C 
HETATM   13  C6  UNL     1       8.603  15.378   4.346  1.00  0.00     0.000 C 
HETATM   14  C7  UNL     1       8.776  14.276   5.330  1.00  0.00     0.000 C 
HETATM   15  C8  UNL     1       8.836  12.909   4.757  1.00  0.00     0.000 C 
HETATM   16  C9  UNL     1       9.500  12.767   3.449  1.00  0.00     0.006 C 
ENDBRANCH  10  11
ENDBRANCH   5  10
TORSDOF 2
ENDMDL
MODEL 3
REMARK VINA RESULT: -6.087808994      2.004      2.781
REMARK  2 active torsions:
REMARK  status: ('A' for Active; 'I' for Inactive)
REMARK    1  A    between atoms: N2_5  and  C3_7 
REMARK    2  A    between atoms: C3_7  and  C4_8 
ROOT
HETATM    1  C1  UNL     1      13.020  17.216  -0.754  1.00  0.00     0.208 A 
HETATM    2  N1  UNL     1      11.729  16.901  -0.556  1.00  0.00    -0.315 N 
ATOM      3  H1  UNL     1      10.950  17.266  -1.104  1.00  0.00     0.170 HD
HETATM    4  C2  UNL     1      11.609  16.039   0.462  1.00  0.00     0.244 A 
HETATM    5  N2  UNL     1      10.499  15.564   0.877  1.00  0.00    -0.354 N 
ATOM      6  H2  UNL     1       9.651  15.865   0.398  1.00  0.00     0.163 HD
HETATM    7  O1  UNL     1      12.834  15.822   0.894  1.00  0.00    -0.200 OA
HETATM    8  N3  UNL     1      13.692  16.504   0.195  1.00  0.00    -0.253 N 
ATOM      9  H3  UNL     1      14.703  16.506   0.333  1.00  0.00     0.195 HD
ENDROOT
BRANCH   5  10
HETATM   10  C3  UNL     1      10.350  14.643   1.962  1.00  0.00     0.128 C 
BRANCH  10  11
HETATM   11  C4  UNL     1      10.277  15.396   3.263  1.00  0.00     0.003 C 
HETATM   12  C5  UNL     1      11.375  15.016   4.217  1.00  0.00     0.006 C 
HETATM   13  C6  UNL     1      11.286  13.554   4.528  1.00  0.00     0.000 C 
HETATM   14  C7  UNL     1       9.978  13.241   5.164  1.00  0.00     0.000 C 
HETATM   15  C8  UNL     1       8.970  14.329   5.122  1.00  0.00     0.000 C 
HETATM   16  C9  UNL     1       8.958  15.177   3.918  1.00  0.00     0.006 C 
ENDBRANCH  10  11
ENDBRANCH   5  10
TORSDOF 2
ENDMDL
MODEL 4
REMARK VINA RESULT: -6.054879530      1.533      1.751
REMARK  2 active torsions:
REMARK  status: ('A' for Active; 'I' for Inactive)
REMARK    1  A    between atoms: N2_5  and  C3_7 
REMARK    2  A    between atoms: C3_7  and  C4_8 
ROOT
HETATM    1  C1  UNL     1      12.837  16.746  -0.521  1.00  0.00     0.208 A 
HETATM    2  N1  UNL     1      11.666  16.164  -0.210  1.00  0.00    -0.315 N 
ATOM      3  H1  UNL     1      10.990  15.817  -0.890  1.00  0.00     0.170 HD
HETATM    4  C2  UNL     1      11.512  16.104   1.119  1.00  0.00     0.244 A 
HETATM    5  N2  UNL     1      10.495  15.603   1.706  1.00  0.00    -0.354 N 
ATOM      6  H2  UNL     1       9.753  15.225   1.117  1.00  0.00     0.163 HD
HETATM    7  O1  UNL     1      12.596  16.652   1.631  1.00  0.00    -0.200 OA
HETATM    8  N3  UNL     1      13.399  17.042   0.686  1.00  0.00    -0.253 N 
ATOM      9  H3  UNL     1      14.303  17.495   0.824  1.00  0.00     0.195 HD
ENDROOT
BRANCH   5  10
HETATM   10  C3  UNL     1      10.312  15.530   3.123  1.00  0.00     0.128 C 
BRANCH  10  11
HETATM   11  C4  UNL     1       9.610  14.246   3.480  1.00  0.00     0.003 C 
HETATM   12  C5  UNL     1       8.321  14.060   2.729  1.00  0.00     0.006 C 
HETATM   13  C6  UNL     1       7.392  15.192   3.039  1.00  0.00     0.000 C 
HETATM   14  C7  UNL     1       7.090  15.226   4.495  1.00  0.00     0.000 C 
HETATM   15  C8  UNL     1       7.933  14.348   5.345  1.00  0.00     0.000 C 
HETATM   16  C9  UNL     1       9.341  14.190   4.943  1.00  0.00     0.006 C 
ENDBRANCH  10  11
ENDBRANCH   5  10
TORSDOF 2
ENDMDL
MODEL 5
REMARK VINA RESULT: -6.053695386      2.316      3.048
REMARK  2 active torsions:
REMARK  status: ('A' for Active; 'I' for Inactive)
REMARK    1  A    between atoms: N2_5  and  C3_7 
REMARK    2  A    between atoms: C3_7  and  C4_8 
ROOT
HETATM    1  C1  UNL     1      11.335  16.194  -0.748  1.00  0.00     0.208 A 
HETATM    2  N1  UNL     1      10.205  15.472  -0.663  1.00  0.00    -0.315 N 
ATOM      3  H1  UNL     1       9.579  15.278  -1.445  1.00  0.00     0.170 HD
HETATM    4  C2  UNL     1      10.016  15.043   0.591  1.00  0.00     0.244 A 
HETATM    5  N2  UNL     1       9.024  14.334   0.970  1.00  0.00    -0.354 N 
ATOM      6  H2  UNL     1       8.332  14.081   0.264  1.00  0.00     0.163 HD
HETATM    7  O1  UNL     1      11.037  15.504   1.285  1.00  0.00    -0.200 OA
HETATM    8  N3  UNL     1      11.835  16.189   0.521  1.00  0.00    -0.253 N 
ATOM      9  H3  UNL     1      12.696  16.648   0.821  1.00  0.00     0.195 HD
ENDROOT
BRANCH   5  10
HETATM   10  C3  UNL     1       8.804  13.867   2.304  1.00  0.00     0.128 C 
BRANCH  10  11
HETATM   11  C4  UNL     1       8.636  15.039   3.233  1.00  0.00     0.003 C 
HETATM   12  C5  UNL     1       9.559  14.978   4.418  1.00  0.00     0.006 C 
HETATM   13  C6  UNL     1       9.288  13.730   5.201  1.00  0.00     0.000 C 
HETATM   14  C7  UNL     1       7.885  13.725   5.693  1.00  0.00     0.000 C 
HETATM   15  C8  UNL     1       7.001  14.769   5.119  1.00  0.00     0.000 C 
HETATM   16  C9  UNL     1       7.228  15.129   3.708  1.00  0.00     0.006 C 
ENDBRANCH  10  11
ENDBRANCH   5  10
TORSDOF 2
ENDMDL
