MODEL 1
REMARK VINA RESULT: -6.199552586      0.000      0.000
REMARK  16 active torsions:
REMARK  status: ('A' for Active; 'I' for Inactive)
REMARK    1  A    between atoms: O1_2  and  C2_3 
REMARK    2  A    between atoms: C2_3  and  C3_5 
REMARK    3  A    between atoms: C3_5  and  C4_6 
REMARK    4  A    between atoms: C3_5  and  N1_9 
REMARK       I    between atoms: N1_9  and  C8_11 
REMARK    5  A    between atoms: C8_11  and  C9_13 
REMARK    6  A    between atoms: N2_18  and  C14_19 
REMARK    7  A    between atoms: C14_19  and  O4_20 
REMARK    8  A    between atoms: C14_19  and  C15_22 
REMARK    9  A    between atoms: C15_22  and  O5_23 
REMARK   10  A    between atoms: C15_22  and  N3_25 
REMARK   11  A    between atoms: N3_25  and  C16_27 
REMARK   12  A    between atoms: C16_27  and  O6_28 
REMARK   13  A    between atoms: C16_27  and  C17_30 
REMARK   14  A    between atoms: C17_30  and  C18_31 
REMARK   15  A    between atoms: C17_30  and  C21_34 
REMARK   16  A    between atoms: C21_34  and  C24_37 
ROOT
HETATM    1  C15 UNL     1      -0.981  -0.963  17.572  1.00  0.00     0.167 C 
ENDROOT
BRANCH   1   2
HETATM    2  C14 UNL     1       0.171  -1.338  18.352  1.00  0.00     0.296 C 
BRANCH   2   3
HETATM    3  N2  UNL     1       0.576  -0.422  19.414  1.00  0.00    -0.348 N 
HETATM    4  C9  UNL     1      -0.369  -0.058  20.372  1.00  0.00     0.178 C 
HETATM    5  C10 UNL     1      -0.132  -0.498  21.802  1.00  0.00     0.035 C 
HETATM    6  C11 UNL     1       1.314  -0.678  22.133  1.00  0.00     0.007 C 
HETATM    7  C12 UNL     1       2.175  -1.214  21.044  1.00  0.00     0.044 C 
HETATM    8  C13 UNL     1       1.937  -0.510  19.766  1.00  0.00     0.062 C 
BRANCH   4   9
HETATM    9  C8  UNL     1      -0.346   1.471  20.470  1.00  0.00     0.243 C 
HETATM   10  N1  UNL     1      -1.495   2.199  20.924  1.00  0.00    -0.340 N 
HETATM   11  C7  UNL     1      -2.775   1.491  20.981  1.00  0.00     0.153 C 
HETATM   12  O3  UNL     1       0.672   2.130  20.168  1.00  0.00    -0.271 OA
BRANCH  10  13
HETATM   13  C3  UNL     1      -1.378   3.598  21.255  1.00  0.00     0.190 C 
BRANCH  13  14
HETATM   14  C2  UNL     1      -1.997   4.567  20.376  1.00  0.00     0.281 C 
HETATM   15  O2  UNL     1      -1.187   5.431  19.857  1.00  0.00    -0.263 OA
BRANCH  14  16
HETATM   16  O1  UNL     1      -3.311   4.701  20.018  1.00  0.00    -0.325 OA
HETATM   17  C1  UNL     1      -3.821   6.044  19.879  1.00  0.00     0.213 C 
ENDBRANCH  14  16
ENDBRANCH  13  14
BRANCH  13  18
HETATM   18  C4  UNL     1      -1.651   3.820  22.739  1.00  0.00     0.010 C 
HETATM   19  C5  UNL     1      -0.363   3.917  23.528  1.00  0.00     0.012 C 
HETATM   20  C6  UNL     1      -2.475   5.038  23.025  1.00  0.00     0.012 C 
ENDBRANCH  13  18
ENDBRANCH  10  13
ENDBRANCH   4   9
ENDBRANCH   2   3
BRANCH   2  21
HETATM   21  O4  UNL     1       1.329  -1.281  17.483  1.00  0.00    -0.369 OA
ATOM     22  H4  UNL     1       1.125  -0.514  16.960  1.00  0.00     0.212 HD
ENDBRANCH   2  21
ENDBRANCH   1   2
BRANCH   1  23
HETATM   23  O5  UNL     1      -0.818   0.162  16.917  1.00  0.00    -0.346 OA
ATOM     24  H5  UNL     1      -1.336   0.876  17.268  1.00  0.00     0.219 HD
ENDBRANCH   1  23
BRANCH   1  25
HETATM   25  N3  UNL     1      -2.239  -1.519  17.362  1.00  0.00    -0.317 N 
ATOM     26  H3  UNL     1      -2.941  -1.000  17.887  1.00  0.00     0.169 HD
BRANCH  25  27
HETATM   27  C16 UNL     1      -2.835  -2.549  16.670  1.00  0.00     0.145 C 
BRANCH  27  28
HETATM   28  O6  UNL     1      -4.086  -2.277  16.337  1.00  0.00    -0.346 OA
ATOM     29  H6  UNL     1      -4.526  -3.019  15.939  1.00  0.00     0.219 HD
ENDBRANCH  27  28
BRANCH  27  30
HETATM   30  C17 UNL     1      -2.277  -3.826  16.265  1.00  0.00    -0.012 C 
BRANCH  30  31
HETATM   31  C18 UNL     1      -2.101  -4.750  17.475  1.00  0.00     0.012 C 
HETATM   32  C19 UNL     1      -2.404  -4.094  18.792  1.00  0.00     0.014 C 
HETATM   33  C20 UNL     1      -3.041  -5.961  17.362  1.00  0.00     0.014 C 
ENDBRANCH  30  31
BRANCH  30  34
HETATM   34  C21 UNL     1      -1.171  -3.917  15.321  1.00  0.00     0.024 C 
HETATM   35  C22 UNL     1       0.089  -4.223  16.192  1.00  0.00     0.027 C 
HETATM   36  C23 UNL     1      -1.261  -5.188  14.448  1.00  0.00     0.027 C 
BRANCH  34  37
HETATM   37  C24 UNL     1      -0.750  -2.781  14.490  1.00  0.00     0.038 A 
HETATM   38  C25 UNL     1      -1.159  -2.577  13.165  1.00  0.00     0.115 A 
HETATM   39  N4  UNL     1      -0.536  -1.480  12.659  1.00  0.00    -0.360 N 
HETATM   40  C26 UNL     1       0.263  -0.982  13.635  1.00  0.00     0.180 A 
ATOM     41  H4  UNL     1      -0.650  -1.102  11.719  1.00  0.00     0.166 HD
HETATM   42  N5  UNL     1       0.108  -1.772  14.689  1.00  0.00    -0.354 N 
ATOM     43  H5  UNL     1       0.598  -1.624  15.572  1.00  0.00     0.166 HD
ENDBRANCH  34  37
ENDBRANCH  30  34
ENDBRANCH  27  30
ENDBRANCH  25  27
ENDBRANCH   1  25
TORSDOF 16
ENDMDL
MODEL 2
REMARK VINA RESULT: -6.126545379      3.202      9.818
REMARK  16 active torsions:
REMARK  status: ('A' for Active; 'I' for Inactive)
REMARK    1  A    between atoms: O1_2  and  C2_3 
REMARK    2  A    between atoms: C2_3  and  C3_5 
REMARK    3  A    between atoms: C3_5  and  C4_6 
REMARK    4  A    between atoms: C3_5  and  N1_9 
REMARK       I    between atoms: N1_9  and  C8_11 
REMARK    5  A    between atoms: C8_11  and  C9_13 
REMARK    6  A    between atoms: N2_18  and  C14_19 
REMARK    7  A    between atoms: C14_19  and  O4_20 
REMARK    8  A    between atoms: C14_19  and  C15_22 
REMARK    9  A    between atoms: C15_22  and  O5_23 
REMARK   10  A    between atoms: C15_22  and  N3_25 
REMARK   11  A    between atoms: N3_25  and  C16_27 
REMARK   12  A    between atoms: C16_27  and  O6_28 
REMARK   13  A    between atoms: C16_27  and  C17_30 
REMARK   14  A    between atoms: C17_30  and  C18_31 
REMARK   15  A    between atoms: C17_30  and  C21_34 
REMARK   16  A    between atoms: C21_34  and  C24_37 
ROOT
HETATM    1  C15 UNL     1      -0.828   3.595  21.767  1.00  0.00     0.167 C 
ENDROOT
BRANCH   1   2
HETATM    2  C14 UNL     1      -1.635   3.124  20.669  1.00  0.00     0.296 C 
BRANCH   2   3
HETATM    3  N2  UNL     1      -1.827   1.681  20.562  1.00  0.00    -0.348 N 
HETATM    4  C9  UNL     1      -0.704   0.871  20.402  1.00  0.00     0.178 C 
HETATM    5  C10 UNL     1      -0.365  -0.097  21.516  1.00  0.00     0.035 C 
HETATM    6  C11 UNL     1      -1.557  -0.531  22.305  1.00  0.00     0.007 C 
HETATM    7  C12 UNL     1      -2.614   0.495  22.516  1.00  0.00     0.044 C 
HETATM    8  C13 UNL     1      -2.952   1.195  21.257  1.00  0.00     0.062 C 
BRANCH   4   9
HETATM    9  C8  UNL     1      -0.980  -0.052  19.210  1.00  0.00     0.243 C 
HETATM   10  N1  UNL     1      -0.020  -0.204  18.156  1.00  0.00    -0.340 N 
HETATM   11  C7  UNL     1       1.070   0.771  18.077  1.00  0.00     0.153 C 
HETATM   12  O3  UNL     1      -2.041  -0.707  19.123  1.00  0.00    -0.271 OA
BRANCH  10  13
HETATM   13  C3  UNL     1      -0.176  -1.259  17.184  1.00  0.00     0.190 C 
BRANCH  13  14
HETATM   14  C2  UNL     1      -0.517  -0.897  15.825  1.00  0.00     0.281 C 
HETATM   15  O2  UNL     1      -1.690  -0.375  15.676  1.00  0.00    -0.263 OA
BRANCH  14  16
HETATM   16  O1  UNL     1       0.219  -1.030  14.680  1.00  0.00    -0.325 OA
HETATM   17  C1  UNL     1      -0.494  -1.388  13.477  1.00  0.00     0.213 C 
ENDBRANCH  14  16
ENDBRANCH  13  14
BRANCH  13  18
HETATM   18  C4  UNL     1       0.959  -2.270  17.307  1.00  0.00     0.010 C 
HETATM   19  C5  UNL     1       1.244  -2.605  18.755  1.00  0.00     0.012 C 
HETATM   20  C6  UNL     1       0.713  -3.547  16.565  1.00  0.00     0.012 C 
ENDBRANCH  13  18
ENDBRANCH  10  13
ENDBRANCH   4   9
ENDBRANCH   2   3
BRANCH   2  21
HETATM   21  O4  UNL     1      -0.914   3.398  19.443  1.00  0.00    -0.369 OA
ATOM     22  H4  UNL     1      -0.015   3.353  19.748  1.00  0.00     0.212 HD
ENDBRANCH   2  21
ENDBRANCH   1   2
BRANCH   1  23
HETATM   23  O5  UNL     1      -0.057   4.606  21.444  1.00  0.00    -0.346 OA
ATOM     24  H5  UNL     1       0.461   4.445  20.664  1.00  0.00     0.219 HD
ENDBRANCH   1  23
BRANCH   1  25
HETATM   25  N3  UNL     1      -0.671   3.213  23.095  1.00  0.00    -0.317 N 
ATOM     26  H3  UNL     1      -1.260   2.406  23.297  1.00  0.00     0.169 HD
BRANCH  25  27
HETATM   27  C16 UNL     1       0.027   3.581  24.223  1.00  0.00     0.145 C 
BRANCH  27  28
HETATM   28  O6  UNL     1       1.060   4.360  23.947  1.00  0.00    -0.346 OA
ATOM     29  H6  UNL     1       1.872   3.872  23.872  1.00  0.00     0.219 HD
ENDBRANCH  27  28
BRANCH  27  30
HETATM   30  C17 UNL     1      -0.232   3.247  25.611  1.00  0.00    -0.012 C 
BRANCH  30  31
HETATM   31  C18 UNL     1       0.136   1.787  25.898  1.00  0.00     0.012 C 
HETATM   32  C19 UNL     1       0.884   1.117  24.780  1.00  0.00     0.014 C 
HETATM   33  C20 UNL     1       1.036   1.698  27.141  1.00  0.00     0.014 C 
ENDBRANCH  30  31
BRANCH  30  34
HETATM   34  C21 UNL     1      -1.455   3.663  26.287  1.00  0.00     0.024 C 
HETATM   35  C22 UNL     1      -2.199   4.577  25.263  1.00  0.00     0.027 C 
HETATM   36  C23 UNL     1      -2.452   2.496  26.443  1.00  0.00     0.027 C 
BRANCH  34  37
HETATM   37  C24 UNL     1      -1.439   4.463  27.518  1.00  0.00     0.038 A 
HETATM   38  C25 UNL     1      -1.896   5.785  27.607  1.00  0.00     0.115 A 
HETATM   39  N4  UNL     1      -1.677   6.261  28.861  1.00  0.00    -0.360 N 
HETATM   40  C26 UNL     1      -1.087   5.268  29.572  1.00  0.00     0.180 A 
ATOM     41  H4  UNL     1      -1.913   7.192  29.203  1.00  0.00     0.166 HD
HETATM   42  N5  UNL     1      -0.966   4.235  28.751  1.00  0.00    -0.354 N 
ATOM     43  H5  UNL     1      -0.551   3.346  29.032  1.00  0.00     0.166 HD
ENDBRANCH  34  37
ENDBRANCH  30  34
ENDBRANCH  27  30
ENDBRANCH  25  27
ENDBRANCH   1  25
TORSDOF 16
ENDMDL
MODEL 3
REMARK VINA RESULT: -5.991274733      2.196      7.972
REMARK  16 active torsions:
REMARK  status: ('A' for Active; 'I' for Inactive)
REMARK    1  A    between atoms: O1_2  and  C2_3 
REMARK    2  A    between atoms: C2_3  and  C3_5 
REMARK    3  A    between atoms: C3_5  and  C4_6 
REMARK    4  A    between atoms: C3_5  and  N1_9 
REMARK       I    between atoms: N1_9  and  C8_11 
REMARK    5  A    between atoms: C8_11  and  C9_13 
REMARK    6  A    between atoms: N2_18  and  C14_19 
REMARK    7  A    between atoms: C14_19  and  O4_20 
REMARK    8  A    between atoms: C14_19  and  C15_22 
REMARK    9  A    between atoms: C15_22  and  O5_23 
REMARK   10  A    between atoms: C15_22  and  N3_25 
REMARK   11  A    between atoms: N3_25  and  C16_27 
REMARK   12  A    between atoms: C16_27  and  O6_28 
REMARK   13  A    between atoms: C16_27  and  C17_30 
REMARK   14  A    between atoms: C17_30  and  C18_31 
REMARK   15  A    between atoms: C17_30  and  C21_34 
REMARK   16  A    between atoms: C21_34  and  C24_37 
ROOT
HETATM    1  C15 UNL     1       0.517  -0.622  21.770  1.00  0.00     0.167 C 
ENDROOT
BRANCH   1   2
HETATM    2  C14 UNL     1       1.632  -1.533  21.723  1.00  0.00     0.296 C 
BRANCH   2   3
HETATM    3  N2  UNL     1       1.703  -2.432  20.574  1.00  0.00    -0.348 N 
HETATM    4  C9  UNL     1       1.900  -1.878  19.310  1.00  0.00     0.178 C 
HETATM    5  C10 UNL     1       3.192  -2.203  18.588  1.00  0.00     0.035 C 
HETATM    6  C11 UNL     1       3.773  -3.521  18.983  1.00  0.00     0.007 C 
HETATM    7  C12 UNL     1       3.607  -3.911  20.409  1.00  0.00     0.044 C 
HETATM    8  C13 UNL     1       2.216  -3.710  20.870  1.00  0.00     0.062 C 
BRANCH   4   9
HETATM    9  C8  UNL     1       0.827  -2.468  18.387  1.00  0.00     0.243 C 
HETATM   10  N1  UNL     1       0.145  -1.648  17.430  1.00  0.00    -0.340 N 
HETATM   11  C7  UNL     1       0.256  -0.194  17.571  1.00  0.00     0.153 C 
HETATM   12  O3  UNL     1       0.522  -3.679  18.432  1.00  0.00    -0.271 OA
BRANCH  10  13
HETATM   13  C3  UNL     1      -0.665  -2.257  16.404  1.00  0.00     0.190 C 
BRANCH  13  14
HETATM   14  C2  UNL     1      -2.084  -1.975  16.388  1.00  0.00     0.281 C 
HETATM   15  O2  UNL     1      -2.801  -2.814  15.715  1.00  0.00    -0.263 OA
BRANCH  14  16
HETATM   16  O1  UNL     1      -2.773  -0.952  16.981  1.00  0.00    -0.325 OA
HETATM   17  C1  UNL     1      -3.359  -1.215  18.273  1.00  0.00     0.213 C 
ENDBRANCH  14  16
ENDBRANCH  13  14
BRANCH  13  18
HETATM   18  C4  UNL     1       0.020  -2.145  15.046  1.00  0.00     0.010 C 
HETATM   19  C5  UNL     1       0.097  -3.490  14.355  1.00  0.00     0.012 C 
HETATM   20  C6  UNL     1      -0.636  -1.172  14.117  1.00  0.00     0.012 C 
ENDBRANCH  13  18
ENDBRANCH  10  13
ENDBRANCH   4   9
ENDBRANCH   2   3
BRANCH   2  21
HETATM   21  O4  UNL     1       1.473  -2.482  22.805  1.00  0.00    -0.369 OA
ATOM     22  H4  UNL     1       1.739  -1.955  23.549  1.00  0.00     0.212 HD
ENDBRANCH   2  21
ENDBRANCH   1   2
BRANCH   1  23
HETATM   23  O5  UNL     1      -0.574  -1.114  21.232  1.00  0.00    -0.346 OA
ATOM     24  H5  UNL     1      -0.416  -1.558  20.407  1.00  0.00     0.219 HD
ENDBRANCH   1  23
BRANCH   1  25
HETATM   25  N3  UNL     1       0.333   0.670  22.249  1.00  0.00    -0.317 N 
ATOM     26  H3  UNL     1       0.864   0.801  23.110  1.00  0.00     0.169 HD
BRANCH  25  27
HETATM   27  C16 UNL     1      -0.337   1.829  21.928  1.00  0.00     0.145 C 
BRANCH  27  28
HETATM   28  O6  UNL     1       0.135   2.399  20.832  1.00  0.00    -0.346 OA
ATOM     29  H6  UNL     1       0.691   3.146  21.022  1.00  0.00     0.219 HD
ENDBRANCH  27  28
BRANCH  27  30
HETATM   30  C17 UNL     1      -1.456   2.459  22.606  1.00  0.00    -0.012 C 
BRANCH  30  31
HETATM   31  C18 UNL     1      -2.787   1.967  22.028  1.00  0.00     0.012 C 
HETATM   32  C19 UNL     1      -2.736   1.656  20.559  1.00  0.00     0.014 C 
HETATM   33  C20 UNL     1      -3.230   0.675  22.734  1.00  0.00     0.014 C 
ENDBRANCH  30  31
BRANCH  30  34
HETATM   34  C21 UNL     1      -1.466   3.883  22.912  1.00  0.00     0.024 C 
HETATM   35  C22 UNL     1      -2.714   4.097  23.826  1.00  0.00     0.027 C 
HETATM   36  C23 UNL     1      -0.315   4.277  23.862  1.00  0.00     0.027 C 
BRANCH  34  37
HETATM   37  C24 UNL     1      -1.618   4.910  21.873  1.00  0.00     0.038 A 
HETATM   38  C25 UNL     1      -2.785   5.656  21.663  1.00  0.00     0.115 A 
HETATM   39  N4  UNL     1      -2.624   6.464  20.584  1.00  0.00    -0.360 N 
HETATM   40  C26 UNL     1      -1.376   6.247  20.099  1.00  0.00     0.180 A 
ATOM     41  H4  UNL     1      -3.314   7.115  20.208  1.00  0.00     0.166 HD
HETATM   42  N5  UNL     1      -0.821   5.332  20.882  1.00  0.00    -0.354 N 
ATOM     43  H5  UNL     1       0.126   4.980  20.742  1.00  0.00     0.166 HD
ENDBRANCH  34  37
ENDBRANCH  30  34
ENDBRANCH  27  30
ENDBRANCH  25  27
ENDBRANCH   1  25
TORSDOF 16
ENDMDL
MODEL 4
REMARK VINA RESULT: -5.910232566      5.806      9.259
REMARK  16 active torsions:
REMARK  status: ('A' for Active; 'I' for Inactive)
REMARK    1  A    between atoms: O1_2  and  C2_3 
REMARK    2  A    between atoms: C2_3  and  C3_5 
REMARK    3  A    between atoms: C3_5  and  C4_6 
REMARK    4  A    between atoms: C3_5  and  N1_9 
REMARK       I    between atoms: N1_9  and  C8_11 
REMARK    5  A    between atoms: C8_11  and  C9_13 
REMARK    6  A    between atoms: N2_18  and  C14_19 
REMARK    7  A    between atoms: C14_19  and  O4_20 
REMARK    8  A    between atoms: C14_19  and  C15_22 
REMARK    9  A    between atoms: C15_22  and  O5_23 
REMARK   10  A    between atoms: C15_22  and  N3_25 
REMARK   11  A    between atoms: N3_25  and  C16_27 
REMARK   12  A    between atoms: C16_27  and  O6_28 
REMARK   13  A    between atoms: C16_27  and  C17_30 
REMARK   14  A    between atoms: C17_30  and  C18_31 
REMARK   15  A    between atoms: C17_30  and  C21_34 
REMARK   16  A    between atoms: C21_34  and  C24_37 
ROOT
HETATM    1  C15 UNL     1      -0.135   2.489  24.872  1.00  0.00     0.167 C 
ENDROOT
BRANCH   1   2
HETATM    2  C14 UNL     1      -0.565   2.025  26.167  1.00  0.00     0.296 C 
BRANCH   2   3
HETATM    3  N2  UNL     1      -1.944   2.316  26.549  1.00  0.00    -0.348 N 
HETATM    4  C9  UNL     1      -2.399   3.629  26.443  1.00  0.00     0.178 C 
HETATM    5  C10 UNL     1      -3.496   3.919  25.439  1.00  0.00     0.035 C 
HETATM    6  C11 UNL     1      -4.377   2.743  25.172  1.00  0.00     0.007 C 
HETATM    7  C12 UNL     1      -3.715   1.411  25.176  1.00  0.00     0.044 C 
HETATM    8  C13 UNL     1      -2.836   1.243  26.354  1.00  0.00     0.062 C 
BRANCH   4   9
HETATM    9  C8  UNL     1      -3.048   3.991  27.783  1.00  0.00     0.243 C 
HETATM   10  N1  UNL     1      -2.783   5.249  28.417  1.00  0.00    -0.340 N 
HETATM   11  C7  UNL     1      -1.645   6.033  27.931  1.00  0.00     0.153 C 
HETATM   12  O3  UNL     1      -3.835   3.209  28.359  1.00  0.00    -0.271 OA
BRANCH  10  13
HETATM   13  C3  UNL     1      -3.589   5.681  29.532  1.00  0.00     0.190 C 
BRANCH  13  14
HETATM   14  C2  UNL     1      -2.930   5.970  30.787  1.00  0.00     0.281 C 
HETATM   15  O2  UNL     1      -2.451   4.939  31.404  1.00  0.00    -0.263 OA
BRANCH  14  16
HETATM   16  O1  UNL     1      -2.743   7.172  31.414  1.00  0.00    -0.325 OA
HETATM   17  C1  UNL     1      -1.576   7.934  31.039  1.00  0.00     0.213 C 
ENDBRANCH  14  16
ENDBRANCH  13  14
BRANCH  13  18
HETATM   18  C4  UNL     1      -4.597   6.734  29.086  1.00  0.00     0.010 C 
HETATM   19  C5  UNL     1      -4.959   6.568  27.625  1.00  0.00     0.012 C 
HETATM   20  C6  UNL     1      -5.861   6.740  29.889  1.00  0.00     0.012 C 
ENDBRANCH  13  18
ENDBRANCH  10  13
ENDBRANCH   4   9
ENDBRANCH   2   3
BRANCH   2  21
HETATM   21  O4  UNL     1       0.163   2.776  27.168  1.00  0.00    -0.369 OA
ATOM     22  H4  UNL     1       0.951   2.252  27.251  1.00  0.00     0.212 HD
ENDBRANCH   2  21
ENDBRANCH   1   2
BRANCH   1  23
HETATM   23  O5  UNL     1       1.065   3.020  24.886  1.00  0.00    -0.346 OA
ATOM     24  H5  UNL     1       1.158   3.715  25.527  1.00  0.00     0.219 HD
ENDBRANCH   1  23
BRANCH   1  25
HETATM   25  N3  UNL     1      -0.709   2.513  23.605  1.00  0.00    -0.317 N 
ATOM     26  H3  UNL     1      -0.995   1.573  23.334  1.00  0.00     0.169 HD
BRANCH  25  27
HETATM   27  C16 UNL     1      -1.014   3.405  22.601  1.00  0.00     0.145 C 
BRANCH  27  28
HETATM   28  O6  UNL     1      -0.074   4.321  22.437  1.00  0.00    -0.346 OA
ATOM     29  H6  UNL     1       0.682   3.986  21.968  1.00  0.00     0.219 HD
ENDBRANCH  27  28
BRANCH  27  30
HETATM   30  C17 UNL     1      -2.176   3.446  21.733  1.00  0.00    -0.012 C 
BRANCH  30  31
HETATM   31  C18 UNL     1      -1.990   2.513  20.531  1.00  0.00     0.012 C 
HETATM   32  C19 UNL     1      -0.557   2.330  20.119  1.00  0.00     0.014 C 
HETATM   33  C20 UNL     1      -2.535   1.113  20.854  1.00  0.00     0.014 C 
ENDBRANCH  30  31
BRANCH  30  34
HETATM   34  C21 UNL     1      -2.825   4.701  21.377  1.00  0.00     0.024 C 
HETATM   35  C22 UNL     1      -4.027   4.297  20.466  1.00  0.00     0.027 C 
HETATM   36  C23 UNL     1      -3.550   5.337  22.582  1.00  0.00     0.027 C 
BRANCH  34  37
HETATM   37  C24 UNL     1      -2.143   5.748  20.607  1.00  0.00     0.038 A 
HETATM   38  C25 UNL     1      -2.800   6.768  19.905  1.00  0.00     0.115 A 
HETATM   39  N4  UNL     1      -1.890   7.527  19.241  1.00  0.00    -0.360 N 
HETATM   40  C26 UNL     1      -0.664   7.009  19.504  1.00  0.00     0.180 A 
ATOM     41  H4  UNL     1      -2.091   8.336  18.654  1.00  0.00     0.166 HD
HETATM   42  N5  UNL     1      -0.856   5.971  20.306  1.00  0.00    -0.354 N 
ATOM     43  H5  UNL     1      -0.094   5.394  20.663  1.00  0.00     0.166 HD
ENDBRANCH  34  37
ENDBRANCH  30  34
ENDBRANCH  27  30
ENDBRANCH  25  27
ENDBRANCH   1  25
TORSDOF 16
ENDMDL
MODEL 5
REMARK VINA RESULT: -5.902953221      6.289     10.851
REMARK  16 active torsions:
REMARK  status: ('A' for Active; 'I' for Inactive)
REMARK    1  A    between atoms: O1_2  and  C2_3 
REMARK    2  A    between atoms: C2_3  and  C3_5 
REMARK    3  A    between atoms: C3_5  and  C4_6 
REMARK    4  A    between atoms: C3_5  and  N1_9 
REMARK       I    between atoms: N1_9  and  C8_11 
REMARK    5  A    between atoms: C8_11  and  C9_13 
REMARK    6  A    between atoms: N2_18  and  C14_19 
REMARK    7  A    between atoms: C14_19  and  O4_20 
REMARK    8  A    between atoms: C14_19  and  C15_22 
REMARK    9  A    between atoms: C15_22  and  O5_23 
REMARK   10  A    between atoms: C15_22  and  N3_25 
REMARK   11  A    between atoms: N3_25  and  C16_27 
REMARK   12  A    between atoms: C16_27  and  O6_28 
REMARK   13  A    between atoms: C16_27  and  C17_30 
REMARK   14  A    between atoms: C17_30  and  C18_31 
REMARK   15  A    between atoms: C17_30  and  C21_34 
REMARK   16  A    between atoms: C21_34  and  C24_37 
ROOT
HETATM    1  C15 UNL     1      -1.745   3.827  23.209  1.00  0.00     0.167 C 
ENDROOT
BRANCH   1   2
HETATM    2  C14 UNL     1      -1.377   4.847  22.260  1.00  0.00     0.296 C 
BRANCH   2   3
HETATM    3  N2  UNL     1      -2.296   5.081  21.150  1.00  0.00    -0.348 N 
HETATM    4  C9  UNL     1      -3.589   5.516  21.439  1.00  0.00     0.178 C 
HETATM    5  C10 UNL     1      -3.990   6.899  20.969  1.00  0.00     0.035 C 
HETATM    6  C11 UNL     1      -3.248   7.349  19.753  1.00  0.00     0.007 C 
HETATM    7  C12 UNL     1      -1.826   6.921  19.656  1.00  0.00     0.044 C 
HETATM    8  C13 UNL     1      -1.669   5.481  19.954  1.00  0.00     0.062 C 
BRANCH   4   9
HETATM    9  C8  UNL     1      -4.554   4.597  20.682  1.00  0.00     0.243 C 
HETATM   10  N1  UNL     1      -5.502   3.783  21.385  1.00  0.00    -0.340 N 
HETATM   11  C7  UNL     1      -5.314   3.604  22.827  1.00  0.00     0.153 C 
HETATM   12  O3  UNL     1      -4.553   4.535  19.434  1.00  0.00    -0.271 OA
BRANCH  10  13
HETATM   13  C3  UNL     1      -6.566   3.128  20.665  1.00  0.00     0.190 C 
BRANCH  13  14
HETATM   14  C2  UNL     1      -6.659   1.686  20.736  1.00  0.00     0.281 C 
HETATM   15  O2  UNL     1      -7.052   1.108  19.649  1.00  0.00    -0.263 OA
BRANCH  14  16
HETATM   16  O1  UNL     1      -6.392   0.849  21.785  1.00  0.00    -0.325 OA
HETATM   17  C1  UNL     1      -5.302  -0.084  21.622  1.00  0.00     0.213 C 
ENDBRANCH  14  16
ENDBRANCH  13  14
BRANCH  13  18
HETATM   18  C4  UNL     1      -7.886   3.861  20.877  1.00  0.00     0.010 C 
HETATM   19  C5  UNL     1      -8.630   4.047  19.572  1.00  0.00     0.012 C 
HETATM   20  C6  UNL     1      -8.801   3.187  21.852  1.00  0.00     0.012 C 
ENDBRANCH  13  18
ENDBRANCH  10  13
ENDBRANCH   4   9
ENDBRANCH   2   3
BRANCH   2  21
HETATM   21  O4  UNL     1      -0.201   4.387  21.552  1.00  0.00    -0.369 OA
ATOM     22  H4  UNL     1       0.248   5.209  21.392  1.00  0.00     0.212 HD
ENDBRANCH   2  21
ENDBRANCH   1   2
BRANCH   1  23
HETATM   23  O5  UNL     1      -1.925   2.651  22.657  1.00  0.00    -0.346 OA
ATOM     24  H5  UNL     1      -1.882   2.673  21.708  1.00  0.00     0.219 HD
ENDBRANCH   1  23
BRANCH   1  25
HETATM   25  N3  UNL     1      -1.965   3.807  24.582  1.00  0.00    -0.317 N 
ATOM     26  H3  UNL     1      -1.429   3.052  25.009  1.00  0.00     0.169 HD
BRANCH  25  27
HETATM   27  C16 UNL     1      -2.677   4.483  25.547  1.00  0.00     0.145 C 
BRANCH  27  28
HETATM   28  O6  UNL     1      -3.368   5.495  25.049  1.00  0.00    -0.346 OA
ATOM     29  H6  UNL     1      -4.154   5.211  24.597  1.00  0.00     0.219 HD
ENDBRANCH  27  28
BRANCH  27  30
HETATM   30  C17 UNL     1      -2.771   4.219  26.971  1.00  0.00    -0.012 C 
BRANCH  30  31
HETATM   31  C18 UNL     1      -3.779   3.099  27.251  1.00  0.00     0.012 C 
HETATM   32  C19 UNL     1      -4.988   3.131  26.360  1.00  0.00     0.014 C 
HETATM   33  C20 UNL     1      -3.120   1.726  27.046  1.00  0.00     0.014 C 
ENDBRANCH  30  31
BRANCH  30  34
HETATM   34  C21 UNL     1      -2.839   5.296  27.949  1.00  0.00     0.024 C 
HETATM   35  C22 UNL     1      -2.844   4.588  29.340  1.00  0.00     0.027 C 
HETATM   36  C23 UNL     1      -1.523   6.100  28.015  1.00  0.00     0.027 C 
BRANCH  34  37
HETATM   37  C24 UNL     1      -3.980   6.218  28.026  1.00  0.00     0.038 A 
HETATM   38  C25 UNL     1      -4.411   6.846  29.202  1.00  0.00     0.115 A 
HETATM   39  N4  UNL     1      -5.530   7.573  28.949  1.00  0.00    -0.360 N 
HETATM   40  C26 UNL     1      -5.822   7.420  27.633  1.00  0.00     0.180 A 
ATOM     41  H4  UNL     1      -6.053   8.132  29.623  1.00  0.00     0.166 HD
HETATM   42  N5  UNL     1      -4.892   6.621  27.130  1.00  0.00    -0.354 N 
ATOM     43  H5  UNL     1      -4.872   6.337  26.150  1.00  0.00     0.166 HD
ENDBRANCH  34  37
ENDBRANCH  30  34
ENDBRANCH  27  30
ENDBRANCH  25  27
ENDBRANCH   1  25
TORSDOF 16
ENDMDL
