MODEL 1
REMARK VINA RESULT: -7.282643745      0.000      0.000
REMARK  16 active torsions:
REMARK  status: ('A' for Active; 'I' for Inactive)
REMARK    1  A    between atoms: C2_2  and  C3_3 
REMARK    2  A    between atoms: C3_3  and  C4_4 
REMARK    3  A    between atoms: C4_4  and  S1_5 
REMARK    4  A    between atoms: S1_5  and  N1_8 
REMARK    5  A    between atoms: N1_8  and  C5_9 
REMARK    6  A    between atoms: N1_8  and  C8_14 
REMARK    7  A    between atoms: C5_9  and  C6_10 
REMARK    8  A    between atoms: C6_10  and  C7_11 
REMARK    9  A    between atoms: C7_11  and  O3_12 
REMARK   10  A    between atoms: C8_14  and  C9_15 
REMARK       I    between atoms: C9_15  and  N2_17 
REMARK   11  A    between atoms: C14_22  and  C15_23 
REMARK   12  A    between atoms: C15_23  and  N3_24 
REMARK   13  A    between atoms: C16_25  and  O5_26 
REMARK   14  A    between atoms: C19_30  and  O6_31 
REMARK   15  A    between atoms: C20_33  and  C25_39 
REMARK   16  A    between atoms: C22_36  and  C23_37 
ROOT
HETATM    1  C9  UNL     1      -0.735   3.151  21.901  1.00  0.00     0.239 C 
HETATM    2  O4  UNL     1      -0.051   2.768  20.926  1.00  0.00    -0.271 OA
HETATM    3  N2  UNL     1      -0.870   2.275  22.986  1.00  0.00    -0.344 N 
HETATM    4  C10 UNL     1      -0.246   0.946  22.997  1.00  0.00     0.126 C 
HETATM    5  C11 UNL     1      -1.360  -0.027  22.654  1.00  0.00     0.020 C 
HETATM    6  C12 UNL     1      -2.590   0.406  23.428  1.00  0.00     0.004 C 
HETATM    7  C13 UNL     1      -2.191   1.238  24.644  1.00  0.00     0.027 C 
HETATM    8  C14 UNL     1      -1.639   2.581  24.204  1.00  0.00     0.105 C 
ENDROOT
BRANCH   8   9
HETATM    9  C15 UNL     1      -0.708   3.176  25.215  1.00  0.00     0.158 C 
BRANCH   9  10
HETATM   10  N3  UNL     1      -1.353   3.962  26.241  1.00  0.00    -0.306 N 
HETATM   11  C16 UNL     1      -2.382   4.834  26.000  1.00  0.00     0.151 A 
HETATM   12  C17 UNL     1      -2.731   5.405  27.173  1.00  0.00     0.013 A 
HETATM   13  C18 UNL     1      -1.904   4.883  28.173  1.00  0.00     0.033 A 
HETATM   14  C22 UNL     1      -3.716   6.403  27.698  1.00  0.00     0.052 C 
HETATM   15  C19 UNL     1      -1.070   3.997  27.553  1.00  0.00     0.153 A 
HETATM   16  C20 UNL     1      -2.185   5.431  29.521  1.00  0.00     0.163 C 
HETATM   17  O7  UNL     1      -3.533   5.243  29.817  1.00  0.00    -0.380 OA
HETATM   18  C21 UNL     1      -4.408   5.682  28.865  1.00  0.00     0.178 C 
BRANCH  11  19
HETATM   19  O5  UNL     1      -2.999   5.120  24.784  1.00  0.00    -0.345 OA
ATOM     20  H5  UNL     1      -3.787   4.733  24.421  1.00  0.00     0.219 HD
ENDBRANCH  11  19
BRANCH  15  21
HETATM   21  O6  UNL     1      -0.099   3.285  28.270  1.00  0.00    -0.345 OA
ATOM     22  H6  UNL     1       0.548   3.607  28.886  1.00  0.00     0.219 HD
ENDBRANCH  15  21
BRANCH  16  23
HETATM   23  C25 UNL     1      -2.003   6.951  29.390  1.00  0.00     0.025 A 
HETATM   24  C23 UNL     1      -0.569   7.330  29.535  1.00  0.00     0.004 A 
HETATM   25  C24 UNL     1      -1.603   7.736  30.581  1.00  0.00     0.013 A 
ENDBRANCH  16  23
ENDBRANCH   9  10
ENDBRANCH   8   9
BRANCH   1  26
HETATM   26  C8  UNL     1      -1.365   4.464  21.896  1.00  0.00     0.243 C 
BRANCH  26  27
HETATM   27  N1  UNL     1      -2.501   4.585  20.984  1.00  0.00    -0.281 N 
BRANCH  27  28
HETATM   28  S1  UNL     1      -2.728   6.068  20.361  1.00  0.00     0.232 S 
HETATM   29  O1  UNL     1      -3.387   6.923  21.513  1.00  0.00    -0.205 OA
HETATM   30  O2  UNL     1      -3.946   6.026  19.322  1.00  0.00    -0.205 OA
BRANCH  28  31
HETATM   31  C4  UNL     1      -1.589   7.084  19.596  1.00  0.00     0.163 C 
BRANCH  31  32
HETATM   32  C3  UNL     1      -1.888   8.326  18.881  1.00  0.00     0.016 C 
BRANCH  32  33
HETATM   33  C2  UNL     1      -2.133   9.591  19.598  1.00  0.00    -0.004 C 
HETATM   34  C1  UNL     1      -3.664   9.811  19.680  1.00  0.00     0.005 C 
ENDBRANCH  32  33
ENDBRANCH  31  32
ENDBRANCH  28  31
ENDBRANCH  27  28
BRANCH  27  35
HETATM   35  C5  UNL     1      -3.398   3.526  21.040  1.00  0.00     0.078 C 
BRANCH  35  36
HETATM   36  C6  UNL     1      -4.499   3.653  22.053  1.00  0.00     0.071 C 
BRANCH  36  37
HETATM   37  C7  UNL     1      -5.774   4.263  21.659  1.00  0.00     0.169 C 
BRANCH  37  38
HETATM   38  O3  UNL     1      -5.897   5.622  21.836  1.00  0.00    -0.401 OA
ATOM     39  H3  UNL     1      -6.527   5.917  22.484  1.00  0.00     0.209 HD
ENDBRANCH  37  38
ENDBRANCH  36  37
ENDBRANCH  35  36
ENDBRANCH  27  35
ENDBRANCH  26  27
ENDBRANCH   1  26
TORSDOF 16
ENDMDL
MODEL 2
REMARK VINA RESULT: -6.823873479      0.924      1.040
REMARK  16 active torsions:
REMARK  status: ('A' for Active; 'I' for Inactive)
REMARK    1  A    between atoms: C2_2  and  C3_3 
REMARK    2  A    between atoms: C3_3  and  C4_4 
REMARK    3  A    between atoms: C4_4  and  S1_5 
REMARK    4  A    between atoms: S1_5  and  N1_8 
REMARK    5  A    between atoms: N1_8  and  C5_9 
REMARK    6  A    between atoms: N1_8  and  C8_14 
REMARK    7  A    between atoms: C5_9  and  C6_10 
REMARK    8  A    between atoms: C6_10  and  C7_11 
REMARK    9  A    between atoms: C7_11  and  O3_12 
REMARK   10  A    between atoms: C8_14  and  C9_15 
REMARK       I    between atoms: C9_15  and  N2_17 
REMARK   11  A    between atoms: C14_22  and  C15_23 
REMARK   12  A    between atoms: C15_23  and  N3_24 
REMARK   13  A    between atoms: C16_25  and  O5_26 
REMARK   14  A    between atoms: C19_30  and  O6_31 
REMARK   15  A    between atoms: C20_33  and  C25_39 
REMARK   16  A    between atoms: C22_36  and  C23_37 
ROOT
HETATM    1  C9  UNL     1      -1.932   2.420  22.226  1.00  0.00     0.239 C 
HETATM    2  O4  UNL     1      -1.488   2.100  21.101  1.00  0.00    -0.271 OA
HETATM    3  N2  UNL     1      -1.236   1.964  23.353  1.00  0.00    -0.344 N 
HETATM    4  C10 UNL     1      -0.031   1.132  23.243  1.00  0.00     0.126 C 
HETATM    5  C11 UNL     1      -0.493  -0.288  23.514  1.00  0.00     0.020 C 
HETATM    6  C12 UNL     1      -1.455  -0.234  24.685  1.00  0.00     0.004 C 
HETATM    7  C13 UNL     1      -1.214   1.022  25.518  1.00  0.00     0.027 C 
HETATM    8  C14 UNL     1      -1.631   2.256  24.742  1.00  0.00     0.105 C 
ENDROOT
BRANCH   8   9
HETATM    9  C15 UNL     1      -0.907   3.488  25.191  1.00  0.00     0.158 C 
BRANCH   9  10
HETATM   10  N3  UNL     1      -1.548   4.208  26.266  1.00  0.00    -0.306 N 
HETATM   11  C16 UNL     1      -2.600   5.068  26.086  1.00  0.00     0.151 A 
HETATM   12  C17 UNL     1      -2.938   5.574  27.293  1.00  0.00     0.013 A 
HETATM   13  C18 UNL     1      -2.082   5.022  28.251  1.00  0.00     0.033 A 
HETATM   14  C22 UNL     1      -3.933   6.523  27.884  1.00  0.00     0.052 C 
HETATM   15  C19 UNL     1      -1.241   4.185  27.572  1.00  0.00     0.153 A 
HETATM   16  C20 UNL     1      -2.348   5.497  29.629  1.00  0.00     0.163 C 
HETATM   17  O7  UNL     1      -3.685   5.265  29.939  1.00  0.00    -0.380 OA
HETATM   18  C21 UNL     1      -4.587   5.731  29.027  1.00  0.00     0.178 C 
BRANCH  11  19
HETATM   19  O5  UNL     1      -3.246   5.400  24.898  1.00  0.00    -0.345 OA
ATOM     20  H5  UNL     1      -3.627   4.814  24.254  1.00  0.00     0.219 HD
ENDBRANCH  11  19
BRANCH  15  21
HETATM   21  O6  UNL     1      -0.242   3.461  28.236  1.00  0.00    -0.345 OA
ATOM     22  H6  UNL     1      -0.125   3.311  29.166  1.00  0.00     0.219 HD
ENDBRANCH  15  21
BRANCH  16  23
HETATM   23  C25 UNL     1      -2.200   7.026  29.570  1.00  0.00     0.025 A 
HETATM   24  C23 UNL     1      -0.766   7.425  29.639  1.00  0.00     0.004 A 
HETATM   25  C24 UNL     1      -1.734   7.753  30.772  1.00  0.00     0.013 A 
ENDBRANCH  16  23
ENDBRANCH   9  10
ENDBRANCH   8   9
BRANCH   1  26
HETATM   26  C8  UNL     1      -3.131   3.236  22.346  1.00  0.00     0.243 C 
BRANCH  26  27
HETATM   27  N1  UNL     1      -3.624   3.774  21.079  1.00  0.00    -0.281 N 
BRANCH  27  28
HETATM   28  S1  UNL     1      -3.042   5.238  20.682  1.00  0.00     0.232 S 
HETATM   29  O1  UNL     1      -3.307   6.161  21.935  1.00  0.00    -0.205 OA
HETATM   30  O2  UNL     1      -4.023   5.930  19.623  1.00  0.00    -0.205 OA
BRANCH  28  31
HETATM   31  C4  UNL     1      -1.487   5.642  20.104  1.00  0.00     0.163 C 
BRANCH  31  32
HETATM   32  C3  UNL     1      -1.158   6.778  19.241  1.00  0.00     0.016 C 
BRANCH  32  33
HETATM   33  C2  UNL     1      -1.146   8.160  19.753  1.00  0.00    -0.004 C 
HETATM   34  C1  UNL     1      -2.435   8.868  19.265  1.00  0.00     0.005 C 
ENDBRANCH  32  33
ENDBRANCH  31  32
ENDBRANCH  28  31
ENDBRANCH  27  28
BRANCH  27  35
HETATM   35  C5  UNL     1      -4.742   3.124  20.574  1.00  0.00     0.078 C 
BRANCH  35  36
HETATM   36  C6  UNL     1      -5.981   3.199  21.420  1.00  0.00     0.071 C 
BRANCH  36  37
HETATM   37  C7  UNL     1      -6.759   4.442  21.450  1.00  0.00     0.169 C 
BRANCH  37  38
HETATM   38  O3  UNL     1      -6.141   5.554  21.972  1.00  0.00    -0.401 OA
ATOM     39  H3  UNL     1      -6.356   6.392  21.579  1.00  0.00     0.209 HD
ENDBRANCH  37  38
ENDBRANCH  36  37
ENDBRANCH  35  36
ENDBRANCH  27  35
ENDBRANCH  26  27
ENDBRANCH   1  26
TORSDOF 16
ENDMDL
MODEL 3
REMARK VINA RESULT: -6.788186565      1.223      3.228
REMARK  16 active torsions:
REMARK  status: ('A' for Active; 'I' for Inactive)
REMARK    1  A    between atoms: C2_2  and  C3_3 
REMARK    2  A    between atoms: C3_3  and  C4_4 
REMARK    3  A    between atoms: C4_4  and  S1_5 
REMARK    4  A    between atoms: S1_5  and  N1_8 
REMARK    5  A    between atoms: N1_8  and  C5_9 
REMARK    6  A    between atoms: N1_8  and  C8_14 
REMARK    7  A    between atoms: C5_9  and  C6_10 
REMARK    8  A    between atoms: C6_10  and  C7_11 
REMARK    9  A    between atoms: C7_11  and  O3_12 
REMARK   10  A    between atoms: C8_14  and  C9_15 
REMARK       I    between atoms: C9_15  and  N2_17 
REMARK   11  A    between atoms: C14_22  and  C15_23 
REMARK   12  A    between atoms: C15_23  and  N3_24 
REMARK   13  A    between atoms: C16_25  and  O5_26 
REMARK   14  A    between atoms: C19_30  and  O6_31 
REMARK   15  A    between atoms: C20_33  and  C25_39 
REMARK   16  A    between atoms: C22_36  and  C23_37 
ROOT
HETATM    1  C9  UNL     1      -0.770   3.538  21.919  1.00  0.00     0.239 C 
HETATM    2  O4  UNL     1      -0.057   3.207  20.945  1.00  0.00    -0.271 OA
HETATM    3  N2  UNL     1      -0.912   2.616  22.964  1.00  0.00    -0.344 N 
HETATM    4  C10 UNL     1      -0.264   1.299  22.935  1.00  0.00     0.126 C 
HETATM    5  C11 UNL     1      -1.353   0.322  22.529  1.00  0.00     0.020 C 
HETATM    6  C12 UNL     1      -2.608   0.701  23.292  1.00  0.00     0.004 C 
HETATM    7  C13 UNL     1      -2.251   1.491  24.549  1.00  0.00     0.027 C 
HETATM    8  C14 UNL     1      -1.713   2.859  24.176  1.00  0.00     0.105 C 
ENDROOT
BRANCH   8   9
HETATM    9  C15 UNL     1      -0.815   3.429  25.230  1.00  0.00     0.158 C 
BRANCH   9  10
HETATM   10  N3  UNL     1      -1.498   4.152  26.278  1.00  0.00    -0.306 N 
HETATM   11  C16 UNL     1      -2.552   4.999  26.058  1.00  0.00     0.151 A 
HETATM   12  C17 UNL     1      -2.934   5.511  27.248  1.00  0.00     0.013 A 
HETATM   13  C18 UNL     1      -2.102   4.977  28.237  1.00  0.00     0.033 A 
HETATM   14  C22 UNL     1      -3.957   6.456  27.799  1.00  0.00     0.052 C 
HETATM   15  C19 UNL     1      -1.231   4.144  27.594  1.00  0.00     0.153 A 
HETATM   16  C20 UNL     1      -2.417   5.462  29.602  1.00  0.00     0.163 C 
HETATM   17  O7  UNL     1      -3.760   5.218  29.873  1.00  0.00    -0.380 OA
HETATM   18  C21 UNL     1      -4.638   5.667  28.928  1.00  0.00     0.178 C 
BRANCH  11  19
HETATM   19  O5  UNL     1      -3.164   5.313  24.846  1.00  0.00    -0.345 OA
ATOM     20  H5  UNL     1      -3.019   6.073  24.295  1.00  0.00     0.219 HD
ENDBRANCH  11  19
BRANCH  15  21
HETATM   21  O6  UNL     1      -0.246   3.437  28.295  1.00  0.00    -0.345 OA
ATOM     22  H6  UNL     1       0.103   3.595  29.163  1.00  0.00     0.219 HD
ENDBRANCH  15  21
BRANCH  16  23
HETATM   23  C25 UNL     1      -2.283   6.991  29.534  1.00  0.00     0.025 A 
HETATM   24  C23 UNL     1      -0.852   7.404  29.583  1.00  0.00     0.004 A 
HETATM   25  C24 UNL     1      -1.808   7.729  30.727  1.00  0.00     0.013 A 
ENDBRANCH  16  23
ENDBRANCH   9  10
ENDBRANCH   8   9
BRANCH   1  26
HETATM   26  C8  UNL     1      -1.423   4.839  21.951  1.00  0.00     0.243 C 
BRANCH  26  27
HETATM   27  N1  UNL     1      -2.324   5.090  20.828  1.00  0.00    -0.281 N 
BRANCH  27  28
HETATM   28  S1  UNL     1      -3.691   4.212  20.834  1.00  0.00     0.232 S 
HETATM   29  O1  UNL     1      -4.636   4.879  19.759  1.00  0.00    -0.205 OA
HETATM   30  O2  UNL     1      -4.522   4.533  22.163  1.00  0.00    -0.205 OA
BRANCH  28  31
HETATM   31  C4  UNL     1      -3.869   2.524  20.652  1.00  0.00     0.163 C 
BRANCH  31  32
HETATM   32  C3  UNL     1      -5.102   1.762  20.856  1.00  0.00     0.016 C 
BRANCH  32  33
HETATM   33  C2  UNL     1      -5.403   0.553  20.067  1.00  0.00    -0.004 C 
HETATM   34  C1  UNL     1      -4.097  -0.267  19.922  1.00  0.00     0.005 C 
ENDBRANCH  32  33
ENDBRANCH  31  32
ENDBRANCH  28  31
ENDBRANCH  27  28
BRANCH  27  35
HETATM   35  C5  UNL     1      -1.746   5.780  19.770  1.00  0.00     0.078 C 
BRANCH  35  36
HETATM   36  C6  UNL     1      -1.797   7.278  19.860  1.00  0.00     0.071 C 
BRANCH  36  37
HETATM   37  C7  UNL     1      -3.070   7.971  19.634  1.00  0.00     0.169 C 
BRANCH  37  38
HETATM   38  O3  UNL     1      -4.032   7.842  20.609  1.00  0.00    -0.401 OA
ATOM     39  H3  UNL     1      -4.853   7.437  20.353  1.00  0.00     0.209 HD
ENDBRANCH  37  38
ENDBRANCH  36  37
ENDBRANCH  35  36
ENDBRANCH  27  35
ENDBRANCH  26  27
ENDBRANCH   1  26
TORSDOF 16
ENDMDL
MODEL 4
REMARK VINA RESULT: -6.629459961      2.338      3.500
REMARK  16 active torsions:
REMARK  status: ('A' for Active; 'I' for Inactive)
REMARK    1  A    between atoms: C2_2  and  C3_3 
REMARK    2  A    between atoms: C3_3  and  C4_4 
REMARK    3  A    between atoms: C4_4  and  S1_5 
REMARK    4  A    between atoms: S1_5  and  N1_8 
REMARK    5  A    between atoms: N1_8  and  C5_9 
REMARK    6  A    between atoms: N1_8  and  C8_14 
REMARK    7  A    between atoms: C5_9  and  C6_10 
REMARK    8  A    between atoms: C6_10  and  C7_11 
REMARK    9  A    between atoms: C7_11  and  O3_12 
REMARK   10  A    between atoms: C8_14  and  C9_15 
REMARK       I    between atoms: C9_15  and  N2_17 
REMARK   11  A    between atoms: C14_22  and  C15_23 
REMARK   12  A    between atoms: C15_23  and  N3_24 
REMARK   13  A    between atoms: C16_25  and  O5_26 
REMARK   14  A    between atoms: C19_30  and  O6_31 
REMARK   15  A    between atoms: C20_33  and  C25_39 
REMARK   16  A    between atoms: C22_36  and  C23_37 
ROOT
HETATM    1  C9  UNL     1       0.053   0.407  23.427  1.00  0.00     0.239 C 
HETATM    2  O4  UNL     1       0.697  -0.141  22.505  1.00  0.00    -0.271 OA
HETATM    3  N2  UNL     1       0.600   0.364  24.716  1.00  0.00    -0.344 N 
HETATM    4  C10 UNL     1       1.878  -0.301  25.000  1.00  0.00     0.126 C 
HETATM    5  C11 UNL     1       1.509  -1.645  25.601  1.00  0.00     0.020 C 
HETATM    6  C12 UNL     1       0.373  -1.408  26.577  1.00  0.00     0.004 C 
HETATM    7  C13 UNL     1       0.364   0.046  27.043  1.00  0.00     0.027 C 
HETATM    8  C14 UNL     1      -0.035   0.963  25.903  1.00  0.00     0.105 C 
ENDROOT
BRANCH   8   9
HETATM    9  C15 UNL     1       0.494   2.353  26.073  1.00  0.00     0.158 C 
BRANCH   9  10
HETATM   10  N3  UNL     1      -0.408   3.266  26.735  1.00  0.00    -0.306 N 
HETATM   11  C16 UNL     1      -1.334   4.033  26.077  1.00  0.00     0.151 A 
HETATM   12  C17 UNL     1      -1.992   4.775  26.995  1.00  0.00     0.013 A 
HETATM   13  C18 UNL     1      -1.467   4.471  28.255  1.00  0.00     0.033 A 
HETATM   14  C22 UNL     1      -3.085   5.797  27.054  1.00  0.00     0.052 C 
HETATM   15  C19 UNL     1      -0.493   3.536  28.047  1.00  0.00     0.153 A 
HETATM   16  C20 UNL     1      -2.106   5.223  29.361  1.00  0.00     0.163 C 
HETATM   17  O7  UNL     1      -3.482   5.019  29.314  1.00  0.00    -0.380 OA
HETATM   18  C21 UNL     1      -4.066   5.248  28.101  1.00  0.00     0.178 C 
BRANCH  11  19
HETATM   19  O5  UNL     1      -1.598   4.079  24.710  1.00  0.00    -0.345 OA
ATOM     20  H5  UNL     1      -1.629   4.842  24.144  1.00  0.00     0.219 HD
ENDBRANCH  11  19
BRANCH  15  21
HETATM   21  O6  UNL     1       0.248   3.005  29.111  1.00  0.00    -0.345 OA
ATOM     22  H6  UNL     1       0.002   2.338  29.741  1.00  0.00     0.219 HD
ENDBRANCH  15  21
BRANCH  16  23
HETATM   23  C25 UNL     1      -1.899   6.707  29.019  1.00  0.00     0.025 A 
HETATM   24  C23 UNL     1      -0.564   7.179  29.483  1.00  0.00     0.004 A 
HETATM   25  C24 UNL     1      -1.850   7.700  30.116  1.00  0.00     0.013 A 
ENDBRANCH  16  23
ENDBRANCH   9  10
ENDBRANCH   8   9
BRANCH   1  26
HETATM   26  C8  UNL     1      -1.219   1.061  23.157  1.00  0.00     0.243 C 
BRANCH  26  27
HETATM   27  N1  UNL     1      -1.448   1.378  21.748  1.00  0.00    -0.281 N 
BRANCH  27  28
HETATM   28  S1  UNL     1      -0.820   2.792  21.252  1.00  0.00     0.232 S 
HETATM   29  O1  UNL     1       0.398   2.418  20.319  1.00  0.00    -0.205 OA
HETATM   30  O2  UNL     1      -0.032   3.478  22.465  1.00  0.00    -0.205 OA
BRANCH  28  31
HETATM   31  C4  UNL     1      -1.616   4.104  20.504  1.00  0.00     0.163 C 
BRANCH  31  32
HETATM   32  C3  UNL     1      -1.863   5.416  21.104  1.00  0.00     0.016 C 
BRANCH  32  33
HETATM   33  C2  UNL     1      -2.291   6.569  20.291  1.00  0.00    -0.004 C 
HETATM   34  C1  UNL     1      -1.031   7.197  19.643  1.00  0.00     0.005 C 
ENDBRANCH  32  33
ENDBRANCH  31  32
ENDBRANCH  28  31
ENDBRANCH  27  28
BRANCH  27  35
HETATM   35  C5  UNL     1      -2.427   0.607  21.137  1.00  0.00     0.078 C 
BRANCH  35  36
HETATM   36  C6  UNL     1      -2.089   0.082  19.771  1.00  0.00     0.071 C 
BRANCH  36  37
HETATM   37  C7  UNL     1      -1.038  -0.931  19.629  1.00  0.00     0.169 C 
BRANCH  37  38
HETATM   38  O3  UNL     1       0.261  -0.480  19.586  1.00  0.00    -0.401 OA
ATOM     39  H3  UNL     1       0.622  -0.285  18.728  1.00  0.00     0.209 HD
ENDBRANCH  37  38
ENDBRANCH  36  37
ENDBRANCH  35  36
ENDBRANCH  27  35
ENDBRANCH  26  27
ENDBRANCH   1  26
TORSDOF 16
ENDMDL
MODEL 5
REMARK VINA RESULT: -6.580017184      1.173      3.056
REMARK  16 active torsions:
REMARK  status: ('A' for Active; 'I' for Inactive)
REMARK    1  A    between atoms: C2_2  and  C3_3 
REMARK    2  A    between atoms: C3_3  and  C4_4 
REMARK    3  A    between atoms: C4_4  and  S1_5 
REMARK    4  A    between atoms: S1_5  and  N1_8 
REMARK    5  A    between atoms: N1_8  and  C5_9 
REMARK    6  A    between atoms: N1_8  and  C8_14 
REMARK    7  A    between atoms: C5_9  and  C6_10 
REMARK    8  A    between atoms: C6_10  and  C7_11 
REMARK    9  A    between atoms: C7_11  and  O3_12 
REMARK   10  A    between atoms: C8_14  and  C9_15 
REMARK       I    between atoms: C9_15  and  N2_17 
REMARK   11  A    between atoms: C14_22  and  C15_23 
REMARK   12  A    between atoms: C15_23  and  N3_24 
REMARK   13  A    between atoms: C16_25  and  O5_26 
REMARK   14  A    between atoms: C19_30  and  O6_31 
REMARK   15  A    between atoms: C20_33  and  C25_39 
REMARK   16  A    between atoms: C22_36  and  C23_37 
ROOT
HETATM    1  C9  UNL     1      -0.831   3.717  21.923  1.00  0.00     0.239 C 
HETATM    2  O4  UNL     1      -0.131   3.415  20.931  1.00  0.00    -0.271 OA
HETATM    3  N2  UNL     1      -0.951   2.769  22.947  1.00  0.00    -0.344 N 
HETATM    4  C10 UNL     1      -0.295   1.457  22.876  1.00  0.00     0.126 C 
HETATM    5  C11 UNL     1      -1.382   0.482  22.462  1.00  0.00     0.020 C 
HETATM    6  C12 UNL     1      -2.628   0.833  23.253  1.00  0.00     0.004 C 
HETATM    7  C13 UNL     1      -2.258   1.594  24.523  1.00  0.00     0.027 C 
HETATM    8  C14 UNL     1      -1.736   2.975  24.177  1.00  0.00     0.105 C 
ENDROOT
BRANCH   8   9
HETATM    9  C15 UNL     1      -0.826   3.526  25.231  1.00  0.00     0.158 C 
BRANCH   9  10
HETATM   10  N3  UNL     1      -1.498   4.219  26.306  1.00  0.00    -0.306 N 
HETATM   11  C16 UNL     1      -2.556   5.070  26.120  1.00  0.00     0.151 A 
HETATM   12  C17 UNL     1      -2.925   5.550  27.328  1.00  0.00     0.013 A 
HETATM   13  C18 UNL     1      -2.081   4.992  28.293  1.00  0.00     0.033 A 
HETATM   14  C22 UNL     1      -3.943   6.478  27.915  1.00  0.00     0.052 C 
HETATM   15  C19 UNL     1      -1.216   4.177  27.617  1.00  0.00     0.153 A 
HETATM   16  C20 UNL     1      -2.380   5.440  29.673  1.00  0.00     0.163 C 
HETATM   17  O7  UNL     1      -3.721   5.186  29.953  1.00  0.00    -0.380 OA
HETATM   18  C21 UNL     1      -4.610   5.658  29.030  1.00  0.00     0.178 C 
BRANCH  11  19
HETATM   19  O5  UNL     1      -3.182   5.415  24.924  1.00  0.00    -0.345 OA
ATOM     20  H5  UNL     1      -4.032   5.822  24.803  1.00  0.00     0.219 HD
ENDBRANCH  11  19
BRANCH  15  21
HETATM   21  O6  UNL     1      -0.222   3.454  28.288  1.00  0.00    -0.345 OA
ATOM     22  H6  UNL     1       0.285   3.697  29.054  1.00  0.00     0.219 HD
ENDBRANCH  15  21
BRANCH  16  23
HETATM   23  C25 UNL     1      -2.250   6.971  29.644  1.00  0.00     0.025 A 
HETATM   24  C23 UNL     1      -0.820   7.382  29.565  1.00  0.00     0.004 A 
HETATM   25  C24 UNL     1      -1.658   7.668  30.808  1.00  0.00     0.013 A 
ENDBRANCH  16  23
ENDBRANCH   9  10
ENDBRANCH   8   9
BRANCH   1  26
HETATM   26  C8  UNL     1      -1.493   5.012  21.998  1.00  0.00     0.243 C 
BRANCH  26  27
HETATM   27  N1  UNL     1      -2.379   5.303  20.872  1.00  0.00    -0.281 N 
BRANCH  27  28
HETATM   28  S1  UNL     1      -3.796   4.509  20.890  1.00  0.00     0.232 S 
HETATM   29  O1  UNL     1      -3.448   2.999  20.587  1.00  0.00    -0.205 OA
HETATM   30  O2  UNL     1      -4.622   4.868  19.566  1.00  0.00    -0.205 OA
BRANCH  28  31
HETATM   31  C4  UNL     1      -4.990   4.494  22.110  1.00  0.00     0.163 C 
BRANCH  31  32
HETATM   32  C3  UNL     1      -5.273   3.386  23.024  1.00  0.00     0.016 C 
BRANCH  32  33
HETATM   33  C2  UNL     1      -6.209   3.535  24.153  1.00  0.00    -0.004 C 
HETATM   34  C1  UNL     1      -5.581   2.856  25.396  1.00  0.00     0.005 C 
ENDBRANCH  32  33
ENDBRANCH  31  32
ENDBRANCH  28  31
ENDBRANCH  27  28
BRANCH  27  35
HETATM   35  C5  UNL     1      -1.762   5.943  19.805  1.00  0.00     0.078 C 
BRANCH  35  36
HETATM   36  C6  UNL     1      -1.818   7.443  19.820  1.00  0.00     0.071 C 
BRANCH  36  37
HETATM   37  C7  UNL     1      -3.094   8.119  19.562  1.00  0.00     0.169 C 
BRANCH  37  38
HETATM   38  O3  UNL     1      -4.080   7.973  20.510  1.00  0.00    -0.401 OA
ATOM     39  H3  UNL     1      -4.873   8.483  20.389  1.00  0.00     0.209 HD
ENDBRANCH  37  38
ENDBRANCH  36  37
ENDBRANCH  35  36
ENDBRANCH  27  35
ENDBRANCH  26  27
ENDBRANCH   1  26
TORSDOF 16
ENDMDL
