MODEL 1
REMARK VINA RESULT: -7.684847618      0.000      0.000
REMARK  12 active torsions:
REMARK  status: ('A' for Active; 'I' for Inactive)
REMARK    1  A    between atoms: O1_2  and  C2_3 
REMARK    2  A    between atoms: C2_3  and  C3_5 
REMARK    3  A    between atoms: C3_5  and  C4_6 
REMARK    4  A    between atoms: C3_5  and  N1_14 
REMARK    5  A    between atoms: C4_6  and  C5_7 
REMARK    6  A    between atoms: C5_7  and  C6_8 
REMARK    7  A    between atoms: C6_8  and  C7_9 
REMARK    8  A    between atoms: C7_9  and  C8_10 
REMARK    9  A    between atoms: C8_10  and  C9_11 
REMARK       I    between atoms: N1_14  and  C10_16 
REMARK   10  A    between atoms: C10_16  and  C11_18 
REMARK   11  A    between atoms: C11_18  and  C12_19 
REMARK   12  A    between atoms: C14_26  and  C15_27 
ROOT
HETATM    1  C12 UNL     1      -2.091   1.894  26.942  1.00  0.00     0.136 A 
HETATM    2  C13 UNL     1      -0.943   1.138  26.364  1.00  0.00     0.246 A 
HETATM    3  O6  UNL     1      -1.004  -0.040  25.975  1.00  0.00    -0.271 OA
HETATM    4  N2  UNL     1       0.144   2.040  26.374  1.00  0.00    -0.270 N 
ATOM      5  H2  UNL     1       1.087   1.845  26.039  1.00  0.00     0.190 HD
HETATM    6  N3  UNL     1      -0.292   3.219  26.912  1.00  0.00    -0.305 N 
ATOM      7  H3  UNL     1       0.308   4.035  27.032  1.00  0.00     0.186 HD
HETATM    8  C14 UNL     1      -1.558   3.197  27.258  1.00  0.00     0.029 A 
ENDROOT
BRANCH   1   9
HETATM    9  C11 UNL     1      -3.218   1.767  25.994  1.00  0.00     0.122 C 
BRANCH   9  10
HETATM   10  C10 UNL     1      -2.969   2.153  24.607  1.00  0.00     0.219 C 
HETATM   11  N1  UNL     1      -2.403   3.412  24.232  1.00  0.00    -0.347 N 
ATOM     12  H1  UNL     1      -2.162   4.080  24.964  1.00  0.00     0.163 HD
HETATM   13  O5  UNL     1      -3.255   1.365  23.678  1.00  0.00    -0.274 OA
BRANCH  11  14
HETATM   14  C3  UNL     1      -2.161   3.768  22.856  1.00  0.00     0.184 C 
BRANCH  14  15
HETATM   15  C2  UNL     1      -0.724   3.616  22.565  1.00  0.00     0.281 C 
HETATM   16  O2  UNL     1       0.134   3.597  23.507  1.00  0.00    -0.263 OA
BRANCH  15  17
HETATM   17  O1  UNL     1      -0.218   3.484  21.269  1.00  0.00    -0.325 OA
HETATM   18  C1  UNL     1      -0.857   2.602  20.354  1.00  0.00     0.213 C 
ENDBRANCH  15  17
ENDBRANCH  14  15
BRANCH  14  19
HETATM   19  C4  UNL     1      -2.668   5.171  22.552  1.00  0.00     0.035 C 
BRANCH  19  20
HETATM   20  C5  UNL     1      -3.870   5.111  21.619  1.00  0.00     0.002 C 
BRANCH  20  21
HETATM   21  C6  UNL     1      -3.373   5.400  20.219  1.00  0.00     0.001 C 
BRANCH  21  22
HETATM   22  C7  UNL     1      -2.550   6.653  20.198  1.00  0.00     0.010 C 
BRANCH  22  23
HETATM   23  C8  UNL     1      -3.352   7.912  20.034  1.00  0.00     0.113 C 
BRANCH  23  24
HETATM   24  C9  UNL     1      -2.599   8.926  19.272  1.00  0.00     0.172 C 
HETATM   25  O3  UNL     1      -2.820  10.165  19.416  1.00  0.00    -0.648 OA
HETATM   26  O4  UNL     1      -1.629   8.506  18.378  1.00  0.00    -0.648 OA
ENDBRANCH  23  24
ENDBRANCH  22  23
ENDBRANCH  21  22
ENDBRANCH  20  21
ENDBRANCH  19  20
ENDBRANCH  14  19
ENDBRANCH  11  14
ENDBRANCH   9  10
ENDBRANCH   1   9
BRANCH   8  27
HETATM   27  C15 UNL     1      -2.184   4.402  27.906  1.00  0.00     0.107 C 
HETATM   28  C16 UNL     1      -3.225   4.988  27.006  1.00  0.00     0.137 C 
HETATM   29  O7  UNL     1      -2.937   5.826  26.175  1.00  0.00    -0.297 OA
HETATM   30  C17 UNL     1      -4.649   4.574  27.090  1.00  0.00     0.079 C 
HETATM   31  C18 UNL     1      -5.558   5.682  27.560  1.00  0.00     0.011 C 
HETATM   32  C19 UNL     1      -5.372   6.033  29.006  1.00  0.00    -0.016 C 
HETATM   33  C20 UNL     1      -6.718   6.427  29.575  1.00  0.00     0.010 C 
HETATM   34  C21 UNL     1      -4.332   7.135  29.176  1.00  0.00     0.036 C 
HETATM   35  C22 UNL     1      -3.053   6.552  29.795  1.00  0.00     0.126 C 
HETATM   36  O8  UNL     1      -2.830   7.238  30.973  1.00  0.00    -0.385 OA
HETATM   37  C25 UNL     1      -1.888   6.684  28.888  1.00  0.00     0.021 C 
HETATM   38  C23 UNL     1      -1.653   7.908  30.946  1.00  0.00     0.168 C 
HETATM   39  C24 UNL     1      -0.894   7.434  29.749  1.00  0.00     0.034 C 
HETATM   40  C26 UNL     1      -1.236   5.374  28.486  1.00  0.00     0.005 C 
HETATM   41  C27 UNL     1      -0.567   4.743  29.696  1.00  0.00     0.011 C 
ENDBRANCH   8  27
TORSDOF 12
ENDMDL
MODEL 2
REMARK VINA RESULT: -7.596273172      2.269      3.888
REMARK  12 active torsions:
REMARK  status: ('A' for Active; 'I' for Inactive)
REMARK    1  A    between atoms: O1_2  and  C2_3 
REMARK    2  A    between atoms: C2_3  and  C3_5 
REMARK    3  A    between atoms: C3_5  and  C4_6 
REMARK    4  A    between atoms: C3_5  and  N1_14 
REMARK    5  A    between atoms: C4_6  and  C5_7 
REMARK    6  A    between atoms: C5_7  and  C6_8 
REMARK    7  A    between atoms: C6_8  and  C7_9 
REMARK    8  A    between atoms: C7_9  and  C8_10 
REMARK    9  A    between atoms: C8_10  and  C9_11 
REMARK       I    between atoms: N1_14  and  C10_16 
REMARK   10  A    between atoms: C10_16  and  C11_18 
REMARK   11  A    between atoms: C11_18  and  C12_19 
REMARK   12  A    between atoms: C14_26  and  C15_27 
ROOT
HETATM    1  C12 UNL     1      -1.024   2.456  24.044  1.00  0.00     0.136 A 
HETATM    2  C13 UNL     1      -0.229   1.196  23.971  1.00  0.00     0.246 A 
HETATM    3  O6  UNL     1       0.245   0.725  22.925  1.00  0.00    -0.271 OA
HETATM    4  N2  UNL     1      -0.163   0.717  25.298  1.00  0.00    -0.270 N 
ATOM      5  H2  UNL     1       0.315  -0.129  25.606  1.00  0.00     0.190 HD
HETATM    6  N3  UNL     1      -0.854   1.587  26.095  1.00  0.00    -0.305 N 
ATOM      7  H3  UNL     1      -0.957   1.461  27.102  1.00  0.00     0.186 HD
HETATM    8  C14 UNL     1      -1.371   2.598  25.437  1.00  0.00     0.029 A 
ENDROOT
BRANCH   1   9
HETATM    9  C11 UNL     1      -0.235   3.507  23.368  1.00  0.00     0.122 C 
BRANCH   9  10
HETATM   10  C10 UNL     1      -0.651   3.892  22.021  1.00  0.00     0.219 C 
HETATM   11  N1  UNL     1      -1.677   4.855  21.762  1.00  0.00    -0.347 N 
ATOM     12  H1  UNL     1      -2.148   5.296  22.551  1.00  0.00     0.163 HD
HETATM   13  O5  UNL     1      -0.102   3.372  21.024  1.00  0.00    -0.274 OA
BRANCH  11  14
HETATM   14  C3  UNL     1      -2.066   5.223  20.423  1.00  0.00     0.184 C 
BRANCH  14  15
HETATM   15  C2  UNL     1      -1.697   6.630  20.184  1.00  0.00     0.281 C 
HETATM   16  O2  UNL     1      -0.521   6.940  19.800  1.00  0.00    -0.263 OA
BRANCH  15  17
HETATM   17  O1  UNL     1      -2.588   7.693  20.357  1.00  0.00    -0.325 OA
HETATM   18  C1  UNL     1      -2.549   8.792  19.455  1.00  0.00     0.213 C 
ENDBRANCH  15  17
ENDBRANCH  14  15
BRANCH  14  19
HETATM   19  C4  UNL     1      -3.548   4.966  20.190  1.00  0.00     0.035 C 
BRANCH  19  20
HETATM   20  C5  UNL     1      -4.191   4.391  21.446  1.00  0.00     0.002 C 
BRANCH  20  21
HETATM   21  C6  UNL     1      -5.452   5.183  21.713  1.00  0.00     0.001 C 
BRANCH  21  22
HETATM   22  C7  UNL     1      -6.629   4.267  21.874  1.00  0.00     0.010 C 
BRANCH  22  23
HETATM   23  C8  UNL     1      -6.354   2.841  21.491  1.00  0.00     0.113 C 
BRANCH  23  24
HETATM   24  C9  UNL     1      -7.032   2.491  20.229  1.00  0.00     0.172 C 
HETATM   25  O3  UNL     1      -7.118   1.291  19.832  1.00  0.00    -0.648 OA
HETATM   26  O4  UNL     1      -7.584   3.504  19.462  1.00  0.00    -0.648 OA
ENDBRANCH  23  24
ENDBRANCH  22  23
ENDBRANCH  21  22
ENDBRANCH  20  21
ENDBRANCH  19  20
ENDBRANCH  14  19
ENDBRANCH  11  14
ENDBRANCH   9  10
ENDBRANCH   1   9
BRANCH   8  27
HETATM   27  C15 UNL     1      -2.199   3.625  26.160  1.00  0.00     0.107 C 
HETATM   28  C16 UNL     1      -3.204   4.225  25.229  1.00  0.00     0.137 C 
HETATM   29  O7  UNL     1      -2.933   5.200  24.556  1.00  0.00    -0.297 OA
HETATM   30  C17 UNL     1      -4.569   3.659  25.087  1.00  0.00     0.079 C 
HETATM   31  C18 UNL     1      -5.647   4.587  25.589  1.00  0.00     0.011 C 
HETATM   32  C19 UNL     1      -5.653   4.743  27.081  1.00  0.00    -0.016 C 
HETATM   33  C20 UNL     1      -7.088   4.909  27.533  1.00  0.00     0.010 C 
HETATM   34  C21 UNL     1      -4.775   5.909  27.517  1.00  0.00     0.036 C 
HETATM   35  C22 UNL     1      -3.506   5.378  28.201  1.00  0.00     0.126 C 
HETATM   36  O8  UNL     1      -3.489   5.905  29.477  1.00  0.00    -0.385 OA
HETATM   37  C25 UNL     1      -2.278   5.759  27.464  1.00  0.00     0.021 C 
HETATM   38  C23 UNL     1      -2.403   6.689  29.679  1.00  0.00     0.168 C 
HETATM   39  C24 UNL     1      -1.474   6.475  28.529  1.00  0.00     0.034 C 
HETATM   40  C26 UNL     1      -1.437   4.595  26.972  1.00  0.00     0.005 C 
HETATM   41  C27 UNL     1      -0.826   3.867  28.158  1.00  0.00     0.011 C 
ENDBRANCH   8  27
TORSDOF 12
ENDMDL
MODEL 3
REMARK VINA RESULT: -7.582512876      1.196      1.399
REMARK  12 active torsions:
REMARK  status: ('A' for Active; 'I' for Inactive)
REMARK    1  A    between atoms: O1_2  and  C2_3 
REMARK    2  A    between atoms: C2_3  and  C3_5 
REMARK    3  A    between atoms: C3_5  and  C4_6 
REMARK    4  A    between atoms: C3_5  and  N1_14 
REMARK    5  A    between atoms: C4_6  and  C5_7 
REMARK    6  A    between atoms: C5_7  and  C6_8 
REMARK    7  A    between atoms: C6_8  and  C7_9 
REMARK    8  A    between atoms: C7_9  and  C8_10 
REMARK    9  A    between atoms: C8_10  and  C9_11 
REMARK       I    between atoms: N1_14  and  C10_16 
REMARK   10  A    between atoms: C10_16  and  C11_18 
REMARK   11  A    between atoms: C11_18  and  C12_19 
REMARK   12  A    between atoms: C14_26  and  C15_27 
ROOT
HETATM    1  C12 UNL     1      -0.683   2.171  26.965  1.00  0.00     0.136 A 
HETATM    2  C13 UNL     1       0.227   1.038  27.297  1.00  0.00     0.246 A 
HETATM    3  O6  UNL     1       0.584   0.164  26.489  1.00  0.00    -0.271 OA
HETATM    4  N2  UNL     1       0.552   1.203  28.661  1.00  0.00    -0.270 N 
ATOM      5  H2  UNL     1       1.165   0.600  29.209  1.00  0.00     0.190 HD
HETATM    6  N3  UNL     1      -0.100   2.315  29.117  1.00  0.00    -0.305 N 
ATOM      7  H3  UNL     1      -0.031   2.650  30.078  1.00  0.00     0.186 HD
HETATM    8  C14 UNL     1      -0.823   2.909  28.197  1.00  0.00     0.029 A 
ENDROOT
BRANCH   1   9
HETATM    9  C11 UNL     1      -0.132   2.834  25.765  1.00  0.00     0.122 C 
BRANCH   9  10
HETATM   10  C10 UNL     1      -0.954   2.817  24.557  1.00  0.00     0.219 C 
HETATM   11  N1  UNL     1      -1.235   3.986  23.782  1.00  0.00    -0.347 N 
ATOM     12  H1  UNL     1      -0.849   4.881  24.084  1.00  0.00     0.163 HD
HETATM   13  O5  UNL     1      -1.450   1.742  24.153  1.00  0.00    -0.274 OA
BRANCH  11  14
HETATM   14  C3  UNL     1      -2.044   3.943  22.589  1.00  0.00     0.184 C 
BRANCH  14  15
HETATM   15  C2  UNL     1      -1.199   3.545  21.449  1.00  0.00     0.281 C 
HETATM   16  O2  UNL     1      -0.026   4.023  21.308  1.00  0.00    -0.263 OA
BRANCH  15  17
HETATM   17  O1  UNL     1      -1.616   2.639  20.469  1.00  0.00    -0.325 OA
HETATM   18  C1  UNL     1      -2.626   1.687  20.781  1.00  0.00     0.213 C 
ENDBRANCH  15  17
ENDBRANCH  14  15
BRANCH  14  19
HETATM   19  C4  UNL     1      -2.748   5.272  22.352  1.00  0.00     0.035 C 
BRANCH  19  20
HETATM   20  C5  UNL     1      -4.073   5.050  21.633  1.00  0.00     0.002 C 
BRANCH  20  21
HETATM   21  C6  UNL     1      -3.917   5.577  20.223  1.00  0.00     0.001 C 
BRANCH  21  22
HETATM   22  C7  UNL     1      -2.947   6.721  20.189  1.00  0.00     0.010 C 
BRANCH  22  23
HETATM   23  C8  UNL     1      -3.569   8.043  19.841  1.00  0.00     0.113 C 
BRANCH  23  24
HETATM   24  C9  UNL     1      -2.583   8.945  19.218  1.00  0.00     0.172 C 
HETATM   25  O3  UNL     1      -1.705   8.514  18.412  1.00  0.00    -0.648 OA
HETATM   26  O4  UNL     1      -2.623  10.295  19.524  1.00  0.00    -0.648 OA
ENDBRANCH  23  24
ENDBRANCH  22  23
ENDBRANCH  21  22
ENDBRANCH  20  21
ENDBRANCH  19  20
ENDBRANCH  14  19
ENDBRANCH  11  14
ENDBRANCH   9  10
ENDBRANCH   1   9
BRANCH   8  27
HETATM   27  C15 UNL     1      -1.639   4.124  28.546  1.00  0.00     0.107 C 
HETATM   28  C16 UNL     1      -2.733   4.315  27.543  1.00  0.00     0.137 C 
HETATM   29  O7  UNL     1      -2.553   4.965  26.533  1.00  0.00    -0.297 OA
HETATM   30  C17 UNL     1      -4.080   3.721  27.740  1.00  0.00     0.079 C 
HETATM   31  C18 UNL     1      -5.157   4.758  27.942  1.00  0.00     0.011 C 
HETATM   32  C19 UNL     1      -5.062   5.467  29.260  1.00  0.00    -0.016 C 
HETATM   33  C20 UNL     1      -6.466   5.777  29.734  1.00  0.00     0.010 C 
HETATM   34  C21 UNL     1      -4.204   6.722  29.150  1.00  0.00     0.036 C 
HETATM   35  C22 UNL     1      -2.868   6.504  29.877  1.00  0.00     0.126 C 
HETATM   36  O8  UNL     1      -2.780   7.476  30.854  1.00  0.00    -0.385 OA
HETATM   37  C25 UNL     1      -1.713   6.592  28.951  1.00  0.00     0.021 C 
HETATM   38  C23 UNL     1      -1.717   8.290  30.655  1.00  0.00     0.168 C 
HETATM   39  C24 UNL     1      -0.865   7.667  29.597  1.00  0.00     0.034 C 
HETATM   40  C26 UNL     1      -0.862   5.338  28.866  1.00  0.00     0.005 C 
HETATM   41  C27 UNL     1      -0.137   5.121  30.184  1.00  0.00     0.011 C 
ENDBRANCH   8  27
TORSDOF 12
ENDMDL
MODEL 4
REMARK VINA RESULT: -7.579808494      4.051      7.481
REMARK  12 active torsions:
REMARK  status: ('A' for Active; 'I' for Inactive)
REMARK    1  A    between atoms: O1_2  and  C2_3 
REMARK    2  A    between atoms: C2_3  and  C3_5 
REMARK    3  A    between atoms: C3_5  and  C4_6 
REMARK    4  A    between atoms: C3_5  and  N1_14 
REMARK    5  A    between atoms: C4_6  and  C5_7 
REMARK    6  A    between atoms: C5_7  and  C6_8 
REMARK    7  A    between atoms: C6_8  and  C7_9 
REMARK    8  A    between atoms: C7_9  and  C8_10 
REMARK    9  A    between atoms: C8_10  and  C9_11 
REMARK       I    between atoms: N1_14  and  C10_16 
REMARK   10  A    between atoms: C10_16  and  C11_18 
REMARK   11  A    between atoms: C11_18  and  C12_19 
REMARK   12  A    between atoms: C14_26  and  C15_27 
ROOT
HETATM    1  C12 UNL     1      -2.478   6.053  20.822  1.00  0.00     0.136 A 
HETATM    2  C13 UNL     1      -2.587   7.414  20.222  1.00  0.00     0.246 A 
HETATM    3  O6  UNL     1      -1.636   8.038  19.723  1.00  0.00    -0.271 OA
HETATM    4  N2  UNL     1      -3.944   7.777  20.359  1.00  0.00    -0.270 N 
ATOM      5  H2  UNL     1      -4.366   8.651  20.045  1.00  0.00     0.190 HD
HETATM    6  N3  UNL     1      -4.594   6.751  20.987  1.00  0.00    -0.305 N 
ATOM      7  H3  UNL     1      -5.590   6.770  21.206  1.00  0.00     0.186 HD
HETATM    8  C14 UNL     1      -3.811   5.740  21.280  1.00  0.00     0.029 A 
ENDROOT
BRANCH   1   9
HETATM    9  C11 UNL     1      -1.817   5.188  19.823  1.00  0.00     0.122 C 
BRANCH   9  10
HETATM   10  C10 UNL     1      -0.992   4.094  20.329  1.00  0.00     0.219 C 
HETATM   11  N1  UNL     1      -0.964   2.792  19.737  1.00  0.00    -0.347 N 
ATOM     12  H1  UNL     1      -1.551   2.610  18.923  1.00  0.00     0.163 HD
HETATM   13  O5  UNL     1      -0.260   4.273  21.328  1.00  0.00    -0.274 OA
BRANCH  11  14
HETATM   14  C3  UNL     1      -0.135   1.730  20.251  1.00  0.00     0.184 C 
BRANCH  14  15
HETATM   15  C2  UNL     1       0.775   1.271  19.187  1.00  0.00     0.281 C 
HETATM   16  O2  UNL     1       0.535   1.538  17.964  1.00  0.00    -0.263 OA
BRANCH  15  17
HETATM   17  O1  UNL     1       1.934   0.532  19.439  1.00  0.00    -0.325 OA
HETATM   18  C1  UNL     1       2.049  -0.788  18.922  1.00  0.00     0.213 C 
ENDBRANCH  15  17
ENDBRANCH  14  15
BRANCH  14  19
HETATM   19  C4  UNL     1      -0.980   0.598  20.818  1.00  0.00     0.035 C 
BRANCH  19  20
HETATM   20  C5  UNL     1      -2.361   0.593  20.176  1.00  0.00     0.002 C 
BRANCH  20  21
HETATM   21  C6  UNL     1      -2.632  -0.815  19.691  1.00  0.00     0.001 C 
BRANCH  21  22
HETATM   22  C7  UNL     1      -2.512  -0.893  18.198  1.00  0.00     0.010 C 
BRANCH  22  23
HETATM   23  C8  UNL     1      -1.298  -1.634  17.717  1.00  0.00     0.113 C 
BRANCH  23  24
HETATM   24  C9  UNL     1      -0.898  -1.180  16.372  1.00  0.00     0.172 C 
HETATM   25  O3  UNL     1       0.178  -1.575  15.831  1.00  0.00    -0.648 OA
HETATM   26  O4  UNL     1      -1.722  -0.302  15.689  1.00  0.00    -0.648 OA
ENDBRANCH  23  24
ENDBRANCH  22  23
ENDBRANCH  21  22
ENDBRANCH  20  21
ENDBRANCH  19  20
ENDBRANCH  14  19
ENDBRANCH  11  14
ENDBRANCH   9  10
ENDBRANCH   1   9
BRANCH   8  27
HETATM   27  C15 UNL     1      -4.360   4.546  22.011  1.00  0.00     0.107 C 
HETATM   28  C16 UNL     1      -5.687   4.157  21.440  1.00  0.00     0.137 C 
HETATM   29  O7  UNL     1      -6.718   4.644  21.858  1.00  0.00    -0.297 OA
HETATM   30  C17 UNL     1      -5.800   3.163  20.342  1.00  0.00     0.079 C 
HETATM   31  C18 UNL     1      -6.495   1.893  20.767  1.00  0.00     0.011 C 
HETATM   32  C19 UNL     1      -5.683   1.054  21.708  1.00  0.00    -0.016 C 
HETATM   33  C20 UNL     1      -5.975  -0.402  21.416  1.00  0.00     0.010 C 
HETATM   34  C21 UNL     1      -5.971   1.418  23.159  1.00  0.00     0.036 C 
HETATM   35  C22 UNL     1      -4.764   2.154  23.761  1.00  0.00     0.126 C 
HETATM   36  O8  UNL     1      -4.344   1.413  24.848  1.00  0.00    -0.385 OA
HETATM   37  C25 UNL     1      -5.106   3.535  24.175  1.00  0.00     0.021 C 
HETATM   38  C23 UNL     1      -4.438   2.118  26.000  1.00  0.00     0.168 C 
HETATM   39  C24 UNL     1      -4.705   3.542  25.635  1.00  0.00     0.034 C 
HETATM   40  C26 UNL     1      -4.311   4.628  23.485  1.00  0.00     0.005 C 
HETATM   41  C27 UNL     1      -2.860   4.564  23.930  1.00  0.00     0.011 C 
ENDBRANCH   8  27
TORSDOF 12
ENDMDL
MODEL 5
REMARK VINA RESULT: -7.564284538      3.614      7.373
REMARK  12 active torsions:
REMARK  status: ('A' for Active; 'I' for Inactive)
REMARK    1  A    between atoms: O1_2  and  C2_3 
REMARK    2  A    between atoms: C2_3  and  C3_5 
REMARK    3  A    between atoms: C3_5  and  C4_6 
REMARK    4  A    between atoms: C3_5  and  N1_14 
REMARK    5  A    between atoms: C4_6  and  C5_7 
REMARK    6  A    between atoms: C5_7  and  C6_8 
REMARK    7  A    between atoms: C6_8  and  C7_9 
REMARK    8  A    between atoms: C7_9  and  C8_10 
REMARK    9  A    between atoms: C8_10  and  C9_11 
REMARK       I    between atoms: N1_14  and  C10_16 
REMARK   10  A    between atoms: C10_16  and  C11_18 
REMARK   11  A    between atoms: C11_18  and  C12_19 
REMARK   12  A    between atoms: C14_26  and  C15_27 
ROOT
HETATM    1  C12 UNL     1      -2.524   6.454  20.782  1.00  0.00     0.136 A 
HETATM    2  C13 UNL     1      -2.799   7.786  20.173  1.00  0.00     0.246 A 
HETATM    3  O6  UNL     1      -1.927   8.539  19.708  1.00  0.00    -0.271 OA
HETATM    4  N2  UNL     1      -4.198   7.956  20.258  1.00  0.00    -0.270 N 
ATOM      5  H2  UNL     1      -4.726   8.763  19.926  1.00  0.00     0.190 HD
HETATM    6  N3  UNL     1      -4.721   6.849  20.865  1.00  0.00    -0.305 N 
ATOM      7  H3  UNL     1      -5.717   6.728  21.047  1.00  0.00     0.186 HD
HETATM    8  C14 UNL     1      -3.815   5.956  21.191  1.00  0.00     0.029 A 
ENDROOT
BRANCH   1   9
HETATM    9  C11 UNL     1      -1.711   5.691  19.812  1.00  0.00     0.122 C 
BRANCH   9  10
HETATM   10  C10 UNL     1      -1.034   4.493  20.304  1.00  0.00     0.219 C 
HETATM   11  N1  UNL     1      -1.338   3.174  19.842  1.00  0.00    -0.347 N 
ATOM     12  H1  UNL     1      -2.066   3.055  19.137  1.00  0.00     0.163 HD
HETATM   13  O5  UNL     1      -0.138   4.594  21.171  1.00  0.00    -0.274 OA
BRANCH  11  14
HETATM   14  C3  UNL     1      -0.650   2.007  20.338  1.00  0.00     0.184 C 
BRANCH  14  15
HETATM   15  C2  UNL     1       0.210   1.466  19.271  1.00  0.00     0.281 C 
HETATM   16  O2  UNL     1       1.476   1.421  19.414  1.00  0.00    -0.263 OA
BRANCH  15  17
HETATM   17  O1  UNL     1      -0.290   0.976  18.062  1.00  0.00    -0.325 OA
HETATM   18  C1  UNL     1       0.119  -0.307  17.603  1.00  0.00     0.213 C 
ENDBRANCH  15  17
ENDBRANCH  14  15
BRANCH  14  19
HETATM   19  C4  UNL     1      -1.634   0.974  20.870  1.00  0.00     0.035 C 
BRANCH  19  20
HETATM   20  C5  UNL     1      -1.233   0.532  22.271  1.00  0.00     0.002 C 
BRANCH  20  21
HETATM   21  C6  UNL     1      -0.483   1.680  22.912  1.00  0.00     0.001 C 
BRANCH  21  22
HETATM   22  C7  UNL     1      -0.277   1.427  24.376  1.00  0.00     0.010 C 
BRANCH  22  23
HETATM   23  C8  UNL     1       0.627   2.420  25.049  1.00  0.00     0.113 C 
BRANCH  23  24
HETATM   24  C9  UNL     1       0.210   2.655  26.445  1.00  0.00     0.172 C 
HETATM   25  O3  UNL     1      -0.729   3.456  26.731  1.00  0.00    -0.648 OA
HETATM   26  O4  UNL     1       0.866   1.982  27.461  1.00  0.00    -0.648 OA
ENDBRANCH  23  24
ENDBRANCH  22  23
ENDBRANCH  21  22
ENDBRANCH  20  21
ENDBRANCH  19  20
ENDBRANCH  14  19
ENDBRANCH  11  14
ENDBRANCH   9  10
ENDBRANCH   1   9
BRANCH   8  27
HETATM   27  C15 UNL     1      -4.220   4.696  21.907  1.00  0.00     0.107 C 
HETATM   28  C16 UNL     1      -5.561   4.239  21.427  1.00  0.00     0.137 C 
HETATM   29  O7  UNL     1      -6.583   4.633  21.951  1.00  0.00    -0.297 OA
HETATM   30  C17 UNL     1      -5.699   3.287  20.296  1.00  0.00     0.079 C 
HETATM   31  C18 UNL     1      -6.269   1.954  20.714  1.00  0.00     0.011 C 
HETATM   32  C19 UNL     1      -5.325   1.136  21.543  1.00  0.00    -0.016 C 
HETATM   33  C20 UNL     1      -5.543  -0.324  21.206  1.00  0.00     0.010 C 
HETATM   34  C21 UNL     1      -5.513   1.416  23.029  1.00  0.00     0.036 C 
HETATM   35  C22 UNL     1      -4.311   2.209  23.566  1.00  0.00     0.126 C 
HETATM   36  O8  UNL     1      -3.752   1.454  24.578  1.00  0.00    -0.385 OA
HETATM   37  C25 UNL     1      -4.709   3.544  24.072  1.00  0.00     0.021 C 
HETATM   38  C23 UNL     1      -3.795   2.101  25.766  1.00  0.00     0.168 C 
HETATM   39  C24 UNL     1      -4.187   3.517  25.493  1.00  0.00     0.034 C 
HETATM   40  C26 UNL     1      -4.051   4.719  23.373  1.00  0.00     0.005 C 
HETATM   41  C27 UNL     1      -2.566   4.739  23.695  1.00  0.00     0.011 C 
ENDBRANCH   8  27
TORSDOF 12
ENDMDL
