MODEL 1
REMARK VINA RESULT: -5.935624782      0.000      0.000
REMARK  7 active torsions:
REMARK  status: ('A' for Active; 'I' for Inactive)
REMARK    1  A    between atoms: N1_2  and  C4_5 
REMARK    2  A    between atoms: C4_5  and  C5_6 
REMARK    3  A    between atoms: C6_7  and  O1_8 
REMARK    4  A    between atoms: C7_10  and  N2_11 
REMARK    5  A    between atoms: C8_15  and  O2_16 
REMARK    6  A    between atoms: C9_18  and  C10_19 
REMARK    7  A    between atoms: C10_19  and  N3_20 
ROOT
HETATM    1  C5  UNL     1      15.641 -13.875  20.971  1.00  0.00     0.057 C 
HETATM    2  C6  UNL     1      16.578 -12.990  21.742  1.00  0.00     0.158 C 
HETATM    3  C7  UNL     1      17.699 -12.409  20.922  1.00  0.00     0.241 C 
HETATM    4  C8  UNL     1      17.173 -11.669  19.710  1.00  0.00     0.158 C 
HETATM    5  C9  UNL     1      16.161 -12.451  18.948  1.00  0.00     0.057 C 
HETATM    6  C18 UNL     1      15.065 -13.005  19.868  1.00  0.00     0.074 C 
HETATM    7 BR1  UNL     1      13.788 -13.925  18.786  1.00  0.00    -0.090 Br
ENDROOT
BRANCH   5   8
HETATM    8  C10 UNL     1      15.472 -11.649  17.921  1.00  0.00     0.245 C 
BRANCH   8   9
HETATM    9  N3  UNL     1      15.932 -11.641  16.589  1.00  0.00    -0.062 N 
HETATM   10  C11 UNL     1      16.099 -12.919  15.961  1.00  0.00     0.265 C 
HETATM   11  C12 UNL     1      16.829 -12.679  14.631  1.00  0.00     0.265 C 
HETATM   12  N4  UNL     1      16.432 -11.396  14.082  1.00  0.00    -0.066 N 
HETATM   13  C13 UNL     1      16.650 -11.349  12.673  1.00  0.00     0.272 C 
HETATM   14  C14 UNL     1      17.067 -10.359  14.837  1.00  0.00     0.265 C 
HETATM   15  C16 UNL     1      14.998 -11.284  14.331  1.00  0.00     0.265 C 
HETATM   16  C15 UNL     1      17.078 -10.790  16.316  1.00  0.00     0.265 C 
HETATM   17  C17 UNL     1      14.842 -10.990  15.806  1.00  0.00     0.265 C 
ENDBRANCH   8   9
ENDBRANCH   5   8
BRANCH   4  18
HETATM   18  O2  UNL     1      16.704 -10.436  20.177  1.00  0.00    -0.393 OA
ATOM     19  H2  UNL     1      15.917 -10.246  19.680  1.00  0.00     0.210 HD
ENDBRANCH   4  18
BRANCH   3  20
HETATM   20  N2  UNL     1      18.352 -11.405  21.779  1.00  0.00    -0.070 N 
ATOM     21  H23 UNL     1      19.160 -10.961  21.341  1.00  0.00     0.274 HD
ATOM     22  H22 UNL     1      17.798 -10.558  21.907  1.00  0.00     0.274 HD
ATOM     23  H21 UNL     1      18.575 -11.881  22.653  1.00  0.00     0.274 HD
ENDBRANCH   3  20
BRANCH   1  24
HETATM   24  C4  UNL     1      16.148 -15.160  20.495  1.00  0.00     0.244 C 
BRANCH  24  25
HETATM   25  N1  UNL     1      15.763 -16.383  21.066  1.00  0.00    -0.078 N 
HETATM   26  C1  UNL     1      16.683 -16.913  22.072  1.00  0.00     0.271 C 
HETATM   27  C2  UNL     1      14.454 -16.506  21.604  1.00  0.00     0.271 C 
HETATM   28  C3  UNL     1      15.850 -17.376  19.955  1.00  0.00     0.271 C 
ENDBRANCH  24  25
ENDBRANCH   1  24
BRANCH   2  29
HETATM   29  O1  UNL     1      17.023 -13.468  22.937  1.00  0.00    -0.393 OA
ATOM     30  H1  UNL     1      17.879 -13.170  23.223  1.00  0.00     0.210 HD
ENDBRANCH   2  29
TORSDOF 7
ENDMDL
MODEL 2
REMARK VINA RESULT: -5.912300415      3.013      6.663
REMARK  7 active torsions:
REMARK  status: ('A' for Active; 'I' for Inactive)
REMARK    1  A    between atoms: N1_2  and  C4_5 
REMARK    2  A    between atoms: C4_5  and  C5_6 
REMARK    3  A    between atoms: C6_7  and  O1_8 
REMARK    4  A    between atoms: C7_10  and  N2_11 
REMARK    5  A    between atoms: C8_15  and  O2_16 
REMARK    6  A    between atoms: C9_18  and  C10_19 
REMARK    7  A    between atoms: C10_19  and  N3_20 
ROOT
HETATM    1  C5  UNL     1      14.016 -11.908  19.770  1.00  0.00     0.057 C 
HETATM    2  C6  UNL     1      14.535 -11.412  18.450  1.00  0.00     0.158 C 
HETATM    3  C7  UNL     1      16.023 -11.190  18.412  1.00  0.00     0.241 C 
HETATM    4  C8  UNL     1      16.780 -12.434  18.827  1.00  0.00     0.158 C 
HETATM    5  C9  UNL     1      16.256 -13.040  20.081  1.00  0.00     0.057 C 
HETATM    6  C18 UNL     1      14.733 -13.222  20.028  1.00  0.00     0.074 C 
HETATM    7 BR1  UNL     1      14.176 -14.066  21.647  1.00  0.00    -0.090 Br
ENDROOT
BRANCH   5   8
HETATM    8  C10 UNL     1      16.822 -14.373  20.354  1.00  0.00     0.245 C 
BRANCH   8   9
HETATM    9  N3  UNL     1      17.728 -14.564  21.415  1.00  0.00    -0.062 N 
HETATM   10  C11 UNL     1      17.685 -15.837  22.074  1.00  0.00     0.265 C 
HETATM   11  C12 UNL     1      18.565 -15.730  23.328  1.00  0.00     0.265 C 
HETATM   12  N4  UNL     1      19.677 -14.834  23.067  1.00  0.00    -0.066 N 
HETATM   13  C13 UNL     1      20.763 -15.088  23.956  1.00  0.00     0.272 C 
HETATM   14  C14 UNL     1      19.188 -13.489  23.063  1.00  0.00     0.265 C 
HETATM   15  C16 UNL     1      20.115 -15.129  21.706  1.00  0.00     0.265 C 
HETATM   16  C15 UNL     1      17.801 -13.491  22.393  1.00  0.00     0.265 C 
HETATM   17  C17 UNL     1      19.079 -14.528  20.783  1.00  0.00     0.265 C 
ENDBRANCH   8   9
ENDBRANCH   5   8
BRANCH   4  18
HETATM   18  O2  UNL     1      16.751 -13.296  17.725  1.00  0.00    -0.393 OA
ATOM     19  H2  UNL     1      17.394 -13.973  17.900  1.00  0.00     0.210 HD
ENDBRANCH   4  18
BRANCH   3  20
HETATM   20  N2  UNL     1      16.361 -10.941  17.000  1.00  0.00    -0.070 N 
ATOM     21  H23 UNL     1      16.628 -11.785  16.492  1.00  0.00     0.274 HD
ATOM     22  H22 UNL     1      15.554 -10.699  16.425  1.00  0.00     0.274 HD
ATOM     23  H21 UNL     1      17.086 -10.224  17.006  1.00  0.00     0.274 HD
ENDBRANCH   3  20
BRANCH   1  24
HETATM   24  C4  UNL     1      14.052 -10.992  20.908  1.00  0.00     0.244 C 
BRANCH  24  25
HETATM   25  N1  UNL     1      12.892 -10.428  21.461  1.00  0.00    -0.078 N 
HETATM   26  C1  UNL     1      12.259  -9.391  20.647  1.00  0.00     0.271 C 
HETATM   27  C2  UNL     1      11.853 -11.292  21.902  1.00  0.00     0.271 C 
HETATM   28  C3  UNL     1      13.357  -9.688  22.671  1.00  0.00     0.271 C 
ENDBRANCH  24  25
ENDBRANCH   1  24
BRANCH   2  29
HETATM   29  O1  UNL     1      13.856 -10.379  17.879  1.00  0.00    -0.393 OA
ATOM     30  H1  UNL     1      13.261 -10.601  17.171  1.00  0.00     0.210 HD
ENDBRANCH   2  29
TORSDOF 7
ENDMDL
MODEL 3
REMARK VINA RESULT: -5.841454727      3.516      5.935
REMARK  7 active torsions:
REMARK  status: ('A' for Active; 'I' for Inactive)
REMARK    1  A    between atoms: N1_2  and  C4_5 
REMARK    2  A    between atoms: C4_5  and  C5_6 
REMARK    3  A    between atoms: C6_7  and  O1_8 
REMARK    4  A    between atoms: C7_10  and  N2_11 
REMARK    5  A    between atoms: C8_15  and  O2_16 
REMARK    6  A    between atoms: C9_18  and  C10_19 
REMARK    7  A    between atoms: C10_19  and  N3_20 
ROOT
HETATM    1  C5  UNL     1      15.906 -12.522  20.988  1.00  0.00     0.057 C 
HETATM    2  C6  UNL     1      15.002 -11.325  20.909  1.00  0.00     0.158 C 
HETATM    3  C7  UNL     1      13.966 -11.400  19.820  1.00  0.00     0.241 C 
HETATM    4  C8  UNL     1      13.139 -12.665  19.927  1.00  0.00     0.158 C 
HETATM    5  C9  UNL     1      13.969 -13.887  20.107  1.00  0.00     0.057 C 
HETATM    6  C18 UNL     1      14.996 -13.712  21.234  1.00  0.00     0.074 C 
HETATM    7 BR1  UNL     1      15.954 -15.352  21.427  1.00  0.00    -0.090 Br
ENDROOT
BRANCH   5   8
HETATM    8  C10 UNL     1      13.171 -15.075  20.456  1.00  0.00     0.245 C 
BRANCH   8   9
HETATM    9  N3  UNL     1      12.797 -16.005  19.466  1.00  0.00    -0.062 N 
HETATM   10  C11 UNL     1      13.796 -16.344  18.495  1.00  0.00     0.265 C 
HETATM   11  C12 UNL     1      13.102 -17.162  17.396  1.00  0.00     0.265 C 
HETATM   12  N4  UNL     1      12.037 -17.957  17.979  1.00  0.00    -0.066 N 
HETATM   13  C13 UNL     1      11.718 -19.076  17.153  1.00  0.00     0.272 C 
HETATM   14  C14 UNL     1      10.941 -17.092  18.293  1.00  0.00     0.265 C 
HETATM   15  C16 UNL     1      12.562 -18.454  19.248  1.00  0.00     0.265 C 
HETATM   16  C15 UNL     1      11.520 -15.763  18.814  1.00  0.00     0.265 C 
HETATM   17  C17 UNL     1      12.557 -17.280  20.201  1.00  0.00     0.265 C 
ENDBRANCH   8   9
ENDBRANCH   5   8
BRANCH   4  18
HETATM   18  O2  UNL     1      12.221 -12.444  20.961  1.00  0.00    -0.393 OA
ATOM     19  H2  UNL     1      12.363 -13.139  21.594  1.00  0.00     0.210 HD
ENDBRANCH   4  18
BRANCH   3  20
HETATM   20  N2  UNL     1      13.047 -10.274  20.052  1.00  0.00    -0.070 N 
ATOM     21  H23 UNL     1      12.764 -10.174  21.027  1.00  0.00     0.274 HD
ATOM     22  H22 UNL     1      13.492  -9.360  19.957  1.00  0.00     0.274 HD
ATOM     23  H21 UNL     1      12.263 -10.412  19.414  1.00  0.00     0.274 HD
ENDBRANCH   3  20
BRANCH   1  24
HETATM   24  C4  UNL     1      16.860 -12.732  19.901  1.00  0.00     0.244 C 
BRANCH  24  25
HETATM   25  N1  UNL     1      18.243 -12.557  20.064  1.00  0.00    -0.078 N 
HETATM   26  C1  UNL     1      18.629 -11.390  20.858  1.00  0.00     0.271 C 
HETATM   27  C2  UNL     1      19.021 -13.648  20.536  1.00  0.00     0.271 C 
HETATM   28  C3  UNL     1      18.759 -12.237  18.700  1.00  0.00     0.271 C 
ENDBRANCH  24  25
ENDBRANCH   1  24
BRANCH   2  29
HETATM   29  O1  UNL     1      15.602 -10.104  20.950  1.00  0.00    -0.393 OA
ATOM     30  H1  UNL     1      15.667  -9.634  20.127  1.00  0.00     0.210 HD
ENDBRANCH   2  29
TORSDOF 7
ENDMDL
MODEL 4
REMARK VINA RESULT: -5.812803606      3.503      5.787
REMARK  7 active torsions:
REMARK  status: ('A' for Active; 'I' for Inactive)
REMARK    1  A    between atoms: N1_2  and  C4_5 
REMARK    2  A    between atoms: C4_5  and  C5_6 
REMARK    3  A    between atoms: C6_7  and  O1_8 
REMARK    4  A    between atoms: C7_10  and  N2_11 
REMARK    5  A    between atoms: C8_15  and  O2_16 
REMARK    6  A    between atoms: C9_18  and  C10_19 
REMARK    7  A    between atoms: C10_19  and  N3_20 
ROOT
HETATM    1  C5  UNL     1      15.922 -12.492  20.984  1.00  0.00     0.057 C 
HETATM    2  C6  UNL     1      15.024 -11.293  20.865  1.00  0.00     0.158 C 
HETATM    3  C7  UNL     1      13.984 -11.403  19.783  1.00  0.00     0.241 C 
HETATM    4  C8  UNL     1      13.149 -12.657  19.941  1.00  0.00     0.158 C 
HETATM    5  C9  UNL     1      13.972 -13.877  20.162  1.00  0.00     0.057 C 
HETATM    6  C18 UNL     1      15.006 -13.667  21.278  1.00  0.00     0.074 C 
HETATM    7 BR1  UNL     1      15.955 -15.305  21.526  1.00  0.00    -0.090 Br
ENDROOT
BRANCH   5   8
HETATM    8  C10 UNL     1      13.169 -15.046  20.559  1.00  0.00     0.245 C 
BRANCH   8   9
HETATM    9  N3  UNL     1      12.947 -16.104  19.655  1.00  0.00    -0.062 N 
HETATM   10  C11 UNL     1      12.667 -17.389  20.228  1.00  0.00     0.265 C 
HETATM   11  C12 UNL     1      12.708 -18.414  19.085  1.00  0.00     0.265 C 
HETATM   12  N4  UNL     1      12.232 -17.797  17.861  1.00  0.00    -0.066 N 
HETATM   13  C13 UNL     1      11.766 -18.779  16.937  1.00  0.00     0.272 C 
HETATM   14  C14 UNL     1      13.249 -16.921  17.365  1.00  0.00     0.265 C 
HETATM   15  C16 UNL     1      11.103 -16.958  18.251  1.00  0.00     0.265 C 
HETATM   16  C15 UNL     1      13.910 -16.232  18.574  1.00  0.00     0.265 C 
HETATM   17  C17 UNL     1      11.689 -15.745  18.938  1.00  0.00     0.265 C 
ENDBRANCH   8   9
ENDBRANCH   5   8
BRANCH   4  18
HETATM   18  O2  UNL     1      12.238 -12.393  20.970  1.00  0.00    -0.393 OA
ATOM     19  H2  UNL     1      12.660 -11.765  21.544  1.00  0.00     0.210 HD
ENDBRANCH   4  18
BRANCH   3  20
HETATM   20  N2  UNL     1      13.072 -10.262  19.978  1.00  0.00    -0.070 N 
ATOM     21  H23 UNL     1      12.745  -9.849  19.104  1.00  0.00     0.274 HD
ATOM     22  H22 UNL     1      12.156 -10.531  20.339  1.00  0.00     0.274 HD
ATOM     23  H21 UNL     1      13.569  -9.604  20.578  1.00  0.00     0.274 HD
ENDBRANCH   3  20
BRANCH   1  24
HETATM   24  C4  UNL     1      16.869 -12.748  19.901  1.00  0.00     0.244 C 
BRANCH  24  25
HETATM   25  N1  UNL     1      18.255 -12.578  20.052  1.00  0.00    -0.078 N 
HETATM   26  C1  UNL     1      18.651 -11.427  20.864  1.00  0.00     0.271 C 
HETATM   27  C2  UNL     1      19.036 -13.679  20.495  1.00  0.00     0.271 C 
HETATM   28  C3  UNL     1      18.756 -12.233  18.689  1.00  0.00     0.271 C 
ENDBRANCH  24  25
ENDBRANCH   1  24
BRANCH   2  29
HETATM   29  O1  UNL     1      15.633 -10.075  20.858  1.00  0.00    -0.393 OA
ATOM     30  H1  UNL     1      15.073  -9.321  20.711  1.00  0.00     0.210 HD
ENDBRANCH   2  29
TORSDOF 7
ENDMDL
MODEL 5
REMARK VINA RESULT: -5.771705041      3.912      5.765
REMARK  7 active torsions:
REMARK  status: ('A' for Active; 'I' for Inactive)
REMARK    1  A    between atoms: N1_2  and  C4_5 
REMARK    2  A    between atoms: C4_5  and  C5_6 
REMARK    3  A    between atoms: C6_7  and  O1_8 
REMARK    4  A    between atoms: C7_10  and  N2_11 
REMARK    5  A    between atoms: C8_15  and  O2_16 
REMARK    6  A    between atoms: C9_18  and  C10_19 
REMARK    7  A    between atoms: C10_19  and  N3_20 
ROOT
HETATM    1  C5  UNL     1      19.255 -14.927  21.851  1.00  0.00     0.057 C 
HETATM    2  C6  UNL     1      18.698 -16.307  21.646  1.00  0.00     0.158 C 
HETATM    3  C7  UNL     1      17.219 -16.423  21.899  1.00  0.00     0.241 C 
HETATM    4  C8  UNL     1      16.435 -15.423  21.075  1.00  0.00     0.158 C 
HETATM    5  C9  UNL     1      16.991 -14.045  21.154  1.00  0.00     0.057 C 
HETATM    6  C18 UNL     1      18.502 -14.028  20.886  1.00  0.00     0.074 C 
HETATM    7 BR1  UNL     1      19.097 -12.215  20.940  1.00  0.00    -0.090 Br
ENDROOT
BRANCH   5   8
HETATM    8  C10 UNL     1      16.388 -13.127  20.171  1.00  0.00     0.245 C 
BRANCH   8   9
HETATM    9  N3  UNL     1      15.209 -12.418  20.480  1.00  0.00    -0.062 N 
HETATM   10  C11 UNL     1      14.596 -12.714  21.741  1.00  0.00     0.265 C 
HETATM   11  C12 UNL     1      13.223 -12.024  21.752  1.00  0.00     0.265 C 
HETATM   12  N4  UNL     1      13.296 -10.786  20.999  1.00  0.00    -0.066 N 
HETATM   13  C13 UNL     1      12.263  -9.883  21.391  1.00  0.00     0.272 C 
HETATM   14  C14 UNL     1      13.340 -11.100  19.604  1.00  0.00     0.265 C 
HETATM   15  C16 UNL     1      14.585 -10.189  21.339  1.00  0.00     0.265 C 
HETATM   16  C15 UNL     1      14.206 -12.362  19.430  1.00  0.00     0.265 C 
HETATM   17  C17 UNL     1      15.635 -10.994  20.608  1.00  0.00     0.265 C 
ENDBRANCH   8   9
ENDBRANCH   5   8
BRANCH   4  18
HETATM   18  O2  UNL     1      16.383 -15.941  19.776  1.00  0.00    -0.393 OA
ATOM     19  H2  UNL     1      15.465 -16.103  19.592  1.00  0.00     0.210 HD
ENDBRANCH   4  18
BRANCH   3  20
HETATM   20  N2  UNL     1      16.828 -17.761  21.423  1.00  0.00    -0.070 N 
ATOM     21  H23 UNL     1      17.239 -18.008  20.523  1.00  0.00     0.274 HD
ATOM     22  H22 UNL     1      17.243 -18.521  21.962  1.00  0.00     0.274 HD
ATOM     23  H21 UNL     1      15.808 -17.773  21.421  1.00  0.00     0.274 HD
ENDBRANCH   3  20
BRANCH   1  24
HETATM   24  C4  UNL     1      19.304 -14.405  23.216  1.00  0.00     0.244 C 
BRANCH  24  25
HETATM   25  N1  UNL     1      20.503 -14.285  23.937  1.00  0.00    -0.078 N 
HETATM   26  C1  UNL     1      20.908 -15.487  24.666  1.00  0.00     0.271 C 
HETATM   27  C2  UNL     1      21.660 -13.804  23.268  1.00  0.00     0.271 C 
HETATM   28  C3  UNL     1      20.209 -13.301  25.020  1.00  0.00     0.271 C 
ENDBRANCH  24  25
ENDBRANCH   1  24
BRANCH   2  29
HETATM   29  O1  UNL     1      19.390 -17.333  22.212  1.00  0.00    -0.393 OA
ATOM     30  H1  UNL     1      18.876 -18.063  22.540  1.00  0.00     0.210 HD
ENDBRANCH   2  29
TORSDOF 7
ENDMDL
