MODEL 1
REMARK VINA RESULT: -6.436937797      0.000      0.000
REMARK  10 active torsions:
REMARK  status: ('A' for Active; 'I' for Inactive)
REMARK    1  A    between atoms: C2_2  and  N1_3 
REMARK    2  A    between atoms: C3_4  and  C4_5 
REMARK       I    between atoms: C4_5  and  N2_7 
REMARK    3  A    between atoms: N2_7  and  N3_9 
REMARK    4  A    between atoms: C5_13  and  C6_14 
REMARK    5  A    between atoms: C5_13  and  O3_16 
REMARK    6  A    between atoms: O3_16  and  C8_17 
REMARK       I    between atoms: C8_17  and  N4_19 
REMARK    7  A    between atoms: N4_19  and  N5_20 
REMARK    8  A    between atoms: C9_24  and  O6_25 
REMARK    9  A    between atoms: C9_24  and  C10_27 
REMARK   10  A    between atoms: C10_27  and  O8_29 
ROOT
HETATM    1  N1  UNL     1      67.471  38.178  27.900  1.00  0.00    -0.296 N 
HETATM    2  C3  UNL     1      68.116  37.245  27.109  1.00  0.00     0.328 C 
HETATM    3  O2  UNL     1      68.464  37.968  25.908  1.00  0.00    -0.297 OA
HETATM    4  C5  UNL     1      67.376  38.374  25.213  1.00  0.00     0.297 C 
HETATM    5  O5  UNL     1      66.561  39.237  25.972  1.00  0.00    -0.267 OA
HETATM    6  C9  UNL     1      66.396  38.847  27.294  1.00  0.00     0.348 C 
ENDROOT
BRANCH   4   7
HETATM    7  C6  UNL     1      66.476  37.277  24.696  1.00  0.00     0.098 C 
HETATM    8  C7  UNL     1      65.537  37.853  23.639  1.00  0.00     0.013 C 
ENDBRANCH   4   7
BRANCH   4   9
HETATM    9  O3  UNL     1      67.762  39.158  24.120  1.00  0.00    -0.227 OA
BRANCH   9  10
HETATM   10  C8  UNL     1      68.414  40.424  24.239  1.00  0.00     0.462 C 
HETATM   11  O4  UNL     1      68.363  41.024  23.105  1.00  0.00    -0.219 OA
HETATM   12  N4  UNL     1      68.961  40.835  25.404  1.00  0.00    -0.266 NA
BRANCH  12  13
HETATM   13  N5  UNL     1      69.492  41.236  26.525  1.00  0.00    -0.275 N 
ATOM     14  H52 UNL     1      69.244  41.013  25.561  1.00  0.00     0.191 HD
ATOM     15  H51 UNL     1      69.903  41.548  27.405  1.00  0.00     0.191 HD
ENDBRANCH  12  13
ENDBRANCH   9  10
ENDBRANCH   4   9
BRANCH   2  16
HETATM   16  C4  UNL     1      69.337  36.585  27.560  1.00  0.00     0.285 C 
HETATM   17  O1  UNL     1      70.496  37.131  27.382  1.00  0.00    -0.267 OA
HETATM   18  N2  UNL     1      69.360  35.329  28.199  1.00  0.00    -0.273 N 
ATOM     19  H2  UNL     1      68.468  34.861  28.357  1.00  0.00     0.189 HD
BRANCH  18  20
HETATM   20  N3  UNL     1      70.497  34.691  28.624  1.00  0.00    -0.342 N 
ATOM     21  H32 UNL     1      71.280  34.670  27.971  1.00  0.00     0.176 HD
ATOM     22  H31 UNL     1      70.606  34.245  29.535  1.00  0.00     0.176 HD
ENDBRANCH  18  20
ENDBRANCH   2  16
BRANCH   6  23
HETATM   23  O6  UNL     1      65.180  38.145  27.368  1.00  0.00    -0.340 OA
ATOM     24  H6  UNL     1      64.450  38.677  27.661  1.00  0.00     0.215 HD
ENDBRANCH   6  23
BRANCH   6  25
HETATM   25  C10 UNL     1      66.173  40.148  28.028  1.00  0.00     0.345 C 
HETATM   26  O7  UNL     1      67.018  41.062  28.038  1.00  0.00    -0.257 OA
BRANCH  25  27
HETATM   27  O8  UNL     1      65.004  40.362  28.723  1.00  0.00    -0.321 OA
HETATM   28  C11 UNL     1      64.966  40.763  30.061  1.00  0.00     0.213 C 
ENDBRANCH  25  27
ENDBRANCH   6  25
BRANCH   1  29
HETATM   29  C2  UNL     1      67.358  38.038  29.278  1.00  0.00     0.063 C 
HETATM   30  C1  UNL     1      66.574  36.872  29.814  1.00  0.00     0.055 C 
ENDBRANCH   1  29
TORSDOF 10
ENDMDL
MODEL 2
REMARK VINA RESULT: -6.237573473      3.784      5.489
REMARK  10 active torsions:
REMARK  status: ('A' for Active; 'I' for Inactive)
REMARK    1  A    between atoms: C2_2  and  N1_3 
REMARK    2  A    between atoms: C3_4  and  C4_5 
REMARK       I    between atoms: C4_5  and  N2_7 
REMARK    3  A    between atoms: N2_7  and  N3_9 
REMARK    4  A    between atoms: C5_13  and  C6_14 
REMARK    5  A    between atoms: C5_13  and  O3_16 
REMARK    6  A    between atoms: O3_16  and  C8_17 
REMARK       I    between atoms: C8_17  and  N4_19 
REMARK    7  A    between atoms: N4_19  and  N5_20 
REMARK    8  A    between atoms: C9_24  and  O6_25 
REMARK    9  A    between atoms: C9_24  and  C10_27 
REMARK   10  A    between atoms: C10_27  and  O8_29 
ROOT
HETATM    1  N1  UNL     1      70.714  38.145  28.930  1.00  0.00    -0.296 N 
HETATM    2  C3  UNL     1      71.374  38.687  30.018  1.00  0.00     0.328 C 
HETATM    3  O2  UNL     1      71.317  40.114  29.801  1.00  0.00    -0.297 OA
HETATM    4  C5  UNL     1      72.008  40.500  28.703  1.00  0.00     0.297 C 
HETATM    5  O5  UNL     1      71.505  39.902  27.531  1.00  0.00    -0.267 OA
HETATM    6  C9  UNL     1      71.179  38.559  27.672  1.00  0.00     0.348 C 
ENDROOT
BRANCH   4   7
HETATM    7  C6  UNL     1      73.492  40.221  28.726  1.00  0.00     0.098 C 
HETATM    8  C7  UNL     1      74.179  41.229  29.644  1.00  0.00     0.013 C 
ENDBRANCH   4   7
BRANCH   4   9
HETATM    9  O3  UNL     1      71.835  41.869  28.476  1.00  0.00    -0.227 OA
BRANCH   9  10
HETATM   10  C8  UNL     1      70.582  42.471  28.147  1.00  0.00     0.462 C 
HETATM   11  O4  UNL     1      70.268  43.306  29.070  1.00  0.00    -0.219 OA
HETATM   12  N4  UNL     1      69.914  42.149  27.017  1.00  0.00    -0.266 NA
BRANCH  12  13
HETATM   13  N5  UNL     1      69.265  41.841  25.929  1.00  0.00    -0.275 N 
ATOM     14  H52 UNL     1      69.582  42.100  26.863  1.00  0.00     0.191 HD
ATOM     15  H51 UNL     1      68.762  41.599  25.075  1.00  0.00     0.191 HD
ENDBRANCH  12  13
ENDBRANCH   9  10
ENDBRANCH   4   9
BRANCH   2  16
HETATM   16  C4  UNL     1      70.900  38.459  31.380  1.00  0.00     0.285 C 
HETATM   17  O1  UNL     1      69.966  39.192  31.894  1.00  0.00    -0.267 OA
HETATM   18  N2  UNL     1      71.412  37.459  32.232  1.00  0.00    -0.273 N 
ATOM     19  H2  UNL     1      72.153  36.860  31.867  1.00  0.00     0.189 HD
BRANCH  18  20
HETATM   20  N3  UNL     1      70.985  37.234  33.515  1.00  0.00    -0.342 N 
ATOM     21  H32 UNL     1      71.703  36.996  34.200  1.00  0.00     0.176 HD
ATOM     22  H31 UNL     1      70.014  37.290  33.821  1.00  0.00     0.176 HD
ENDBRANCH  18  20
ENDBRANCH   2  16
BRANCH   6  23
HETATM   23  O6  UNL     1      72.277  37.817  27.203  1.00  0.00    -0.340 OA
ATOM     24  H6  UNL     1      72.074  37.264  26.459  1.00  0.00     0.215 HD
ENDBRANCH   6  23
BRANCH   6  25
HETATM   25  C10 UNL     1      70.073  38.350  26.666  1.00  0.00     0.345 C 
HETATM   26  O7  UNL     1      70.166  37.534  25.730  1.00  0.00    -0.257 OA
BRANCH  25  27
HETATM   27  O8  UNL     1      68.904  39.072  26.758  1.00  0.00    -0.321 OA
HETATM   28  C11 UNL     1      67.656  38.567  26.386  1.00  0.00     0.213 C 
ENDBRANCH  25  27
ENDBRANCH   6  25
BRANCH   1  29
HETATM   29  C2  UNL     1      70.166  36.868  28.949  1.00  0.00     0.063 C 
HETATM   30  C1  UNL     1      68.773  36.700  29.489  1.00  0.00     0.055 C 
ENDBRANCH   1  29
TORSDOF 10
ENDMDL
MODEL 3
REMARK VINA RESULT: -6.019078246      2.467      5.012
REMARK  10 active torsions:
REMARK  status: ('A' for Active; 'I' for Inactive)
REMARK    1  A    between atoms: C2_2  and  N1_3 
REMARK    2  A    between atoms: C3_4  and  C4_5 
REMARK       I    between atoms: C4_5  and  N2_7 
REMARK    3  A    between atoms: N2_7  and  N3_9 
REMARK    4  A    between atoms: C5_13  and  C6_14 
REMARK    5  A    between atoms: C5_13  and  O3_16 
REMARK    6  A    between atoms: O3_16  and  C8_17 
REMARK       I    between atoms: C8_17  and  N4_19 
REMARK    7  A    between atoms: N4_19  and  N5_20 
REMARK    8  A    between atoms: C9_24  and  O6_25 
REMARK    9  A    between atoms: C9_24  and  C10_27 
REMARK   10  A    between atoms: C10_27  and  O8_29 
ROOT
HETATM    1  N1  UNL     1      68.591  39.884  26.502  1.00  0.00    -0.296 N 
HETATM    2  C3  UNL     1      68.124  40.970  25.785  1.00  0.00     0.328 C 
HETATM    3  O2  UNL     1      66.689  40.918  25.943  1.00  0.00    -0.297 OA
HETATM    4  C5  UNL     1      66.145  39.819  25.371  1.00  0.00     0.297 C 
HETATM    5  O5  UNL     1      66.648  38.631  25.936  1.00  0.00    -0.267 OA
HETATM    6  C9  UNL     1      68.016  38.647  26.170  1.00  0.00     0.348 C 
ENDROOT
BRANCH   4   7
HETATM    7  C6  UNL     1      66.324  39.695  23.877  1.00  0.00     0.098 C 
HETATM    8  C7  UNL     1      65.503  38.512  23.369  1.00  0.00     0.013 C 
ENDBRANCH   4   7
BRANCH   4   9
HETATM    9  O3  UNL     1      64.773  39.760  25.642  1.00  0.00    -0.227 OA
BRANCH   9  10
HETATM   10  C8  UNL     1      64.222  39.698  26.959  1.00  0.00     0.462 C 
HETATM   11  O4  UNL     1      63.465  40.719  27.139  1.00  0.00    -0.219 OA
HETATM   12  N4  UNL     1      64.510  38.683  27.803  1.00  0.00    -0.266 NA
BRANCH  12  13
HETATM   13  N5  UNL     1      64.786  37.706  28.621  1.00  0.00    -0.275 N 
ATOM     14  H52 UNL     1      64.701  38.371  27.853  1.00  0.00     0.191 HD
ATOM     15  H51 UNL     1      64.998  36.944  29.264  1.00  0.00     0.191 HD
ENDBRANCH  12  13
ENDBRANCH   9  10
ENDBRANCH   4   9
BRANCH   2  16
HETATM   16  C4  UNL     1      68.526  42.332  26.127  1.00  0.00     0.285 C 
HETATM   17  O1  UNL     1      68.038  42.931  27.164  1.00  0.00    -0.267 OA
HETATM   18  N2  UNL     1      69.444  43.092  25.374  1.00  0.00    -0.273 N 
ATOM     19  H2  UNL     1      69.851  42.658  24.545  1.00  0.00     0.189 HD
BRANCH  18  20
HETATM   20  N3  UNL     1      69.828  44.373  25.676  1.00  0.00    -0.342 N 
ATOM     21  H32 UNL     1      69.085  45.025  25.928  1.00  0.00     0.176 HD
ATOM     22  H31 UNL     1      70.792  44.707  25.663  1.00  0.00     0.176 HD
ENDBRANCH  18  20
ENDBRANCH   2  16
BRANCH   6  23
HETATM   23  O6  UNL     1      68.630  38.015  25.075  1.00  0.00    -0.340 OA
ATOM     24  H6  UNL     1      69.244  38.569  24.609  1.00  0.00     0.215 HD
ENDBRANCH   6  23
BRANCH   6  25
HETATM   25  C10 UNL     1      68.192  37.713  27.344  1.00  0.00     0.345 C 
HETATM   26  O7  UNL     1      67.586  37.871  28.420  1.00  0.00    -0.257 OA
BRANCH  25  27
HETATM   27  O8  UNL     1      69.046  36.637  27.254  1.00  0.00    -0.321 OA
HETATM   28  C11 UNL     1      69.983  36.314  28.239  1.00  0.00     0.213 C 
ENDBRANCH  25  27
ENDBRANCH   6  25
BRANCH   1  29
HETATM   29  C2  UNL     1      69.897  39.804  26.972  1.00  0.00     0.063 C 
HETATM   30  C1  UNL     1      70.190  40.326  28.351  1.00  0.00     0.055 C 
ENDBRANCH   1  29
TORSDOF 10
ENDMDL
MODEL 4
REMARK VINA RESULT: -6.012563701      4.139      5.793
REMARK  10 active torsions:
REMARK  status: ('A' for Active; 'I' for Inactive)
REMARK    1  A    between atoms: C2_2  and  N1_3 
REMARK    2  A    between atoms: C3_4  and  C4_5 
REMARK       I    between atoms: C4_5  and  N2_7 
REMARK    3  A    between atoms: N2_7  and  N3_9 
REMARK    4  A    between atoms: C5_13  and  C6_14 
REMARK    5  A    between atoms: C5_13  and  O3_16 
REMARK    6  A    between atoms: O3_16  and  C8_17 
REMARK       I    between atoms: C8_17  and  N4_19 
REMARK    7  A    between atoms: N4_19  and  N5_20 
REMARK    8  A    between atoms: C9_24  and  O6_25 
REMARK    9  A    between atoms: C9_24  and  C10_27 
REMARK   10  A    between atoms: C10_27  and  O8_29 
ROOT
HETATM    1  N1  UNL     1      70.591  38.697  29.029  1.00  0.00    -0.296 N 
HETATM    2  C3  UNL     1      71.472  38.876  30.080  1.00  0.00     0.328 C 
HETATM    3  O2  UNL     1      71.857  40.265  29.995  1.00  0.00    -0.297 OA
HETATM    4  C5  UNL     1      72.546  40.545  28.865  1.00  0.00     0.297 C 
HETATM    5  O5  UNL     1      71.788  40.274  27.708  1.00  0.00    -0.267 OA
HETATM    6  C9  UNL     1      71.063  39.091  27.768  1.00  0.00     0.348 C 
ENDROOT
BRANCH   4   7
HETATM    7  C6  UNL     1      73.860  39.820  28.697  1.00  0.00     0.098 C 
HETATM    8  C7  UNL     1      74.962  40.605  29.405  1.00  0.00     0.013 C 
ENDBRANCH   4   7
BRANCH   4   9
HETATM    9  O3  UNL     1      72.803  41.917  28.778  1.00  0.00    -0.227 OA
BRANCH   9  10
HETATM   10  C8  UNL     1      71.785  42.912  28.648  1.00  0.00     0.462 C 
HETATM   11  O4  UNL     1      71.833  43.689  29.669  1.00  0.00    -0.219 OA
HETATM   12  N4  UNL     1      70.959  42.948  27.580  1.00  0.00    -0.266 NA
BRANCH  12  13
HETATM   13  N5  UNL     1      70.158  42.986  26.552  1.00  0.00    -0.275 N 
ATOM     14  H52 UNL     1      70.868  43.127  27.270  1.00  0.00     0.191 HD
ATOM     15  H51 UNL     1      69.530  43.013  25.749  1.00  0.00     0.191 HD
ENDBRANCH  12  13
ENDBRANCH   9  10
ENDBRANCH   4   9
BRANCH   2  16
HETATM   16  C4  UNL     1      71.059  38.647  31.461  1.00  0.00     0.285 C 
HETATM   17  O1  UNL     1      70.370  39.530  32.108  1.00  0.00    -0.267 OA
HETATM   18  N2  UNL     1      71.376  37.484  32.193  1.00  0.00    -0.273 N 
ATOM     19  H2  UNL     1      71.922  36.763  31.722  1.00  0.00     0.189 HD
BRANCH  18  20
HETATM   20  N3  UNL     1      71.003  37.255  33.491  1.00  0.00    -0.342 N 
ATOM     21  H32 UNL     1      71.019  36.284  33.807  1.00  0.00     0.176 HD
ATOM     22  H31 UNL     1      70.716  37.979  34.150  1.00  0.00     0.176 HD
ENDBRANCH  18  20
ENDBRANCH   2  16
BRANCH   6  23
HETATM   23  O6  UNL     1      71.826  38.106  27.117  1.00  0.00    -0.340 OA
ATOM     24  H6  UNL     1      72.704  38.390  26.893  1.00  0.00     0.215 HD
ENDBRANCH   6  23
BRANCH   6  25
HETATM   25  C10 UNL     1      69.872  39.355  26.877  1.00  0.00     0.345 C 
HETATM   26  O7  UNL     1      69.143  40.355  27.014  1.00  0.00    -0.257 OA
BRANCH  25  27
HETATM   27  O8  UNL     1      69.552  38.475  25.867  1.00  0.00    -0.321 OA
HETATM   28  C11 UNL     1      68.250  38.280  25.400  1.00  0.00     0.213 C 
ENDBRANCH  25  27
ENDBRANCH   6  25
BRANCH   1  29
HETATM   29  C2  UNL     1      69.666  37.659  28.999  1.00  0.00     0.063 C 
HETATM   30  C1  UNL     1      70.182  36.247  28.973  1.00  0.00     0.055 C 
ENDBRANCH   1  29
TORSDOF 10
ENDMDL
MODEL 5
REMARK VINA RESULT: -5.999300510      2.135      4.230
REMARK  10 active torsions:
REMARK  status: ('A' for Active; 'I' for Inactive)
REMARK    1  A    between atoms: C2_2  and  N1_3 
REMARK    2  A    between atoms: C3_4  and  C4_5 
REMARK       I    between atoms: C4_5  and  N2_7 
REMARK    3  A    between atoms: N2_7  and  N3_9 
REMARK    4  A    between atoms: C5_13  and  C6_14 
REMARK    5  A    between atoms: C5_13  and  O3_16 
REMARK    6  A    between atoms: O3_16  and  C8_17 
REMARK       I    between atoms: C8_17  and  N4_19 
REMARK    7  A    between atoms: N4_19  and  N5_20 
REMARK    8  A    between atoms: C9_24  and  O6_25 
REMARK    9  A    between atoms: C9_24  and  C10_27 
REMARK   10  A    between atoms: C10_27  and  O8_29 
ROOT
HETATM    1  N1  UNL     1      66.680  38.465  28.032  1.00  0.00    -0.296 N 
HETATM    2  C3  UNL     1      67.368  38.219  29.206  1.00  0.00     0.328 C 
HETATM    3  O2  UNL     1      68.760  38.250  28.822  1.00  0.00    -0.297 OA
HETATM    4  C5  UNL     1      69.086  37.251  27.971  1.00  0.00     0.297 C 
HETATM    5  O5  UNL     1      68.345  37.319  26.774  1.00  0.00    -0.267 OA
HETATM    6  C9  UNL     1      67.003  37.626  26.954  1.00  0.00     0.348 C 
ENDROOT
BRANCH   4   7
HETATM    7  C6  UNL     1      68.915  35.848  28.503  1.00  0.00     0.098 C 
HETATM    8  C7  UNL     1      70.270  35.144  28.510  1.00  0.00     0.013 C 
ENDBRANCH   4   7
BRANCH   4   9
HETATM    9  O3  UNL     1      70.412  37.387  27.546  1.00  0.00    -0.227 OA
BRANCH   9  10
HETATM   10  C8  UNL     1      70.930  38.557  26.910  1.00  0.00     0.462 C 
HETATM   11  O4  UNL     1      72.166  38.359  26.623  1.00  0.00    -0.219 OA
HETATM   12  N4  UNL     1      70.160  39.644  26.688  1.00  0.00    -0.266 NA
BRANCH  12  13
HETATM   13  N5  UNL     1      69.421  40.696  26.471  1.00  0.00    -0.275 N 
ATOM     14  H52 UNL     1      70.094  39.995  26.780  1.00  0.00     0.191 HD
ATOM     15  H51 UNL     1      68.840  41.517  26.299  1.00  0.00     0.191 HD
ENDBRANCH  12  13
ENDBRANCH   9  10
ENDBRANCH   4   9
BRANCH   2  16
HETATM   16  C4  UNL     1      67.239  39.106  30.359  1.00  0.00     0.285 C 
HETATM   17  O1  UNL     1      67.635  40.336  30.302  1.00  0.00    -0.267 OA
HETATM   18  N2  UNL     1      66.699  38.708  31.598  1.00  0.00    -0.273 N 
ATOM     19  H2  UNL     1      66.377  37.745  31.688  1.00  0.00     0.189 HD
BRANCH  18  20
HETATM   20  N3  UNL     1      66.576  39.524  32.693  1.00  0.00    -0.342 N 
ATOM     21  H32 UNL     1      66.886  39.141  33.586  1.00  0.00     0.176 HD
ATOM     22  H31 UNL     1      66.201  40.473  32.670  1.00  0.00     0.176 HD
ENDBRANCH  18  20
ENDBRANCH   2  16
BRANCH   6  23
HETATM   23  O6  UNL     1      66.297  36.411  26.953  1.00  0.00    -0.340 OA
ATOM     24  H6  UNL     1      66.850  35.649  26.830  1.00  0.00     0.215 HD
ENDBRANCH   6  23
BRANCH   6  25
HETATM   25  C10 UNL     1      66.621  38.332  25.674  1.00  0.00     0.345 C 
HETATM   26  O7  UNL     1      67.199  39.363  25.282  1.00  0.00    -0.257 OA
BRANCH  25  27
HETATM   27  O8  UNL     1      65.601  37.845  24.890  1.00  0.00    -0.321 OA
HETATM   28  C11 UNL     1      65.411  38.214  23.555  1.00  0.00     0.213 C 
ENDBRANCH  25  27
ENDBRANCH   6  25
BRANCH   1  29
HETATM   29  C2  UNL     1      65.375  38.944  28.017  1.00  0.00     0.063 C 
HETATM   30  C1  UNL     1      64.350  38.245  28.867  1.00  0.00     0.055 C 
ENDBRANCH   1  29
TORSDOF 10
ENDMDL
