MODEL 1
REMARK VINA RESULT: -7.193779999      0.000      0.000
REMARK  9 active torsions:
REMARK  status: ('A' for Active; 'I' for Inactive)
REMARK    1  A    between atoms: O1_2  and  C2_3 
REMARK    2  A    between atoms: C2_3  and  C3_5 
REMARK    3  A    between atoms: C3_5  and  O3_6 
REMARK    4  A    between atoms: N1_8  and  N2_10 
REMARK    5  A    between atoms: N2_10  and  C4_12 
REMARK    6  A    between atoms: C6_14  and  S1_15 
REMARK    7  A    between atoms: S1_15  and  N3_16 
REMARK    8  A    between atoms: C7_21  and  S2_22 
REMARK    9  A    between atoms: S2_22  and  N4_23 
ROOT
HETATM    1  C4  UNL     1      70.807  38.460  32.309  1.00  0.00     0.093 A 
HETATM    2  C5  UNL     1      71.452  39.605  32.716  1.00  0.00     0.063 A 
HETATM    3  C6  UNL     1      72.351  40.313  31.903  1.00  0.00     0.121 A 
HETATM    4  C7  UNL     1      72.560  39.790  30.645  1.00  0.00     0.174 A 
HETATM    5  N5  UNL     1      71.906  38.656  30.276  1.00  0.00    -0.329 N 
ATOM      6  H5  UNL     1      72.083  38.295  29.338  1.00  0.00     0.168 HD
HETATM    7  C8  UNL     1      71.049  37.979  31.046  1.00  0.00     0.128 A 
HETATM    8  N6  UNL     1      70.499  36.913  30.561  1.00  0.00    -0.384 N 
ATOM      9  H61 UNL     1      70.679  36.556  29.623  1.00  0.00     0.157 HD
ATOM     10  H62 UNL     1      69.845  36.396  31.149  1.00  0.00     0.157 HD
ENDROOT
BRANCH   1  11
HETATM   11  N2  UNL     1      69.901  37.760  33.148  1.00  0.00    -0.295 N 
ATOM     12  H2  UNL     1      68.892  37.882  33.063  1.00  0.00     0.187 HD
BRANCH  11  13
HETATM   13  N1  UNL     1      70.463  36.883  34.108  1.00  0.00    -0.275 N 
HETATM   14  C3  UNL     1      70.237  37.017  35.366  1.00  0.00     0.232 C 
ATOM     15  H1  UNL     1      71.066  36.123  33.791  1.00  0.00     0.189 HD
BRANCH  14  16
HETATM   16  C2  UNL     1      69.391  38.072  35.911  1.00  0.00     0.335 C 
HETATM   17  O2  UNL     1      69.904  38.933  36.696  1.00  0.00    -0.255 OA
BRANCH  16  18
HETATM   18  O1  UNL     1      68.048  38.170  35.603  1.00  0.00    -0.320 OA
HETATM   19  C1  UNL     1      67.322  39.379  35.736  1.00  0.00     0.213 C 
ENDBRANCH  16  18
ENDBRANCH  14  16
BRANCH  14  20
HETATM   20  O3  UNL     1      70.832  36.109  36.225  1.00  0.00    -0.341 OA
ATOM     21  H3  UNL     1      71.725  36.255  36.515  1.00  0.00     0.219 HD
ENDBRANCH  14  20
ENDBRANCH  11  13
ENDBRANCH   1  11
BRANCH   3  22
HETATM   22  S1  UNL     1      73.131  41.734  32.475  1.00  0.00     0.259 S 
HETATM   23  O4  UNL     1      74.628  41.550  32.709  1.00  0.00    -0.201 OA
HETATM   24  O5  UNL     1      72.619  41.984  33.905  1.00  0.00    -0.201 OA
BRANCH  22  25
HETATM   25  N3  UNL     1      72.773  43.169  31.639  1.00  0.00    -0.324 N 
ATOM     26  H32 UNL     1      71.839  43.343  31.269  1.00  0.00     0.169 HD
ATOM     27  H31 UNL     1      73.542  43.831  31.534  1.00  0.00     0.169 HD
ENDBRANCH  22  25
ENDBRANCH   3  22
BRANCH   4  28
HETATM   28  S2  UNL     1      73.633  40.556  29.530  1.00  0.00     0.274 S 
HETATM   29  O6  UNL     1      73.182  41.952  29.125  1.00  0.00    -0.199 OA
HETATM   30  O7  UNL     1      73.544  39.706  28.042  1.00  0.00    -0.199 OA
BRANCH  28  31
HETATM   31  N4  UNL     1      75.118  40.509  29.897  1.00  0.00    -0.323 N 
ATOM     32  H42 UNL     1      75.489  39.781  30.508  1.00  0.00     0.169 HD
ATOM     33  H41 UNL     1      75.697  41.246  29.495  1.00  0.00     0.169 HD
ENDBRANCH  28  31
ENDBRANCH   4  28
TORSDOF 9
ENDMDL
MODEL 2
REMARK VINA RESULT: -7.078784156      0.895      1.674
REMARK  9 active torsions:
REMARK  status: ('A' for Active; 'I' for Inactive)
REMARK    1  A    between atoms: O1_2  and  C2_3 
REMARK    2  A    between atoms: C2_3  and  C3_5 
REMARK    3  A    between atoms: C3_5  and  O3_6 
REMARK    4  A    between atoms: N1_8  and  N2_10 
REMARK    5  A    between atoms: N2_10  and  C4_12 
REMARK    6  A    between atoms: C6_14  and  S1_15 
REMARK    7  A    between atoms: S1_15  and  N3_16 
REMARK    8  A    between atoms: C7_21  and  S2_22 
REMARK    9  A    between atoms: S2_22  and  N4_23 
ROOT
HETATM    1  C4  UNL     1      71.241  38.401  32.102  1.00  0.00     0.093 A 
HETATM    2  C5  UNL     1      71.868  39.594  32.377  1.00  0.00     0.063 A 
HETATM    3  C6  UNL     1      72.508  40.371  31.398  1.00  0.00     0.121 A 
HETATM    4  C7  UNL     1      72.474  39.867  30.117  1.00  0.00     0.174 A 
HETATM    5  N5  UNL     1      71.844  38.684  29.880  1.00  0.00    -0.329 N 
ATOM      6  H5  UNL     1      71.838  38.339  28.920  1.00  0.00     0.168 HD
HETATM    7  C8  UNL     1      71.235  37.941  30.808  1.00  0.00     0.128 A 
HETATM    8  N6  UNL     1      70.676  36.834  30.438  1.00  0.00    -0.384 N 
ATOM      9  H61 UNL     1      70.671  36.493  29.476  1.00  0.00     0.157 HD
ATOM     10  H62 UNL     1      70.210  36.266  31.146  1.00  0.00     0.157 HD
ENDROOT
BRANCH   1  11
HETATM   11  N2  UNL     1      70.600  37.630  33.107  1.00  0.00    -0.295 N 
ATOM     12  H2  UNL     1      71.057  36.824  33.534  1.00  0.00     0.187 HD
BRANCH  11  13
HETATM   13  N1  UNL     1      69.297  38.033  33.490  1.00  0.00    -0.275 N 
HETATM   14  C3  UNL     1      68.991  38.268  34.716  1.00  0.00     0.232 C 
ATOM     15  H1  UNL     1      68.581  38.139  32.772  1.00  0.00     0.189 HD
BRANCH  14  16
HETATM   16  C2  UNL     1      69.948  38.142  35.809  1.00  0.00     0.335 C 
HETATM   17  O2  UNL     1      69.994  39.053  36.699  1.00  0.00    -0.255 OA
BRANCH  16  18
HETATM   18  O1  UNL     1      70.809  37.068  35.913  1.00  0.00    -0.320 OA
HETATM   19  C1  UNL     1      70.350  35.735  36.059  1.00  0.00     0.213 C 
ENDBRANCH  16  18
ENDBRANCH  14  16
BRANCH  14  20
HETATM   20  O3  UNL     1      67.691  38.657  34.990  1.00  0.00    -0.341 OA
ATOM     21  H3  UNL     1      67.494  39.085  35.815  1.00  0.00     0.219 HD
ENDBRANCH  14  20
ENDBRANCH  11  13
ENDBRANCH   1  11
BRANCH   3  22
HETATM   22  S1  UNL     1      73.282  41.851  31.809  1.00  0.00     0.259 S 
HETATM   23  O4  UNL     1      74.803  41.785  31.712  1.00  0.00    -0.201 OA
HETATM   24  O5  UNL     1      73.073  42.062  33.320  1.00  0.00    -0.201 OA
BRANCH  22  25
HETATM   25  N3  UNL     1      72.641  43.252  31.092  1.00  0.00    -0.324 N 
ATOM     26  H32 UNL     1      71.728  43.613  31.367  1.00  0.00     0.169 HD
ATOM     27  H31 UNL     1      73.222  43.697  30.382  1.00  0.00     0.169 HD
ENDBRANCH  22  25
ENDBRANCH   3  22
BRANCH   4  28
HETATM   28  S2  UNL     1      73.210  40.717  28.805  1.00  0.00     0.274 S 
HETATM   29  O6  UNL     1      72.404  41.921  28.342  1.00  0.00    -0.199 OA
HETATM   30  O7  UNL     1      73.162  39.701  27.424  1.00  0.00    -0.199 OA
BRANCH  28  31
HETATM   31  N4  UNL     1      74.696  41.043  28.977  1.00  0.00    -0.323 N 
ATOM     32  H42 UNL     1      75.393  40.693  28.320  1.00  0.00     0.169 HD
ATOM     33  H41 UNL     1      74.931  41.625  29.781  1.00  0.00     0.169 HD
ENDBRANCH  28  31
ENDBRANCH   4  28
TORSDOF 9
ENDMDL
MODEL 3
REMARK VINA RESULT: -7.029522869      2.098      3.369
REMARK  9 active torsions:
REMARK  status: ('A' for Active; 'I' for Inactive)
REMARK    1  A    between atoms: O1_2  and  C2_3 
REMARK    2  A    between atoms: C2_3  and  C3_5 
REMARK    3  A    between atoms: C3_5  and  O3_6 
REMARK    4  A    between atoms: N1_8  and  N2_10 
REMARK    5  A    between atoms: N2_10  and  C4_12 
REMARK    6  A    between atoms: C6_14  and  S1_15 
REMARK    7  A    between atoms: S1_15  and  N3_16 
REMARK    8  A    between atoms: C7_21  and  S2_22 
REMARK    9  A    between atoms: S2_22  and  N4_23 
ROOT
HETATM    1  C4  UNL     1      71.465  39.184  32.647  1.00  0.00     0.093 A 
HETATM    2  C5  UNL     1      70.889  38.803  31.456  1.00  0.00     0.063 A 
HETATM    3  C6  UNL     1      71.364  39.222  30.203  1.00  0.00     0.121 A 
HETATM    4  C7  UNL     1      72.462  40.054  30.227  1.00  0.00     0.174 A 
HETATM    5  N5  UNL     1      73.005  40.411  31.422  1.00  0.00    -0.329 N 
ATOM      6  H5  UNL     1      73.817  41.029  31.403  1.00  0.00     0.168 HD
HETATM    7  C8  UNL     1      72.557  40.015  32.616  1.00  0.00     0.128 A 
HETATM    8  N6  UNL     1      73.175  40.435  33.673  1.00  0.00    -0.384 N 
ATOM      9  H61 UNL     1      73.987  41.052  33.650  1.00  0.00     0.157 HD
ATOM     10  H62 UNL     1      72.833  40.133  34.586  1.00  0.00     0.157 HD
ENDROOT
BRANCH   1  11
HETATM   11  N2  UNL     1      70.968  38.749  33.904  1.00  0.00    -0.295 N 
ATOM     12  H2  UNL     1      70.996  39.351  34.726  1.00  0.00     0.187 HD
BRANCH  11  13
HETATM   13  N1  UNL     1      70.432  37.439  33.962  1.00  0.00    -0.275 N 
HETATM   14  C3  UNL     1      69.679  37.054  34.930  1.00  0.00     0.232 C 
ATOM     15  H1  UNL     1      70.651  36.781  33.214  1.00  0.00     0.189 HD
BRANCH  14  16
HETATM   16  C2  UNL     1      69.315  37.924  36.043  1.00  0.00     0.335 C 
HETATM   17  O2  UNL     1      70.238  38.446  36.748  1.00  0.00    -0.255 OA
BRANCH  16  18
HETATM   18  O1  UNL     1      67.999  38.201  36.359  1.00  0.00    -0.320 OA
HETATM   19  C1  UNL     1      67.353  39.396  35.956  1.00  0.00     0.213 C 
ENDBRANCH  16  18
ENDBRANCH  14  16
BRANCH  14  20
HETATM   20  O3  UNL     1      69.204  35.755  34.897  1.00  0.00    -0.341 OA
ATOM     21  H3  UNL     1      68.367  35.573  34.487  1.00  0.00     0.219 HD
ENDBRANCH  14  20
ENDBRANCH  11  13
ENDBRANCH   1  11
BRANCH   3  22
HETATM   22  S1  UNL     1      70.594  38.716  28.751  1.00  0.00     0.259 S 
HETATM   23  O4  UNL     1      70.060  39.875  27.914  1.00  0.00    -0.201 OA
HETATM   24  O5  UNL     1      69.294  37.999  29.158  1.00  0.00    -0.201 OA
BRANCH  22  25
HETATM   25  N3  UNL     1      71.437  37.572  27.820  1.00  0.00    -0.324 N 
ATOM     26  H32 UNL     1      72.282  37.125  28.175  1.00  0.00     0.169 HD
ATOM     27  H31 UNL     1      71.047  37.368  26.900  1.00  0.00     0.169 HD
ENDBRANCH  22  25
ENDBRANCH   3  22
BRANCH   4  28
HETATM   28  S2  UNL     1      73.163  40.644  28.762  1.00  0.00     0.274 S 
HETATM   29  O6  UNL     1      73.565  39.536  27.800  1.00  0.00    -0.199 OA
HETATM   30  O7  UNL     1      74.678  41.349  29.148  1.00  0.00    -0.199 OA
BRANCH  28  31
HETATM   31  N4  UNL     1      72.395  41.770  28.065  1.00  0.00    -0.323 N 
ATOM     32  H42 UNL     1      72.859  42.635  27.790  1.00  0.00     0.169 HD
ATOM     33  H41 UNL     1      71.404  41.593  27.899  1.00  0.00     0.169 HD
ENDBRANCH  28  31
ENDBRANCH   4  28
TORSDOF 9
ENDMDL
MODEL 4
REMARK VINA RESULT: -6.972346173      3.468      4.909
REMARK  9 active torsions:
REMARK  status: ('A' for Active; 'I' for Inactive)
REMARK    1  A    between atoms: O1_2  and  C2_3 
REMARK    2  A    between atoms: C2_3  and  C3_5 
REMARK    3  A    between atoms: C3_5  and  O3_6 
REMARK    4  A    between atoms: N1_8  and  N2_10 
REMARK    5  A    between atoms: N2_10  and  C4_12 
REMARK    6  A    between atoms: C6_14  and  S1_15 
REMARK    7  A    between atoms: S1_15  and  N3_16 
REMARK    8  A    between atoms: C7_21  and  S2_22 
REMARK    9  A    between atoms: S2_22  and  N4_23 
ROOT
HETATM    1  C4  UNL     1      69.381  37.717  31.674  1.00  0.00     0.093 A 
HETATM    2  C5  UNL     1      68.367  37.913  30.765  1.00  0.00     0.063 A 
HETATM    3  C6  UNL     1      68.588  38.067  29.387  1.00  0.00     0.121 A 
HETATM    4  C7  UNL     1      69.903  38.010  28.981  1.00  0.00     0.174 A 
HETATM    5  N5  UNL     1      70.880  37.815  29.907  1.00  0.00    -0.329 N 
ATOM      6  H5  UNL     1      71.844  37.777  29.574  1.00  0.00     0.168 HD
HETATM    7  C8  UNL     1      70.675  37.668  31.219  1.00  0.00     0.128 A 
HETATM    8  N6  UNL     1      71.703  37.488  31.985  1.00  0.00    -0.384 N 
ATOM      9  H61 UNL     1      72.665  37.452  31.646  1.00  0.00     0.157 HD
ATOM     10  H62 UNL     1      71.547  37.376  32.987  1.00  0.00     0.157 HD
ENDROOT
BRANCH   1  11
HETATM   11  N2  UNL     1      69.135  37.564  33.063  1.00  0.00    -0.295 N 
ATOM     12  H2  UNL     1      69.608  36.847  33.613  1.00  0.00     0.187 HD
BRANCH  11  13
HETATM   13  N1  UNL     1      68.202  38.453  33.652  1.00  0.00    -0.275 N 
HETATM   14  C3  UNL     1      68.100  38.587  34.926  1.00  0.00     0.232 C 
ATOM     15  H1  UNL     1      67.594  39.004  33.046  1.00  0.00     0.189 HD
BRANCH  14  16
HETATM   16  C2  UNL     1      68.926  37.842  35.869  1.00  0.00     0.335 C 
HETATM   17  O2  UNL     1      69.674  38.483  36.676  1.00  0.00    -0.255 OA
BRANCH  16  18
HETATM   18  O1  UNL     1      68.925  36.462  35.917  1.00  0.00    -0.320 OA
HETATM   19  C1  UNL     1      70.118  35.698  35.893  1.00  0.00     0.213 C 
ENDBRANCH  16  18
ENDBRANCH  14  16
BRANCH  14  20
HETATM   20  O3  UNL     1      67.158  39.482  35.404  1.00  0.00    -0.341 OA
ATOM     21  H3  UNL     1      66.319  39.557  34.964  1.00  0.00     0.219 HD
ENDBRANCH  14  20
ENDBRANCH  11  13
ENDBRANCH   1  11
BRANCH   3  22
HETATM   22  S1  UNL     1      67.277  38.318  28.303  1.00  0.00     0.259 S 
HETATM   23  O4  UNL     1      67.267  39.710  27.676  1.00  0.00    -0.201 OA
HETATM   24  O5  UNL     1      65.992  38.348  29.151  1.00  0.00    -0.201 OA
BRANCH  22  25
HETATM   25  N3  UNL     1      67.005  37.087  27.164  1.00  0.00    -0.324 N 
ATOM     26  H32 UNL     1      67.027  37.282  26.163  1.00  0.00     0.169 HD
ATOM     27  H31 UNL     1      66.822  36.158  27.543  1.00  0.00     0.169 HD
ENDBRANCH  22  25
ENDBRANCH   3  22
BRANCH   4  28
HETATM   28  S2  UNL     1      70.329  38.175  27.315  1.00  0.00     0.274 S 
HETATM   29  O6  UNL     1      69.869  37.004  26.460  1.00  0.00    -0.199 OA
HETATM   30  O7  UNL     1      72.036  38.057  27.192  1.00  0.00    -0.199 OA
BRANCH  28  31
HETATM   31  N4  UNL     1      70.001  39.526  26.676  1.00  0.00    -0.323 N 
ATOM     32  H42 UNL     1      70.341  40.399  27.081  1.00  0.00     0.169 HD
ATOM     33  H41 UNL     1      69.429  39.490  25.833  1.00  0.00     0.169 HD
ENDBRANCH  28  31
ENDBRANCH   4  28
TORSDOF 9
ENDMDL
MODEL 5
REMARK VINA RESULT: -6.888315328      3.403      4.798
REMARK  9 active torsions:
REMARK  status: ('A' for Active; 'I' for Inactive)
REMARK    1  A    between atoms: O1_2  and  C2_3 
REMARK    2  A    between atoms: C2_3  and  C3_5 
REMARK    3  A    between atoms: C3_5  and  O3_6 
REMARK    4  A    between atoms: N1_8  and  N2_10 
REMARK    5  A    between atoms: N2_10  and  C4_12 
REMARK    6  A    between atoms: C6_14  and  S1_15 
REMARK    7  A    between atoms: S1_15  and  N3_16 
REMARK    8  A    between atoms: C7_21  and  S2_22 
REMARK    9  A    between atoms: S2_22  and  N4_23 
ROOT
HETATM    1  C4  UNL     1      69.609  38.139  32.025  1.00  0.00     0.093 A 
HETATM    2  C5  UNL     1      68.497  37.924  31.243  1.00  0.00     0.063 A 
HETATM    3  C6  UNL     1      68.548  37.812  29.845  1.00  0.00     0.121 A 
HETATM    4  C7  UNL     1      69.800  37.931  29.280  1.00  0.00     0.174 A 
HETATM    5  N5  UNL     1      70.878  38.143  30.083  1.00  0.00    -0.329 N 
ATOM      6  H5  UNL     1      71.790  38.226  29.633  1.00  0.00     0.168 HD
HETATM    7  C8  UNL     1      70.834  38.250  31.414  1.00  0.00     0.128 A 
HETATM    8  N6  UNL     1      71.942  38.452  32.050  1.00  0.00    -0.384 N 
ATOM      9  H61 UNL     1      72.852  38.535  31.596  1.00  0.00     0.157 HD
ATOM     10  H62 UNL     1      71.909  38.535  33.066  1.00  0.00     0.157 HD
ENDROOT
BRANCH   1  11
HETATM   11  N2  UNL     1      69.535  38.250  33.438  1.00  0.00    -0.295 N 
ATOM     12  H2  UNL     1      69.581  39.155  33.906  1.00  0.00     0.187 HD
BRANCH  11  13
HETATM   13  N1  UNL     1      69.392  37.044  34.168  1.00  0.00    -0.275 N 
HETATM   14  C3  UNL     1      69.028  37.035  35.401  1.00  0.00     0.232 C 
ATOM     15  H1  UNL     1      69.585  36.157  33.702  1.00  0.00     0.189 HD
BRANCH  14  16
HETATM   16  C2  UNL     1      68.733  38.251  36.149  1.00  0.00     0.335 C 
HETATM   17  O2  UNL     1      69.698  38.962  36.579  1.00  0.00    -0.255 OA
BRANCH  16  18
HETATM   18  O1  UNL     1      67.439  38.660  36.407  1.00  0.00    -0.320 OA
HETATM   19  C1  UNL     1      66.881  39.830  35.835  1.00  0.00     0.213 C 
ENDBRANCH  16  18
ENDBRANCH  14  16
BRANCH  14  20
HETATM   20  O3  UNL     1      68.917  35.806  36.028  1.00  0.00    -0.341 OA
ATOM     21  H3  UNL     1      68.945  35.011  35.508  1.00  0.00     0.219 HD
ENDBRANCH  14  20
ENDBRANCH  11  13
ENDBRANCH   1  11
BRANCH   3  22
HETATM   22  S1  UNL     1      67.119  37.552  28.925  1.00  0.00     0.259 S 
HETATM   23  O4  UNL     1      66.747  38.736  28.037  1.00  0.00    -0.201 OA
HETATM   24  O5  UNL     1      65.944  37.524  29.918  1.00  0.00    -0.201 OA
BRANCH  22  25
HETATM   25  N3  UNL     1      67.020  36.066  28.107  1.00  0.00    -0.324 N 
ATOM     26  H32 UNL     1      67.859  35.584  27.786  1.00  0.00     0.169 HD
ATOM     27  H31 UNL     1      66.080  35.696  27.963  1.00  0.00     0.169 HD
ENDBRANCH  22  25
ENDBRANCH   3  22
BRANCH   4  28
HETATM   28  S2  UNL     1      70.021  37.806  27.572  1.00  0.00     0.274 S 
HETATM   29  O6  UNL     1      69.771  36.404  27.035  1.00  0.00    -0.199 OA
HETATM   30  O7  UNL     1      71.689  38.025  27.238  1.00  0.00    -0.199 OA
BRANCH  28  31
HETATM   31  N4  UNL     1      69.328  38.882  26.732  1.00  0.00    -0.323 N 
ATOM     32  H42 UNL     1      68.343  39.106  26.868  1.00  0.00     0.169 HD
ATOM     33  H41 UNL     1      69.915  39.349  26.041  1.00  0.00     0.169 HD
ENDBRANCH  28  31
ENDBRANCH   4  28
TORSDOF 9
ENDMDL
