MODEL 1
REMARK VINA RESULT: -8.105192551      0.000      0.000
REMARK  8 active torsions:
REMARK  status: ('A' for Active; 'I' for Inactive)
REMARK    1  A    between atoms: C2_2  and  C7_23 
REMARK    2  A    between atoms: N1_3  and  N2_5 
REMARK    3  A    between atoms: N2_5  and  C3_7 
REMARK    4  A    between atoms: C4_12  and  N5_13 
REMARK    5  A    between atoms: N5_13  and  N7_16 
REMARK    6  A    between atoms: N7_16  and  N8_17 
REMARK    7  A    between atoms: C8_26  and  N11_27 
REMARK    8  A    between atoms: C10_34  and  N13_35 
ROOT
HETATM    1  N5  UNL     1      69.898  37.557  35.390  1.00  0.00    -0.155 N 
HETATM    2  C5  UNL     1      68.682  38.078  35.872  1.00  0.00     0.205 C 
HETATM    3  N6  UNL     1      67.684  38.501  36.269  1.00  0.00    -0.170 NA
ENDROOT
BRANCH   1   4
HETATM    4  C4  UNL     1      70.397  37.903  34.100  1.00  0.00     0.167 A 
HETATM    5  N4  UNL     1      69.818  37.376  33.012  1.00  0.00    -0.268 N 
HETATM    6  N3  UNL     1      70.241  37.670  31.800  1.00  0.00    -0.129 N 
ATOM      7  H4  UNL     1      69.034  36.733  33.125  1.00  0.00     0.189 HD
HETATM    8  C3  UNL     1      71.271  38.514  31.622  1.00  0.00     0.711 A 
ATOM      9  H3  UNL     1      69.783  37.254  30.989  1.00  0.00     0.205 HD
HETATM   10  N9  UNL     1      71.863  39.053  32.697  1.00  0.00    -0.196 N 
HETATM   11  C6  UNL     1      71.453  38.770  33.937  1.00  0.00     0.158 A 
ATOM     12  H9  UNL     1      72.646  39.694  32.565  1.00  0.00     0.183 HD
BRANCH   8  13
HETATM   13  N2  UNL     1      71.698  38.814  30.439  1.00  0.00    -0.131 N 
ATOM     14  H2  UNL     1      72.691  38.977  30.267  1.00  0.00     0.205 HD
BRANCH  13  15
HETATM   15  N1  UNL     1      70.776  38.909  29.417  1.00  0.00    -0.289 N 
HETATM   16  C2  UNL     1      71.117  39.286  28.180  1.00  0.00     0.052 C 
HETATM   17  C1  UNL     1      72.521  39.590  27.984  1.00  0.00     0.072 C 
ATOM     18  H1  UNL     1      69.801  38.683  29.612  1.00  0.00     0.187 HD
BRANCH  16  19
HETATM   19  C7  UNL     1      70.009  39.329  27.260  1.00  0.00     0.111 A 
HETATM   20  N10 UNL     1      69.746  40.474  26.542  1.00  0.00    -0.187 N 
HETATM   21  C8  UNL     1      68.771  40.619  25.668  1.00  0.00     0.679 A 
ATOM     22  H10 UNL     1      70.356  41.277  26.701  1.00  0.00     0.184 HD
HETATM   23  N12 UNL     1      67.963  39.570  25.451  1.00  0.00    -0.154 N 
HETATM   24  C9  UNL     1      68.116  38.406  26.087  1.00  0.00     0.295 A 
ATOM     25  H12 UNL     1      67.203  39.666  24.777  1.00  0.00     0.187 HD
HETATM   26  O1  UNL     1      67.388  37.406  25.914  1.00  0.00    -0.265 OA
HETATM   27  C10 UNL     1      69.180  38.279  27.027  1.00  0.00     0.200 A 
BRANCH  21  28
HETATM   28  N11 UNL     1      68.588  41.749  25.029  1.00  0.00    -0.234 N 
ATOM     29 2H11 UNL     1      68.921  42.630  25.421  1.00  0.00     0.174 HD
ATOM     30 1H11 UNL     1      68.113  41.779  24.127  1.00  0.00     0.174 HD
ENDBRANCH  21  28
BRANCH  27  31
HETATM   31  N13 UNL     1      69.307  37.039  27.682  1.00  0.00    -0.107 N 
HETATM   32  O2  UNL     1      69.950  36.100  27.204  1.00  0.00    -0.531 OA
HETATM   33  O3  UNL     1      68.737  36.887  28.919  1.00  0.00    -0.531 OA
ENDBRANCH  27  31
ENDBRANCH  16  19
ENDBRANCH  13  15
ENDBRANCH   8  13
ENDBRANCH   1   4
BRANCH   1  34
HETATM   34  N7  UNL     1      70.596  36.685  36.216  1.00  0.00    -0.011 NA
BRANCH  34  35
HETATM   35  N8  UNL     1      70.637  35.413  35.642  1.00  0.00    -0.328 N 
ATOM     36  H82 UNL     1      71.494  34.883  35.486  1.00  0.00     0.174 HD
ATOM     37  H81 UNL     1      69.693  35.106  35.408  1.00  0.00     0.174 HD
ENDBRANCH  34  35
ENDBRANCH   1  34
TORSDOF 8
ENDMDL
MODEL 2
REMARK VINA RESULT: -8.082190131      2.673      3.011
REMARK  8 active torsions:
REMARK  status: ('A' for Active; 'I' for Inactive)
REMARK    1  A    between atoms: C2_2  and  C7_23 
REMARK    2  A    between atoms: N1_3  and  N2_5 
REMARK    3  A    between atoms: N2_5  and  C3_7 
REMARK    4  A    between atoms: C4_12  and  N5_13 
REMARK    5  A    between atoms: N5_13  and  N7_16 
REMARK    6  A    between atoms: N7_16  and  N8_17 
REMARK    7  A    between atoms: C8_26  and  N11_27 
REMARK    8  A    between atoms: C10_34  and  N13_35 
ROOT
HETATM    1  N5  UNL     1      69.810  37.496  35.464  1.00  0.00    -0.155 N 
HETATM    2  C5  UNL     1      68.735  38.125  36.118  1.00  0.00     0.205 C 
HETATM    3  N6  UNL     1      67.852  38.638  36.658  1.00  0.00    -0.170 NA
ENDROOT
BRANCH   1   4
HETATM    4  C4  UNL     1      69.932  37.514  34.043  1.00  0.00     0.167 A 
HETATM    5  N4  UNL     1      71.153  37.463  33.492  1.00  0.00    -0.268 N 
HETATM    6  N3  UNL     1      71.315  37.472  32.185  1.00  0.00    -0.129 N 
ATOM      7  H4  UNL     1      71.973  37.416  34.097  1.00  0.00     0.189 HD
HETATM    8  C3  UNL     1      70.253  37.532  31.365  1.00  0.00     0.711 A 
ATOM      9  H3  UNL     1      72.256  37.432  31.792  1.00  0.00     0.205 HD
HETATM   10  N9  UNL     1      69.023  37.583  31.896  1.00  0.00    -0.196 N 
HETATM   11  C6  UNL     1      68.832  37.575  33.219  1.00  0.00     0.158 A 
ATOM     12  H9  UNL     1      68.214  37.629  31.276  1.00  0.00     0.183 HD
BRANCH   8  13
HETATM   13  N2  UNL     1      70.395  37.541  30.079  1.00  0.00    -0.131 N 
ATOM     14  H2  UNL     1      71.299  37.343  29.650  1.00  0.00     0.205 HD
BRANCH  13  15
HETATM   15  N1  UNL     1      69.289  37.825  29.304  1.00  0.00    -0.289 N 
HETATM   16  C2  UNL     1      68.619  36.877  28.641  1.00  0.00     0.052 C 
HETATM   17  C1  UNL     1      69.132  35.529  28.789  1.00  0.00     0.072 C 
ATOM     18  H1  UNL     1      68.972  38.792  29.235  1.00  0.00     0.187 HD
BRANCH  16  19
HETATM   19  C7  UNL     1      67.500  37.379  27.883  1.00  0.00     0.111 A 
HETATM   20  N10 UNL     1      67.520  37.342  26.507  1.00  0.00    -0.187 N 
HETATM   21  C8  UNL     1      66.551  37.759  25.719  1.00  0.00     0.679 A 
ATOM     22  H10 UNL     1      68.355  36.960  26.061  1.00  0.00     0.184 HD
HETATM   23  N12 UNL     1      65.448  38.263  26.295  1.00  0.00    -0.154 N 
HETATM   24  C9  UNL     1      65.311  38.353  27.620  1.00  0.00     0.295 A 
ATOM     25  H12 UNL     1      64.688  38.591  25.699  1.00  0.00     0.187 HD
HETATM   26  O1  UNL     1      64.303  38.814  28.196  1.00  0.00    -0.265 OA
HETATM   27  C10 UNL     1      66.377  37.893  28.447  1.00  0.00     0.200 A 
BRANCH  21  28
HETATM   28  N11 UNL     1      66.653  37.691  24.413  1.00  0.00    -0.234 N 
ATOM     29 2H11 UNL     1      67.214  36.962  23.972  1.00  0.00     0.174 HD
ATOM     30 1H11 UNL     1      66.175  38.357  23.807  1.00  0.00     0.174 HD
ENDBRANCH  21  28
BRANCH  27  31
HETATM   31  N13 UNL     1      66.198  38.008  29.839  1.00  0.00    -0.107 N 
HETATM   32  O2  UNL     1      65.636  37.138  30.510  1.00  0.00    -0.531 OA
HETATM   33  O3  UNL     1      66.714  39.105  30.480  1.00  0.00    -0.531 OA
ENDBRANCH  27  31
ENDBRANCH  16  19
ENDBRANCH  13  15
ENDBRANCH   8  13
ENDBRANCH   1   4
BRANCH   1  34
HETATM   34  N7  UNL     1      70.752  36.847  36.253  1.00  0.00    -0.011 NA
BRANCH  34  35
HETATM   35  N8  UNL     1      70.741  35.478  35.982  1.00  0.00    -0.328 N 
ATOM     36  H82 UNL     1      70.815  35.079  35.047  1.00  0.00     0.174 HD
ATOM     37  H81 UNL     1      70.648  34.951  36.851  1.00  0.00     0.174 HD
ENDBRANCH  34  35
ENDBRANCH   1  34
TORSDOF 8
ENDMDL
MODEL 3
REMARK VINA RESULT: -8.059170796      1.226      1.339
REMARK  8 active torsions:
REMARK  status: ('A' for Active; 'I' for Inactive)
REMARK    1  A    between atoms: C2_2  and  C7_23 
REMARK    2  A    between atoms: N1_3  and  N2_5 
REMARK    3  A    between atoms: N2_5  and  C3_7 
REMARK    4  A    between atoms: C4_12  and  N5_13 
REMARK    5  A    between atoms: N5_13  and  N7_16 
REMARK    6  A    between atoms: N7_16  and  N8_17 
REMARK    7  A    between atoms: C8_26  and  N11_27 
REMARK    8  A    between atoms: C10_34  and  N13_35 
ROOT
HETATM    1  N5  UNL     1      69.818  37.671  35.462  1.00  0.00    -0.155 N 
HETATM    2  C5  UNL     1      68.589  38.158  35.945  1.00  0.00     0.205 C 
HETATM    3  N6  UNL     1      67.580  38.554  36.343  1.00  0.00    -0.170 NA
ENDROOT
BRANCH   1   4
HETATM    4  C4  UNL     1      70.220  37.872  34.109  1.00  0.00     0.167 A 
HETATM    5  N4  UNL     1      69.496  37.323  33.124  1.00  0.00    -0.268 N 
HETATM    6  N3  UNL     1      69.825  37.486  31.859  1.00  0.00    -0.129 N 
ATOM      7  H4  UNL     1      68.673  36.767  33.359  1.00  0.00     0.189 HD
HETATM    8  C3  UNL     1      70.902  38.213  31.521  1.00  0.00     0.711 A 
ATOM      9  H3  UNL     1      69.256  37.057  31.129  1.00  0.00     0.205 HD
HETATM   10  N9  UNL     1      71.640  38.771  32.492  1.00  0.00    -0.196 N 
HETATM   11  C6  UNL     1      71.327  38.621  33.782  1.00  0.00     0.158 A 
ATOM     12  H9  UNL     1      72.459  39.324  32.239  1.00  0.00     0.183 HD
BRANCH   8  13
HETATM   13  N2  UNL     1      71.239  38.383  30.285  1.00  0.00    -0.131 N 
ATOM     14  H2  UNL     1      72.221  38.427  30.011  1.00  0.00     0.205 HD
BRANCH  13  15
HETATM   15  N1  UNL     1      70.235  38.504  29.346  1.00  0.00    -0.289 N 
HETATM   16  C2  UNL     1      70.090  39.599  28.593  1.00  0.00     0.052 C 
HETATM   17  C1  UNL     1      71.058  40.653  28.829  1.00  0.00     0.072 C 
ATOM     18  H1  UNL     1      69.580  37.731  29.223  1.00  0.00     0.187 HD
BRANCH  16  19
HETATM   19  C7  UNL     1      68.977  39.533  27.680  1.00  0.00     0.111 A 
HETATM   20  N10 UNL     1      67.940  40.434  27.780  1.00  0.00    -0.187 N 
HETATM   21  C8  UNL     1      66.885  40.473  26.993  1.00  0.00     0.679 A 
ATOM     22  H10 UNL     1      67.995  41.129  28.525  1.00  0.00     0.184 HD
HETATM   23  N12 UNL     1      66.803  39.563  26.009  1.00  0.00    -0.154 N 
HETATM   24  C9  UNL     1      67.745  38.637  25.811  1.00  0.00     0.295 A 
ATOM     25  H12 UNL     1      65.992  39.579  25.390  1.00  0.00     0.187 HD
HETATM   26  O1  UNL     1      67.708  37.775  24.908  1.00  0.00    -0.265 OA
HETATM   27  C10 UNL     1      68.875  38.620  26.679  1.00  0.00     0.200 A 
BRANCH  21  28
HETATM   28  N11 UNL     1      65.939  41.365  27.160  1.00  0.00    -0.234 N 
ATOM     29 2H11 UNL     1      66.115  42.217  27.691  1.00  0.00     0.174 HD
ATOM     30 1H11 UNL     1      65.008  41.234  26.765  1.00  0.00     0.174 HD
ENDBRANCH  21  28
BRANCH  27  31
HETATM   31  N13 UNL     1      69.844  37.626  26.443  1.00  0.00    -0.107 N 
HETATM   32  O2  UNL     1      70.828  37.817  25.722  1.00  0.00    -0.531 OA
HETATM   33  O3  UNL     1      69.717  36.419  27.080  1.00  0.00    -0.531 OA
ENDBRANCH  27  31
ENDBRANCH  16  19
ENDBRANCH  13  15
ENDBRANCH   8  13
ENDBRANCH   1   4
BRANCH   1  34
HETATM   34  N7  UNL     1      70.629  36.978  36.353  1.00  0.00    -0.011 NA
BRANCH  34  35
HETATM   35  N8  UNL     1      70.668  35.625  36.010  1.00  0.00    -0.328 N 
ATOM     36  H82 UNL     1      69.842  35.053  35.839  1.00  0.00     0.174 HD
ATOM     37  H81 UNL     1      71.636  35.307  35.959  1.00  0.00     0.174 HD
ENDBRANCH  34  35
ENDBRANCH   1  34
TORSDOF 8
ENDMDL
MODEL 4
REMARK VINA RESULT: -8.051443259      2.040      2.632
REMARK  8 active torsions:
REMARK  status: ('A' for Active; 'I' for Inactive)
REMARK    1  A    between atoms: C2_2  and  C7_23 
REMARK    2  A    between atoms: N1_3  and  N2_5 
REMARK    3  A    between atoms: N2_5  and  C3_7 
REMARK    4  A    between atoms: C4_12  and  N5_13 
REMARK    5  A    between atoms: N5_13  and  N7_16 
REMARK    6  A    between atoms: N7_16  and  N8_17 
REMARK    7  A    between atoms: C8_26  and  N11_27 
REMARK    8  A    between atoms: C10_34  and  N13_35 
ROOT
HETATM    1  N5  UNL     1      69.591  37.691  35.463  1.00  0.00    -0.155 N 
HETATM    2  C5  UNL     1      68.408  38.283  35.942  1.00  0.00     0.205 C 
HETATM    3  N6  UNL     1      67.436  38.765  36.340  1.00  0.00    -0.170 NA
ENDROOT
BRANCH   1   4
HETATM    4  C4  UNL     1      69.851  37.572  34.065  1.00  0.00     0.167 A 
HETATM    5  N4  UNL     1      71.119  37.462  33.644  1.00  0.00    -0.268 N 
HETATM    6  N3  UNL     1      71.408  37.344  32.365  1.00  0.00    -0.129 N 
ATOM      7  H4  UNL     1      71.876  37.469  34.329  1.00  0.00     0.189 HD
HETATM    8  C3  UNL     1      70.433  37.330  31.443  1.00  0.00     0.711 A 
ATOM      9  H3  UNL     1      72.382  37.262  32.072  1.00  0.00     0.205 HD
HETATM   10  N9  UNL     1      69.157  37.439  31.843  1.00  0.00    -0.196 N 
HETATM   11  C6  UNL     1      68.838  37.560  33.135  1.00  0.00     0.158 A 
ATOM     12  H9  UNL     1      68.413  37.429  31.145  1.00  0.00     0.183 HD
BRANCH   8  13
HETATM   13  N2  UNL     1      70.699  37.215  30.182  1.00  0.00    -0.131 N 
ATOM     14  H2  UNL     1      71.544  36.738  29.867  1.00  0.00     0.205 HD
BRANCH  13  15
HETATM   15  N1  UNL     1      69.808  37.754  29.276  1.00  0.00    -0.289 N 
HETATM   16  C2  UNL     1      68.964  36.997  28.568  1.00  0.00     0.052 C 
HETATM   17  C1  UNL     1      69.046  35.570  28.815  1.00  0.00     0.072 C 
ATOM     18  H1  UNL     1      69.795  38.765  29.142  1.00  0.00     0.187 HD
BRANCH  16  19
HETATM   19  C7  UNL     1      68.123  37.749  27.671  1.00  0.00     0.111 A 
HETATM   20  N10 UNL     1      66.768  37.843  27.903  1.00  0.00    -0.187 N 
HETATM   21  C8  UNL     1      65.912  38.512  27.159  1.00  0.00     0.679 A 
ATOM     22  H10 UNL     1      66.398  37.353  28.718  1.00  0.00     0.184 HD
HETATM   23  N12 UNL     1      66.389  39.159  26.084  1.00  0.00    -0.154 N 
HETATM   24  C9  UNL     1      67.683  39.144  25.755  1.00  0.00     0.295 A 
ATOM     25  H12 UNL     1      65.739  39.683  25.497  1.00  0.00     0.187 HD
HETATM   26  O1  UNL     1      68.167  39.732  24.766  1.00  0.00    -0.265 OA
HETATM   27  C10 UNL     1      68.585  38.410  26.579  1.00  0.00     0.200 A 
BRANCH  21  28
HETATM   28  N11 UNL     1      64.634  38.546  27.449  1.00  0.00    -0.234 N 
ATOM     29 2H11 UNL     1      64.012  37.794  27.153  1.00  0.00     0.174 HD
ATOM     30 1H11 UNL     1      64.229  39.319  27.977  1.00  0.00     0.174 HD
ENDBRANCH  21  28
BRANCH  27  31
HETATM   31  N13 UNL     1      69.941  38.412  26.198  1.00  0.00    -0.107 N 
HETATM   32  O2  UNL     1      70.415  37.571  25.429  1.00  0.00    -0.531 OA
HETATM   33  O3  UNL     1      70.752  39.417  26.657  1.00  0.00    -0.531 OA
ENDBRANCH  27  31
ENDBRANCH  16  19
ENDBRANCH  13  15
ENDBRANCH   8  13
ENDBRANCH   1   4
BRANCH   1  34
HETATM   34  N7  UNL     1      70.500  37.220  36.401  1.00  0.00    -0.011 NA
BRANCH  34  35
HETATM   35  N8  UNL     1      70.617  35.833  36.298  1.00  0.00    -0.328 N 
ATOM     36  H82 UNL     1      69.926  35.171  36.652  1.00  0.00     0.174 HD
ATOM     37  H81 UNL     1      71.486  35.591  35.823  1.00  0.00     0.174 HD
ENDBRANCH  34  35
ENDBRANCH   1  34
TORSDOF 8
ENDMDL
MODEL 5
REMARK VINA RESULT: -7.954411591      1.379      1.649
REMARK  8 active torsions:
REMARK  status: ('A' for Active; 'I' for Inactive)
REMARK    1  A    between atoms: C2_2  and  C7_23 
REMARK    2  A    between atoms: N1_3  and  N2_5 
REMARK    3  A    between atoms: N2_5  and  C3_7 
REMARK    4  A    between atoms: C4_12  and  N5_13 
REMARK    5  A    between atoms: N5_13  and  N7_16 
REMARK    6  A    between atoms: N7_16  and  N8_17 
REMARK    7  A    between atoms: C8_26  and  N11_27 
REMARK    8  A    between atoms: C10_34  and  N13_35 
ROOT
HETATM    1  N5  UNL     1      69.710  37.640  35.283  1.00  0.00    -0.155 N 
HETATM    2  C5  UNL     1      68.520  38.202  35.780  1.00  0.00     0.205 C 
HETATM    3  N6  UNL     1      67.542  38.661  36.191  1.00  0.00    -0.170 NA
ENDROOT
BRANCH   1   4
HETATM    4  C4  UNL     1      70.009  37.640  33.889  1.00  0.00     0.167 A 
HETATM    5  N4  UNL     1      71.291  37.618  33.496  1.00  0.00    -0.268 N 
HETATM    6  N3  UNL     1      71.616  37.612  32.219  1.00  0.00    -0.129 N 
ATOM      7  H4  UNL     1      72.029  37.607  34.200  1.00  0.00     0.189 HD
HETATM    8  C3  UNL     1      70.664  37.626  31.272  1.00  0.00     0.711 A 
ATOM      9  H3  UNL     1      72.599  37.595  31.948  1.00  0.00     0.205 HD
HETATM   10  N9  UNL     1      69.376  37.647  31.644  1.00  0.00    -0.196 N 
HETATM   11  C6  UNL     1      69.020  37.654  32.932  1.00  0.00     0.158 A 
ATOM     12  H9  UNL     1      68.650  37.658  30.927  1.00  0.00     0.183 HD
BRANCH   8  13
HETATM   13  N2  UNL     1      70.965  37.619  30.014  1.00  0.00    -0.131 N 
ATOM     14  H2  UNL     1      71.751  37.068  29.667  1.00  0.00     0.205 HD
BRANCH  13  15
HETATM   15  N1  UNL     1      70.196  38.377  29.156  1.00  0.00    -0.289 N 
HETATM   16  C2  UNL     1      70.717  39.348  28.398  1.00  0.00     0.052 C 
HETATM   17  C1  UNL     1      72.145  39.553  28.540  1.00  0.00     0.072 C 
ATOM     18  H1  UNL     1      69.195  38.190  29.097  1.00  0.00     0.187 HD
BRANCH  16  19
HETATM   19  C7  UNL     1      69.747  40.027  27.577  1.00  0.00     0.111 A 
HETATM   20  N10 UNL     1      69.474  41.361  27.781  1.00  0.00    -0.187 N 
HETATM   21  C8  UNL     1      68.620  42.080  27.083  1.00  0.00     0.679 A 
ATOM     22  H10 UNL     1      69.975  41.830  28.536  1.00  0.00     0.184 HD
HETATM   23  N12 UNL     1      67.956  41.473  26.088  1.00  0.00    -0.154 N 
HETATM   24  C9  UNL     1      68.133  40.183  25.792  1.00  0.00     0.295 A 
ATOM     25  H12 UNL     1      67.291  42.016  25.537  1.00  0.00     0.187 HD
HETATM   26  O1  UNL     1      67.537  39.580  24.875  1.00  0.00    -0.265 OA
HETATM   27  C10 UNL     1      69.064  39.430  26.566  1.00  0.00     0.200 A 
BRANCH  21  28
HETATM   28  N11 UNL     1      68.417  43.349  27.348  1.00  0.00    -0.234 N 
ATOM     29 2H11 UNL     1      68.866  43.792  28.149  1.00  0.00     0.174 HD
ATOM     30 1H11 UNL     1      67.810  43.924  26.764  1.00  0.00     0.174 HD
ENDBRANCH  21  28
BRANCH  27  31
HETATM   31  N13 UNL     1      69.221  38.072  26.228  1.00  0.00    -0.107 N 
HETATM   32  O2  UNL     1      70.096  37.678  25.452  1.00  0.00    -0.531 OA
HETATM   33  O3  UNL     1      68.403  37.148  26.824  1.00  0.00    -0.531 OA
ENDBRANCH  27  31
ENDBRANCH  16  19
ENDBRANCH  13  15
ENDBRANCH   8  13
ENDBRANCH   1   4
BRANCH   1  34
HETATM   34  N7  UNL     1      70.586  37.076  36.202  1.00  0.00    -0.011 NA
BRANCH  34  35
HETATM   35  N8  UNL     1      70.606  35.688  36.054  1.00  0.00    -0.328 N 
ATOM     36  H82 UNL     1      71.351  35.085  36.401  1.00  0.00     0.174 HD
ATOM     37  H81 UNL     1      69.773  35.380  35.552  1.00  0.00     0.174 HD
ENDBRANCH  34  35
ENDBRANCH   1  34
TORSDOF 8
ENDMDL
