MODEL 1
REMARK VINA RESULT: -7.528334664      0.000      0.000
REMARK  5 active torsions:
REMARK  status: ('A' for Active; 'I' for Inactive)
REMARK    1  A    between atoms: N2_7  and  C4_8 
REMARK    2  A    between atoms: C4_8  and  C5_9 
REMARK    3  A    between atoms: C5_9  and  C6_10 
REMARK    4  A    between atoms: C6_10  and  C7_11 
REMARK    5  A    between atoms: N4_16  and  O1_17 
ROOT
HETATM    1  C4  UNL     1      18.053   2.477  15.221  1.00  0.00     0.129 C 
ENDROOT
BRANCH   1   2
HETATM    2  N2  UNL     1      18.747   3.726  15.032  1.00  0.00    -0.353 N 
HETATM    3  C3  UNL     1      19.924   4.006  15.614  1.00  0.00     0.095 A 
HETATM    4  C2  UNL     1      20.556   5.212  15.408  1.00  0.00     0.065 A 
HETATM    5  C1  UNL     1      19.973   6.146  14.597  1.00  0.00     0.100 A 
HETATM    6  N1  UNL     1      20.545   7.288  14.386  1.00  0.00    -0.385 N 
HETATM    7  N5  UNL     1      18.796   5.830  14.034  1.00  0.00    -0.339 N 
ATOM      8  H12 UNL     1      21.439   7.528  14.814  1.00  0.00     0.157 HD
ATOM      9  H11 UNL     1      20.110   7.985  13.781  1.00  0.00     0.157 HD
HETATM   10  C10 UNL     1      18.191   4.653  14.241  1.00  0.00     0.184 A 
ATOM     11  H5  UNL     1      18.346   6.513  13.424  1.00  0.00     0.168 HD
ENDBRANCH   1   2
BRANCH   1  12
HETATM   12  C5  UNL     1      16.851   2.679  16.086  1.00  0.00     0.026 C 
BRANCH  12  13
HETATM   13  C6  UNL     1      15.564   2.285  15.453  1.00  0.00     0.063 C 
BRANCH  13  14
HETATM   14  C7  UNL     1      15.647   1.811  14.072  1.00  0.00     0.060 A 
HETATM   15  C8  UNL     1      15.769   2.518  12.895  1.00  0.00     0.048 A 
HETATM   16  C9  UNL     1      15.807   1.639  11.833  1.00  0.00     0.112 A 
HETATM   17  N3  UNL     1      15.707   0.426  12.394  1.00  0.00    -0.286 N 
HETATM   18  N4  UNL     1      15.614   0.516  13.710  1.00  0.00    -0.168 N 
ATOM     19  H3  UNL     1      15.704  -0.451  11.875  1.00  0.00     0.188 HD
BRANCH  18  20
HETATM   20  O1  UNL     1      15.495  -0.573  14.577  1.00  0.00    -0.268 OA
ATOM     21  H1  UNL     1      14.971  -0.597  15.370  1.00  0.00     0.247 HD
ENDBRANCH  18  20
ENDBRANCH  13  14
ENDBRANCH  12  13
ENDBRANCH   1  12
TORSDOF 5
ENDMDL
MODEL 2
REMARK VINA RESULT: -7.492804841      2.764      4.172
REMARK  5 active torsions:
REMARK  status: ('A' for Active; 'I' for Inactive)
REMARK    1  A    between atoms: N2_7  and  C4_8 
REMARK    2  A    between atoms: C4_8  and  C5_9 
REMARK    3  A    between atoms: C5_9  and  C6_10 
REMARK    4  A    between atoms: C6_10  and  C7_11 
REMARK    5  A    between atoms: N4_16  and  O1_17 
ROOT
HETATM    1  C4  UNL     1      17.229   1.048  14.902  1.00  0.00     0.129 C 
ENDROOT
BRANCH   1   2
HETATM    2  N2  UNL     1      17.045   1.763  13.664  1.00  0.00    -0.353 N 
HETATM    3  C3  UNL     1      16.191   1.366  12.708  1.00  0.00     0.095 A 
HETATM    4  C2  UNL     1      16.044   2.078  11.538  1.00  0.00     0.065 A 
HETATM    5  C1  UNL     1      16.784   3.212  11.344  1.00  0.00     0.100 A 
HETATM    6  N1  UNL     1      16.667   3.900  10.254  1.00  0.00    -0.385 N 
HETATM    7  N5  UNL     1      17.627   3.576  12.323  1.00  0.00    -0.339 N 
ATOM      8  H12 UNL     1      16.026   3.622   9.511  1.00  0.00     0.157 HD
ATOM      9  H11 UNL     1      17.218   4.745  10.109  1.00  0.00     0.157 HD
HETATM   10  C10 UNL     1      17.762   2.876  13.457  1.00  0.00     0.184 A 
ATOM     11  H5  UNL     1      18.188   4.420  12.198  1.00  0.00     0.168 HD
ENDBRANCH   1   2
BRANCH   1  12
HETATM   12  C5  UNL     1      17.813   1.951  15.940  1.00  0.00     0.026 C 
BRANCH  12  13
HETATM   13  C6  UNL     1      16.881   2.303  17.044  1.00  0.00     0.063 C 
BRANCH  13  14
HETATM   14  C7  UNL     1      15.561   2.787  16.640  1.00  0.00     0.060 A 
HETATM   15  C8  UNL     1      15.211   3.874  15.867  1.00  0.00     0.048 A 
HETATM   16  C9  UNL     1      13.838   3.935  15.757  1.00  0.00     0.112 A 
HETATM   17  N3  UNL     1      13.394   2.887  16.464  1.00  0.00    -0.286 N 
HETATM   18  N4  UNL     1      14.399   2.206  16.986  1.00  0.00    -0.168 N 
ATOM     19  H3  UNL     1      12.411   2.647  16.584  1.00  0.00     0.188 HD
BRANCH  18  20
HETATM   20  O1  UNL     1      14.262   1.062  17.778  1.00  0.00    -0.268 OA
ATOM     21  H1  UNL     1      14.414   1.013  18.714  1.00  0.00     0.247 HD
ENDBRANCH  18  20
ENDBRANCH  13  14
ENDBRANCH  12  13
ENDBRANCH   1  12
TORSDOF 5
ENDMDL
MODEL 3
REMARK VINA RESULT: -7.483860407      2.797      6.238
REMARK  5 active torsions:
REMARK  status: ('A' for Active; 'I' for Inactive)
REMARK    1  A    between atoms: N2_7  and  C4_8 
REMARK    2  A    between atoms: C4_8  and  C5_9 
REMARK    3  A    between atoms: C5_9  and  C6_10 
REMARK    4  A    between atoms: C6_10  and  C7_11 
REMARK    5  A    between atoms: N4_16  and  O1_17 
ROOT
HETATM    1  C4  UNL     1      16.324   3.607  13.459  1.00  0.00     0.129 C 
ENDROOT
BRANCH   1   2
HETATM    2  N2  UNL     1      15.798   2.918  14.611  1.00  0.00    -0.353 N 
HETATM    3  C3  UNL     1      15.603   3.516  15.797  1.00  0.00     0.095 A 
HETATM    4  C2  UNL     1      15.098   2.823  16.875  1.00  0.00     0.065 A 
HETATM    5  C1  UNL     1      14.791   1.498  16.737  1.00  0.00     0.100 A 
HETATM    6  N1  UNL     1      14.316   0.822  17.733  1.00  0.00    -0.385 N 
HETATM    7  N5  UNL     1      15.000   0.935  15.536  1.00  0.00    -0.339 N 
ATOM      8  H12 UNL     1      14.158   1.250  18.645  1.00  0.00     0.157 HD
ATOM      9  H11 UNL     1      14.087  -0.167  17.630  1.00  0.00     0.157 HD
HETATM   10  C10 UNL     1      15.492   1.620  14.494  1.00  0.00     0.184 A 
ATOM     11  H5  UNL     1      14.776  -0.053  15.412  1.00  0.00     0.168 HD
ENDBRANCH   1   2
BRANCH   1  12
HETATM   12  C5  UNL     1      17.332   4.625  13.881  1.00  0.00     0.026 C 
BRANCH  12  13
HETATM   13  C6  UNL     1      18.746   4.192  13.727  1.00  0.00     0.063 C 
BRANCH  13  14
HETATM   14  C7  UNL     1      19.710   4.813  14.634  1.00  0.00     0.060 A 
HETATM   15  C8  UNL     1      20.319   4.310  15.765  1.00  0.00     0.048 A 
HETATM   16  C9  UNL     1      21.157   5.267  16.299  1.00  0.00     0.112 A 
HETATM   17  N3  UNL     1      21.034   6.320  15.480  1.00  0.00    -0.286 N 
HETATM   18  N4  UNL     1      20.186   6.063  14.498  1.00  0.00    -0.168 N 
ATOM     19  H3  UNL     1      21.528   7.204  15.598  1.00  0.00     0.188 HD
BRANCH  18  20
HETATM   20  O1  UNL     1      19.844   6.962  13.484  1.00  0.00    -0.268 OA
ATOM     21  H1  UNL     1      18.962   7.162  13.193  1.00  0.00     0.247 HD
ENDBRANCH  18  20
ENDBRANCH  13  14
ENDBRANCH  12  13
ENDBRANCH   1  12
TORSDOF 5
ENDMDL
MODEL 4
REMARK VINA RESULT: -7.443194851      2.923      6.398
REMARK  5 active torsions:
REMARK  status: ('A' for Active; 'I' for Inactive)
REMARK    1  A    between atoms: N2_7  and  C4_8 
REMARK    2  A    between atoms: C4_8  and  C5_9 
REMARK    3  A    between atoms: C5_9  and  C6_10 
REMARK    4  A    between atoms: C6_10  and  C7_11 
REMARK    5  A    between atoms: N4_16  and  O1_17 
ROOT
HETATM    1  C4  UNL     1      18.497   3.577  14.661  1.00  0.00     0.129 C 
ENDROOT
BRANCH   1   2
HETATM    2  N2  UNL     1      17.189   3.368  15.232  1.00  0.00    -0.353 N 
HETATM    3  C3  UNL     1      16.995   2.786  16.426  1.00  0.00     0.095 A 
HETATM    4  C2  UNL     1      15.729   2.605  16.937  1.00  0.00     0.065 A 
HETATM    5  C1  UNL     1      14.647   3.024  16.215  1.00  0.00     0.100 A 
HETATM    6  N1  UNL     1      13.446   2.866  16.671  1.00  0.00    -0.385 N 
HETATM    7  N5  UNL     1      14.881   3.602  15.026  1.00  0.00    -0.339 N 
ATOM      8  H12 UNL     1      13.268   2.428  17.574  1.00  0.00     0.157 HD
ATOM      9  H11 UNL     1      12.638   3.179  16.132  1.00  0.00     0.157 HD
HETATM   10  C10 UNL     1      16.118   3.773  14.538  1.00  0.00     0.184 A 
ATOM     11  H5  UNL     1      14.087   3.923  14.472  1.00  0.00     0.168 HD
ENDBRANCH   1   2
BRANCH   1  12
HETATM   12  C5  UNL     1      19.502   3.809  15.742  1.00  0.00     0.026 C 
BRANCH  12  13
HETATM   13  C6  UNL     1      20.748   4.482  15.289  1.00  0.00     0.063 C 
BRANCH  13  14
HETATM   14  C7  UNL     1      20.838   5.916  15.560  1.00  0.00     0.060 A 
HETATM   15  C8  UNL     1      21.367   6.585  16.644  1.00  0.00     0.048 A 
HETATM   16  C9  UNL     1      21.223   7.944  16.459  1.00  0.00     0.112 A 
HETATM   17  N3  UNL     1      20.613   8.061  15.272  1.00  0.00    -0.286 N 
HETATM   18  N4  UNL     1      20.383   6.875  14.735  1.00  0.00    -0.168 N 
ATOM     19  H3  UNL     1      20.360   8.949  14.839  1.00  0.00     0.188 HD
BRANCH  18  20
HETATM   20  O1  UNL     1      19.759   6.665  13.503  1.00  0.00    -0.268 OA
ATOM     21  H1  UNL     1      20.198   6.473  12.683  1.00  0.00     0.247 HD
ENDBRANCH  18  20
ENDBRANCH  13  14
ENDBRANCH  12  13
ENDBRANCH   1  12
TORSDOF 5
ENDMDL
MODEL 5
REMARK VINA RESULT: -7.431424803      1.875      2.994
REMARK  5 active torsions:
REMARK  status: ('A' for Active; 'I' for Inactive)
REMARK    1  A    between atoms: N2_7  and  C4_8 
REMARK    2  A    between atoms: C4_8  and  C5_9 
REMARK    3  A    between atoms: C5_9  and  C6_10 
REMARK    4  A    between atoms: C6_10  and  C7_11 
REMARK    5  A    between atoms: N4_16  and  O1_17 
ROOT
HETATM    1  C4  UNL     1      17.655   4.088  14.031  1.00  0.00     0.129 C 
ENDROOT
BRANCH   1   2
HETATM    2  N2  UNL     1      18.809   3.929  14.880  1.00  0.00    -0.353 N 
HETATM    3  C3  UNL     1      18.863   3.042  15.886  1.00  0.00     0.095 A 
HETATM    4  C2  UNL     1      19.985   2.921  16.675  1.00  0.00     0.065 A 
HETATM    5  C1  UNL     1      21.067   3.722  16.433  1.00  0.00     0.100 A 
HETATM    6  N1  UNL     1      22.134   3.630  17.159  1.00  0.00    -0.385 N 
HETATM    7  N5  UNL     1      20.974   4.597  15.419  1.00  0.00    -0.339 N 
ATOM      8  H12 UNL     1      22.203   2.965  17.929  1.00  0.00     0.157 HD
ATOM      9  H11 UNL     1      22.940   4.228  16.978  1.00  0.00     0.157 HD
HETATM   10  C10 UNL     1      19.877   4.706  14.657  1.00  0.00     0.184 A 
ATOM     11  H5  UNL     1      21.771   5.203  15.221  1.00  0.00     0.168 HD
ENDBRANCH   1   2
BRANCH   1  12
HETATM   12  C5  UNL     1      17.097   2.751  13.663  1.00  0.00     0.026 C 
BRANCH  12  13
HETATM   13  C6  UNL     1      15.647   2.589  13.950  1.00  0.00     0.063 C 
BRANCH  13  14
HETATM   14  C7  UNL     1      15.301   2.224  15.323  1.00  0.00     0.060 A 
HETATM   15  C8  UNL     1      15.086   3.021  16.428  1.00  0.00     0.048 A 
HETATM   16  C9  UNL     1      14.786   2.226  17.515  1.00  0.00     0.112 A 
HETATM   17  N3  UNL     1      14.828   0.974  17.041  1.00  0.00    -0.286 N 
HETATM   18  N4  UNL     1      15.129   0.962  15.753  1.00  0.00    -0.168 N 
ATOM     19  H3  UNL     1      14.651   0.140  17.599  1.00  0.00     0.188 HD
BRANCH  18  20
HETATM   20  O1  UNL     1      15.251  -0.192  14.974  1.00  0.00    -0.268 OA
ATOM     21  H1  UNL     1      14.546  -0.789  14.752  1.00  0.00     0.247 HD
ENDBRANCH  18  20
ENDBRANCH  13  14
ENDBRANCH  12  13
ENDBRANCH   1  12
TORSDOF 5
ENDMDL
