MODEL 1
REMARK VINA RESULT: -7.639661674      0.000      0.000
REMARK  4 active torsions:
REMARK  status: ('A' for Active; 'I' for Inactive)
REMARK    1  A    between atoms: N2_10  and  C8_12 
REMARK    2  A    between atoms: C8_12  and  C9_13 
REMARK    3  A    between atoms: C9_13  and  C10_14 
REMARK    4  A    between atoms: C10_14  and  N3_15 
ROOT
HETATM    1  C1  UNL     1      19.492   2.780  16.424  1.00  0.00     0.018 C 
HETATM    2  C2  UNL     1      18.283   2.674  16.475  1.00  0.00    -0.074 C 
HETATM    3  C3  UNL     1      16.849   2.538  16.559  1.00  0.00     0.060 A 
HETATM    4  C4  UNL     1      16.276   2.136  17.752  1.00  0.00     0.026 A 
HETATM    5  C5  UNL     1      14.918   2.014  17.810  1.00  0.00     0.019 A 
HETATM    6  C6  UNL     1      14.132   2.282  16.713  1.00  0.00     0.090 A 
HETATM    7  N1  UNL     1      14.741   2.669  15.579  1.00  0.00    -0.351 N 
ATOM      8  H1  UNL     1      14.152   2.866  14.770  1.00  0.00     0.166 HD
HETATM    9  C7  UNL     1      16.069   2.815  15.435  1.00  0.00     0.119 A 
HETATM   10  N2  UNL     1      16.672   3.176  14.387  1.00  0.00    -0.375 N 
ATOM     11  H2  UNL     1      17.688   3.231  14.463  1.00  0.00     0.161 HD
ENDROOT
BRANCH  10  12
HETATM   12  C8  UNL     1      16.136   3.515  13.120  1.00  0.00     0.123 C 
BRANCH  12  13
HETATM   13  C9  UNL     1      16.496   2.537  12.025  1.00  0.00     0.039 C 
BRANCH  13  14
HETATM   14  C10 UNL     1      15.834   1.197  12.361  1.00  0.00     0.123 C 
BRANCH  14  15
HETATM   15  N3  UNL     1      16.830   0.186  12.617  1.00  0.00    -0.367 N 
HETATM   16  C11 UNL     1      16.720  -0.561  13.642  1.00  0.00     0.196 C 
HETATM   17  N4  UNL     1      17.653  -1.585  13.974  1.00  0.00    -0.067 NA
HETATM   18  N5  UNL     1      15.625  -0.405  14.536  1.00  0.00    -0.067 NA
ATOM     19  H3  UNL     1      17.617   0.070  11.980  1.00  0.00     0.161 HD
ENDBRANCH  14  15
ENDBRANCH  13  14
ENDBRANCH  12  13
ENDBRANCH  10  12
TORSDOF 4
ENDMDL
MODEL 2
REMARK VINA RESULT: -7.321147299      0.981      2.644
REMARK  4 active torsions:
REMARK  status: ('A' for Active; 'I' for Inactive)
REMARK    1  A    between atoms: N2_10  and  C8_12 
REMARK    2  A    between atoms: C8_12  and  C9_13 
REMARK    3  A    between atoms: C9_13  and  C10_14 
REMARK    4  A    between atoms: C10_14  and  N3_15 
ROOT
HETATM    1  C1  UNL     1      14.628   1.660  17.653  1.00  0.00     0.018 C 
HETATM    2  C2  UNL     1      15.767   1.963  17.360  1.00  0.00    -0.074 C 
HETATM    3  C3  UNL     1      17.128   2.314  17.035  1.00  0.00     0.060 A 
HETATM    4  C4  UNL     1      18.146   1.942  17.894  1.00  0.00     0.026 A 
HETATM    5  C5  UNL     1      19.427   2.283  17.567  1.00  0.00     0.019 A 
HETATM    6  C6  UNL     1      19.705   2.980  16.414  1.00  0.00     0.090 A 
HETATM    7  N1  UNL     1      18.678   3.316  15.615  1.00  0.00    -0.351 N 
ATOM      8  H1  UNL     1      18.891   3.833  14.762  1.00  0.00     0.166 HD
HETATM    9  C7  UNL     1      17.390   3.020  15.860  1.00  0.00     0.119 A 
HETATM   10  N2  UNL     1      16.403   3.320  15.133  1.00  0.00    -0.375 N 
ATOM     11  H2  UNL     1      15.494   3.012  15.479  1.00  0.00     0.161 HD
ENDROOT
BRANCH  10  12
HETATM   12  C8  UNL     1      16.380   4.024  13.903  1.00  0.00     0.123 C 
BRANCH  12  13
HETATM   13  C9  UNL     1      16.538   3.136  12.691  1.00  0.00     0.039 C 
BRANCH  13  14
HETATM   14  C10 UNL     1      15.866   1.795  13.004  1.00  0.00     0.123 C 
BRANCH  14  15
HETATM   15  N3  UNL     1      16.845   0.739  13.079  1.00  0.00    -0.367 N 
HETATM   16  C11 UNL     1      16.624  -0.275  13.817  1.00  0.00     0.196 C 
HETATM   17  N4  UNL     1      17.531  -1.364  13.952  1.00  0.00    -0.067 NA
HETATM   18  N5  UNL     1      15.420  -0.372  14.568  1.00  0.00    -0.067 NA
ATOM     19  H3  UNL     1      17.710   0.804  12.544  1.00  0.00     0.161 HD
ENDBRANCH  14  15
ENDBRANCH  13  14
ENDBRANCH  12  13
ENDBRANCH  10  12
TORSDOF 4
ENDMDL
MODEL 3
REMARK VINA RESULT: -7.187712284      2.109      4.083
REMARK  4 active torsions:
REMARK  status: ('A' for Active; 'I' for Inactive)
REMARK    1  A    between atoms: N2_10  and  C8_12 
REMARK    2  A    between atoms: C8_12  and  C9_13 
REMARK    3  A    between atoms: C9_13  and  C10_14 
REMARK    4  A    between atoms: C10_14  and  N3_15 
ROOT
HETATM    1  C1  UNL     1      19.373   2.008  18.365  1.00  0.00     0.018 C 
HETATM    2  C2  UNL     1      19.323   2.533  17.270  1.00  0.00    -0.074 C 
HETATM    3  C3  UNL     1      19.280   3.176  15.979  1.00  0.00     0.060 A 
HETATM    4  C4  UNL     1      20.077   4.283  15.748  1.00  0.00     0.026 A 
HETATM    5  C5  UNL     1      20.021   4.876  14.519  1.00  0.00     0.019 A 
HETATM    6  C6  UNL     1      19.195   4.391  13.532  1.00  0.00     0.090 A 
HETATM    7  N1  UNL     1      18.442   3.312  13.811  1.00  0.00    -0.351 N 
ATOM      8  H1  UNL     1      17.832   2.958  13.075  1.00  0.00     0.166 HD
HETATM    9  C7  UNL     1      18.436   2.668  14.991  1.00  0.00     0.119 A 
HETATM   10  N2  UNL     1      17.743   1.655  15.286  1.00  0.00    -0.375 N 
ATOM     11  H2  UNL     1      17.869   1.299  16.233  1.00  0.00     0.161 HD
ENDROOT
BRANCH  10  12
HETATM   12  C8  UNL     1      16.816   0.944  14.485  1.00  0.00     0.123 C 
BRANCH  12  13
HETATM   13  C9  UNL     1      15.559   1.721  14.172  1.00  0.00     0.039 C 
BRANCH  13  14
HETATM   14  C10 UNL     1      15.008   2.267  15.493  1.00  0.00     0.123 C 
BRANCH  14  15
HETATM   15  N3  UNL     1      14.491   1.199  16.311  1.00  0.00    -0.367 N 
HETATM   16  C11 UNL     1      14.899   1.068  17.511  1.00  0.00     0.196 C 
HETATM   17  N4  UNL     1      14.445   0.045  18.391  1.00  0.00    -0.067 NA
HETATM   18  N5  UNL     1      15.862   1.967  18.047  1.00  0.00    -0.067 NA
ATOM     19  H3  UNL     1      13.801   0.551  15.932  1.00  0.00     0.161 HD
ENDBRANCH  14  15
ENDBRANCH  13  14
ENDBRANCH  12  13
ENDBRANCH  10  12
TORSDOF 4
ENDMDL
MODEL 4
REMARK VINA RESULT: -7.175483182      2.277      3.922
REMARK  4 active torsions:
REMARK  status: ('A' for Active; 'I' for Inactive)
REMARK    1  A    between atoms: N2_10  and  C8_12 
REMARK    2  A    between atoms: C8_12  and  C9_13 
REMARK    3  A    between atoms: C9_13  and  C10_14 
REMARK    4  A    between atoms: C10_14  and  N3_15 
ROOT
HETATM    1  C1  UNL     1      18.908   1.741  18.362  1.00  0.00     0.018 C 
HETATM    2  C2  UNL     1      18.996   2.370  17.327  1.00  0.00    -0.074 C 
HETATM    3  C3  UNL     1      19.122   3.130  16.107  1.00  0.00     0.060 A 
HETATM    4  C4  UNL     1      20.178   4.011  15.964  1.00  0.00     0.026 A 
HETATM    5  C5  UNL     1      20.278   4.720  14.802  1.00  0.00     0.019 A 
HETATM    6  C6  UNL     1      19.355   4.567  13.794  1.00  0.00     0.090 A 
HETATM    7  N1  UNL     1      18.348   3.697  13.985  1.00  0.00    -0.351 N 
ATOM      8  H1  UNL     1      17.666   3.589  13.234  1.00  0.00     0.166 HD
HETATM    9  C7  UNL     1      18.175   2.960  15.096  1.00  0.00     0.119 A 
HETATM   10  N2  UNL     1      17.243   2.136  15.308  1.00  0.00    -0.375 N 
ATOM     11  H2  UNL     1      17.271   1.665  16.213  1.00  0.00     0.161 HD
ENDROOT
BRANCH  10  12
HETATM   12  C8  UNL     1      16.163   1.773  14.466  1.00  0.00     0.123 C 
BRANCH  12  13
HETATM   13  C9  UNL     1      16.453   0.582  13.582  1.00  0.00     0.039 C 
BRANCH  13  14
HETATM   14  C10 UNL     1      15.907   0.894  12.186  1.00  0.00     0.123 C 
BRANCH  14  15
HETATM   15  N3  UNL     1      16.785   1.797  11.484  1.00  0.00    -0.367 N 
HETATM   16  C11 UNL     1      16.316   2.872  10.987  1.00  0.00     0.196 C 
HETATM   17  N4  UNL     1      17.106   3.823  10.280  1.00  0.00    -0.067 NA
HETATM   18  N5  UNL     1      14.935   3.186  11.117  1.00  0.00    -0.067 NA
ATOM     19  H3  UNL     1      17.775   1.577  11.387  1.00  0.00     0.161 HD
ENDBRANCH  14  15
ENDBRANCH  13  14
ENDBRANCH  12  13
ENDBRANCH  10  12
TORSDOF 4
ENDMDL
MODEL 5
REMARK VINA RESULT: -7.139823775      3.439      5.132
REMARK  4 active torsions:
REMARK  status: ('A' for Active; 'I' for Inactive)
REMARK    1  A    between atoms: N2_10  and  C8_12 
REMARK    2  A    between atoms: C8_12  and  C9_13 
REMARK    3  A    between atoms: C9_13  and  C10_14 
REMARK    4  A    between atoms: C10_14  and  N3_15 
ROOT
HETATM    1  C1  UNL     1      21.944   5.051  18.034  1.00  0.00     0.018 C 
HETATM    2  C2  UNL     1      21.443   4.103  18.607  1.00  0.00    -0.074 C 
HETATM    3  C3  UNL     1      20.866   2.980  19.305  1.00  0.00     0.060 A 
HETATM    4  C4  UNL     1      21.360   2.631  20.548  1.00  0.00     0.026 A 
HETATM    5  C5  UNL     1      20.799   1.565  21.191  1.00  0.00     0.019 A 
HETATM    6  C6  UNL     1      19.769   0.852  20.623  1.00  0.00     0.090 A 
HETATM    7  N1  UNL     1      19.328   1.236  19.412  1.00  0.00    -0.351 N 
ATOM      8  H1  UNL     1      18.565   0.703  18.997  1.00  0.00     0.166 HD
HETATM    9  C7  UNL     1      19.822   2.271  18.711  1.00  0.00     0.119 A 
HETATM   10  N2  UNL     1      19.431   2.657  17.575  1.00  0.00    -0.375 N 
ATOM     11  H2  UNL     1      19.925   3.464  17.193  1.00  0.00     0.161 HD
ENDROOT
BRANCH  10  12
HETATM   12  C8  UNL     1      18.404   2.127  16.755  1.00  0.00     0.123 C 
BRANCH  12  13
HETATM   13  C9  UNL     1      17.581   3.181  16.052  1.00  0.00     0.039 C 
BRANCH  13  14
HETATM   14  C10 UNL     1      16.114   2.955  16.428  1.00  0.00     0.123 C 
BRANCH  14  15
HETATM   15  N3  UNL     1      15.924   1.634  16.975  1.00  0.00    -0.367 N 
HETATM   16  C11 UNL     1      14.921   1.399  17.723  1.00  0.00     0.196 C 
HETATM   17  N4  UNL     1      14.653   0.128  18.306  1.00  0.00    -0.067 NA
HETATM   18  N5  UNL     1      13.987   2.429  18.024  1.00  0.00    -0.067 NA
ATOM     19  H3  UNL     1      16.591   0.892  16.764  1.00  0.00     0.161 HD
ENDBRANCH  14  15
ENDBRANCH  13  14
ENDBRANCH  12  13
ENDBRANCH  10  12
TORSDOF 4
ENDMDL
