MODEL 1
REMARK VINA RESULT: -8.188866580      0.000      0.000
REMARK  3 active torsions:
REMARK  status: ('A' for Active; 'I' for Inactive)
REMARK    1  A    between atoms: N1_5  and  C5_6 
REMARK    2  A    between atoms: C5_6  and  C6_7 
REMARK    3  A    between atoms: C6_7  and  N2_8 
ROOT
HETATM    1  C6  UNL     1      17.536   1.684  14.950  1.00  0.00     0.151 C 
ENDROOT
BRANCH   1   2
HETATM    2  C5  UNL     1      17.669   3.020  14.252  1.00  0.00     0.148 C 
BRANCH   2   3
HETATM    3  N1  UNL     1      18.757   3.799  14.780  1.00  0.00    -0.365 N 
HETATM    4  C4  UNL     1      19.435   3.298  15.840  1.00  0.00     0.091 A 
HETATM    5  C3  UNL     1      20.493   3.953  16.430  1.00  0.00     0.024 A 
HETATM    6  C2  UNL     1      20.876   5.164  15.923  1.00  0.00    -0.059 A 
HETATM    7  C1  UNL     1      22.018   5.883  16.551  1.00  0.00     0.048 C 
HETATM    8  C11 UNL     1      20.182   5.669  14.843  1.00  0.00     0.024 A 
HETATM    9  C10 UNL     1      19.125   4.993  14.271  1.00  0.00     0.091 A 
ENDBRANCH   2   3
ENDBRANCH   1   2
BRANCH   1  10
HETATM   10  N2  UNL     1      16.373   1.600  15.775  1.00  0.00    -0.327 N 
HETATM   11  C7  UNL     1      16.041   2.323  16.872  1.00  0.00     0.138 A 
HETATM   12  C8  UNL     1      14.830   1.913  17.358  1.00  0.00     0.134 A 
HETATM   13  N3  UNL     1      14.110   2.399  18.487  1.00  0.00    -0.081 NA
HETATM   14  N4  UNL     1      14.411   0.925  16.549  1.00  0.00    -0.318 N 
HETATM   15  C9  UNL     1      15.356   0.744  15.594  1.00  0.00     0.196 A 
ATOM     16  H4  UNL     1      13.538   0.404  16.637  1.00  0.00     0.169 HD
HETATM   17  N5  UNL     1      15.212  -0.237  14.575  1.00  0.00    -0.063 NA
ENDBRANCH   1  10
TORSDOF 3
ENDMDL
MODEL 2
REMARK VINA RESULT: -8.180066566      0.120      1.178
REMARK  3 active torsions:
REMARK  status: ('A' for Active; 'I' for Inactive)
REMARK    1  A    between atoms: N1_5  and  C5_6 
REMARK    2  A    between atoms: C5_6  and  C6_7 
REMARK    3  A    between atoms: C6_7  and  N2_8 
ROOT
HETATM    1  C6  UNL     1      17.557   1.639  14.962  1.00  0.00     0.151 C 
ENDROOT
BRANCH   1   2
HETATM    2  C5  UNL     1      17.765   3.005  14.348  1.00  0.00     0.148 C 
BRANCH   2   3
HETATM    3  N1  UNL     1      18.863   3.709  14.956  1.00  0.00    -0.365 N 
HETATM    4  C4  UNL     1      19.209   4.909  14.433  1.00  0.00     0.091 A 
HETATM    5  C3  UNL     1      20.242   5.674  14.931  1.00  0.00     0.024 A 
HETATM    6  C2  UNL     1      20.950   5.199  15.999  1.00  0.00    -0.059 A 
HETATM    7  C1  UNL     1      22.068   6.014  16.546  1.00  0.00     0.048 C 
HETATM    8  C11 UNL     1      20.592   3.975  16.527  1.00  0.00     0.024 A 
HETATM    9  C10 UNL     1      19.555   3.229  16.011  1.00  0.00     0.091 A 
ENDBRANCH   2   3
ENDBRANCH   1   2
BRANCH   1  10
HETATM   10  N2  UNL     1      16.391   1.569  15.783  1.00  0.00    -0.327 N 
HETATM   11  C7  UNL     1      16.072   2.284  16.889  1.00  0.00     0.138 A 
HETATM   12  C8  UNL     1      14.851   1.894  17.366  1.00  0.00     0.134 A 
HETATM   13  N3  UNL     1      14.139   2.380  18.501  1.00  0.00    -0.081 NA
HETATM   14  N4  UNL     1      14.412   0.926  16.543  1.00  0.00    -0.318 N 
HETATM   15  C9  UNL     1      15.356   0.738  15.588  1.00  0.00     0.196 A 
ATOM     16  H4  UNL     1      13.528   0.424  16.622  1.00  0.00     0.169 HD
HETATM   17  N5  UNL     1      15.193  -0.226  14.555  1.00  0.00    -0.063 NA
ENDBRANCH   1  10
TORSDOF 3
ENDMDL
MODEL 3
REMARK VINA RESULT: -7.363149014      1.070      1.178
REMARK  3 active torsions:
REMARK  status: ('A' for Active; 'I' for Inactive)
REMARK    1  A    between atoms: N1_5  and  C5_6 
REMARK    2  A    between atoms: C5_6  and  C6_7 
REMARK    3  A    between atoms: C6_7  and  N2_8 
ROOT
HETATM    1  C6  UNL     1      16.827   3.777  14.959  1.00  0.00     0.151 C 
ENDROOT
BRANCH   1   2
HETATM    2  C5  UNL     1      18.167   3.385  14.377  1.00  0.00     0.148 C 
BRANCH   2   3
HETATM    3  N1  UNL     1      19.261   4.015  15.068  1.00  0.00    -0.365 N 
HETATM    4  C4  UNL     1      19.780   3.375  16.143  1.00  0.00     0.091 A 
HETATM    5  C3  UNL     1      20.827   3.881  16.882  1.00  0.00     0.024 A 
HETATM    6  C2  UNL     1      21.366   5.082  16.514  1.00  0.00    -0.059 A 
HETATM    7  C1  UNL     1      22.497   5.640  17.303  1.00  0.00     0.048 C 
HETATM    8  C11 UNL     1      20.833   5.728  15.418  1.00  0.00     0.024 A 
HETATM    9  C10 UNL     1      19.785   5.202  14.695  1.00  0.00     0.091 A 
ENDBRANCH   2   3
ENDBRANCH   1   2
BRANCH   1  10
HETATM   10  N2  UNL     1      16.119   2.672  15.521  1.00  0.00    -0.327 N 
HETATM   11  C7  UNL     1      15.867   2.381  16.821  1.00  0.00     0.138 A 
HETATM   12  C8  UNL     1      15.150   1.220  16.913  1.00  0.00     0.134 A 
HETATM   13  N3  UNL     1      14.676   0.554  18.081  1.00  0.00    -0.081 NA
HETATM   14  N4  UNL     1      14.957   0.791  15.654  1.00  0.00    -0.318 N 
HETATM   15  C9  UNL     1      15.550   1.680  14.820  1.00  0.00     0.196 A 
ATOM     16  H4  UNL     1      14.454  -0.052  15.376  1.00  0.00     0.169 HD
HETATM   17  N5  UNL     1      15.525   1.512  13.408  1.00  0.00    -0.063 NA
ENDBRANCH   1  10
TORSDOF 3
ENDMDL
MODEL 4
REMARK VINA RESULT: -7.300527694      1.959      2.981
REMARK  3 active torsions:
REMARK  status: ('A' for Active; 'I' for Inactive)
REMARK    1  A    between atoms: N1_5  and  C5_6 
REMARK    2  A    between atoms: C5_6  and  C6_7 
REMARK    3  A    between atoms: C6_7  and  N2_8 
ROOT
HETATM    1  C6  UNL     1      17.349   4.064  14.050  1.00  0.00     0.151 C 
ENDROOT
BRANCH   1   2
HETATM    2  C5  UNL     1      18.821   4.140  13.709  1.00  0.00     0.148 C 
BRANCH   2   3
HETATM    3  N1  UNL     1      19.640   4.300  14.882  1.00  0.00    -0.365 N 
HETATM    4  C4  UNL     1      20.378   5.430  14.985  1.00  0.00     0.091 A 
HETATM    5  C3  UNL     1      21.199   5.694  16.059  1.00  0.00     0.024 A 
HETATM    6  C2  UNL     1      21.271   4.773  17.068  1.00  0.00    -0.059 A 
HETATM    7  C1  UNL     1      22.152   5.045  18.235  1.00  0.00     0.048 C 
HETATM    8  C11 UNL     1      20.515   3.624  16.957  1.00  0.00     0.024 A 
HETATM    9  C10 UNL     1      19.702   3.384  15.870  1.00  0.00     0.091 A 
ENDBRANCH   2   3
ENDBRANCH   1   2
BRANCH   1  10
HETATM   10  N2  UNL     1      16.784   2.777  13.798  1.00  0.00    -0.327 N 
HETATM   11  C7  UNL     1      16.294   1.865  14.672  1.00  0.00     0.138 A 
HETATM   12  C8  UNL     1      15.847   0.761  14.000  1.00  0.00     0.134 A 
HETATM   13  N3  UNL     1      15.260  -0.427  14.525  1.00  0.00    -0.081 NA
HETATM   14  N4  UNL     1      16.064   0.997  12.694  1.00  0.00    -0.318 N 
HETATM   15  C9  UNL     1      16.633   2.222  12.586  1.00  0.00     0.196 A 
ATOM     16  H4  UNL     1      15.840   0.367  11.924  1.00  0.00     0.169 HD
HETATM   17  N5  UNL     1      16.990   2.772  11.324  1.00  0.00    -0.063 NA
ENDBRANCH   1  10
TORSDOF 3
ENDMDL
MODEL 5
REMARK VINA RESULT: -7.290894685      1.963      2.798
REMARK  3 active torsions:
REMARK  status: ('A' for Active; 'I' for Inactive)
REMARK    1  A    between atoms: N1_5  and  C5_6 
REMARK    2  A    between atoms: C5_6  and  C6_7 
REMARK    3  A    between atoms: C6_7  and  N2_8 
ROOT
HETATM    1  C6  UNL     1      17.390   4.076  14.053  1.00  0.00     0.151 C 
ENDROOT
BRANCH   1   2
HETATM    2  C5  UNL     1      18.857   4.141  13.688  1.00  0.00     0.148 C 
BRANCH   2   3
HETATM    3  N1  UNL     1      19.688   4.394  14.836  1.00  0.00    -0.365 N 
HETATM    4  C4  UNL     1      19.736   3.444  15.800  1.00  0.00     0.091 A 
HETATM    5  C3  UNL     1      20.495   3.574  16.942  1.00  0.00     0.024 A 
HETATM    6  C2  UNL     1      21.232   4.713  17.110  1.00  0.00    -0.059 A 
HETATM    7  C1  UNL     1      22.056   4.867  18.339  1.00  0.00     0.048 C 
HETATM    8  C11 UNL     1      21.179   5.676  16.123  1.00  0.00     0.024 A 
HETATM    9  C10 UNL     1      20.411   5.522  14.989  1.00  0.00     0.091 A 
ENDBRANCH   2   3
ENDBRANCH   1   2
BRANCH   1  10
HETATM   10  N2  UNL     1      16.809   2.797  13.796  1.00  0.00    -0.327 N 
HETATM   11  C7  UNL     1      16.319   1.882  14.668  1.00  0.00     0.138 A 
HETATM   12  C8  UNL     1      15.852   0.789  13.992  1.00  0.00     0.134 A 
HETATM   13  N3  UNL     1      15.259  -0.397  14.513  1.00  0.00    -0.081 NA
HETATM   14  N4  UNL     1      16.057   1.033  12.686  1.00  0.00    -0.318 N 
HETATM   15  C9  UNL     1      16.638   2.254  12.581  1.00  0.00     0.196 A 
ATOM     16  H4  UNL     1      15.818   0.413  11.913  1.00  0.00     0.169 HD
HETATM   17  N5  UNL     1      16.986   2.810  11.320  1.00  0.00    -0.063 NA
ENDBRANCH   1  10
TORSDOF 3
ENDMDL
