MODEL 1
REMARK VINA RESULT: -6.931795345      0.000      0.000
REMARK  6 active torsions:
REMARK  status: ('A' for Active; 'I' for Inactive)
REMARK    1  A    between atoms: N1_1  and  C1_4 
REMARK    2  A    between atoms: N4_10  and  C3_11 
REMARK    3  A    between atoms: C3_11  and  C4_12 
REMARK    4  A    between atoms: C4_12  and  O1_13 
REMARK    5  A    between atoms: O1_13  and  C5_14 
REMARK    6  A    between atoms: C5_14  and  C6_15 
ROOT
HETATM    1  C1  UNL     1      14.480   2.041  16.487  1.00  0.00     0.693 A 
HETATM    2  N2  UNL     1      13.434   2.914  16.426  1.00  0.00    -0.131 N 
ATOM      3  H2  UNL     1      12.521   2.798  16.866  1.00  0.00     0.205 HD
HETATM    4  N3  UNL     1      13.824   3.936  15.692  1.00  0.00    -0.281 N 
ATOM      5  H3  UNL     1      13.258   4.753  15.465  1.00  0.00     0.188 HD
HETATM    6  C2  UNL     1      15.087   3.726  15.290  1.00  0.00     0.218 A 
HETATM    7  N4  UNL     1      15.522   2.533  15.782  1.00  0.00    -0.175 N 
ENDROOT
BRANCH   7   8
HETATM    8  C3  UNL     1      16.808   1.889  15.615  1.00  0.00     0.174 C 
BRANCH   8   9
HETATM    9  C4  UNL     1      17.103   1.805  14.144  1.00  0.00     0.189 C 
BRANCH   9  10
HETATM   10  O1  UNL     1      18.218   2.450  13.718  1.00  0.00    -0.383 OA
BRANCH  10  11
HETATM   11  C5  UNL     1      18.139   3.785  13.463  1.00  0.00     0.232 C 
BRANCH  11  12
HETATM   12  C6  UNL     1      19.153   4.587  14.228  1.00  0.00     0.076 A 
HETATM   13  C7  UNL     1      19.825   4.109  15.327  1.00  0.00     0.035 A 
HETATM   14  C8  UNL     1      20.751   4.865  16.013  1.00  0.00     0.004 A 
HETATM   15  C9  UNL     1      21.013   6.143  15.579  1.00  0.00     0.025 A 
HETATM   16  C10 UNL     1      20.303   6.564  14.466  1.00  0.00     0.142 A 
HETATM   17  O2  UNL     1      19.432   5.819  13.842  1.00  0.00    -0.325 OA
ENDBRANCH  11  12
ENDBRANCH  10  11
ENDBRANCH   9  10
ENDBRANCH   8   9
ENDBRANCH   7   8
BRANCH   1  18
HETATM   18  N1  UNL     1      14.462   0.919  17.125  1.00  0.00    -0.233 N 
ATOM     19  H12 UNL     1      14.668   0.793  18.115  1.00  0.00     0.174 HD
ATOM     20  H11 UNL     1      14.239   0.017  16.704  1.00  0.00     0.174 HD
ENDBRANCH   1  18
TORSDOF 6
ENDMDL
MODEL 2
REMARK VINA RESULT: -6.912393585      2.048      3.841
REMARK  6 active torsions:
REMARK  status: ('A' for Active; 'I' for Inactive)
REMARK    1  A    between atoms: N1_1  and  C1_4 
REMARK    2  A    between atoms: N4_10  and  C3_11 
REMARK    3  A    between atoms: C3_11  and  C4_12 
REMARK    4  A    between atoms: C4_12  and  O1_13 
REMARK    5  A    between atoms: O1_13  and  C5_14 
REMARK    6  A    between atoms: C5_14  and  C6_15 
ROOT
HETATM    1  C1  UNL     1      14.502   2.003  16.922  1.00  0.00     0.693 A 
HETATM    2  N2  UNL     1      13.479   2.775  16.455  1.00  0.00    -0.131 N 
ATOM      3  H2  UNL     1      12.482   2.585  16.554  1.00  0.00     0.205 HD
HETATM    4  N3  UNL     1      14.022   3.812  15.850  1.00  0.00    -0.281 N 
ATOM      5  H3  UNL     1      13.509   4.570  15.398  1.00  0.00     0.188 HD
HETATM    6  C2  UNL     1      15.357   3.711  15.924  1.00  0.00     0.218 A 
HETATM    7  N4  UNL     1      15.683   2.573  16.599  1.00  0.00    -0.175 N 
ENDROOT
BRANCH   7   8
HETATM    8  C3  UNL     1      16.993   2.047  16.923  1.00  0.00     0.174 C 
BRANCH   8   9
HETATM    9  C4  UNL     1      18.024   3.031  16.451  1.00  0.00     0.189 C 
BRANCH   9  10
HETATM   10  O1  UNL     1      18.665   2.721  15.296  1.00  0.00    -0.383 OA
BRANCH  10  11
HETATM   11  C5  UNL     1      18.367   3.434  14.175  1.00  0.00     0.232 C 
BRANCH  11  12
HETATM   12  C6  UNL     1      17.406   2.721  13.268  1.00  0.00     0.076 A 
HETATM   13  C7  UNL     1      16.742   3.335  12.233  1.00  0.00     0.035 A 
HETATM   14  C8  UNL     1      15.865   2.659  11.414  1.00  0.00     0.004 A 
HETATM   15  C9  UNL     1      15.646   1.321  11.640  1.00  0.00     0.025 A 
HETATM   16  C10 UNL     1      16.346   0.761  12.697  1.00  0.00     0.142 A 
HETATM   17  O2  UNL     1      17.170   1.435  13.453  1.00  0.00    -0.325 OA
ENDBRANCH  11  12
ENDBRANCH  10  11
ENDBRANCH   9  10
ENDBRANCH   8   9
ENDBRANCH   7   8
BRANCH   1  18
HETATM   18  N1  UNL     1      14.350   0.898  17.570  1.00  0.00    -0.233 N 
ATOM     19  H12 UNL     1      13.964   0.807  18.510  1.00  0.00     0.174 HD
ATOM     20  H11 UNL     1      14.603  -0.023  17.213  1.00  0.00     0.174 HD
ENDBRANCH   1  18
TORSDOF 6
ENDMDL
MODEL 3
REMARK VINA RESULT: -6.874163635      1.232      1.556
REMARK  6 active torsions:
REMARK  status: ('A' for Active; 'I' for Inactive)
REMARK    1  A    between atoms: N1_1  and  C1_4 
REMARK    2  A    between atoms: N4_10  and  C3_11 
REMARK    3  A    between atoms: C3_11  and  C4_12 
REMARK    4  A    between atoms: C4_12  and  O1_13 
REMARK    5  A    between atoms: O1_13  and  C5_14 
REMARK    6  A    between atoms: C5_14  and  C6_15 
ROOT
HETATM    1  C1  UNL     1      15.145   1.343  15.427  1.00  0.00     0.693 A 
HETATM    2  N2  UNL     1      14.004   1.373  16.173  1.00  0.00    -0.131 N 
ATOM      3  H2  UNL     1      13.439   0.570  16.450  1.00  0.00     0.205 HD
HETATM    4  N3  UNL     1      13.768   2.635  16.470  1.00  0.00    -0.281 N 
ATOM      5  H3  UNL     1      12.981   2.977  17.021  1.00  0.00     0.188 HD
HETATM    6  C2  UNL     1      14.730   3.397  15.929  1.00  0.00     0.218 A 
HETATM    7  N4  UNL     1      15.613   2.599  15.264  1.00  0.00    -0.175 N 
ENDROOT
BRANCH   7   8
HETATM    8  C3  UNL     1      16.805   2.969  14.530  1.00  0.00     0.174 C 
BRANCH   8   9
HETATM    9  C4  UNL     1      16.778   4.455  14.310  1.00  0.00     0.189 C 
BRANCH   9  10
HETATM   10  O1  UNL     1      17.811   4.975  13.601  1.00  0.00    -0.383 OA
BRANCH  10  11
HETATM   11  C5  UNL     1      19.035   4.390  13.713  1.00  0.00     0.232 C 
BRANCH  11  12
HETATM   12  C6  UNL     1      19.920   5.076  14.715  1.00  0.00     0.076 A 
HETATM   13  C7  UNL     1      20.512   4.428  15.772  1.00  0.00     0.035 A 
HETATM   14  C8  UNL     1      21.320   5.080  16.678  1.00  0.00     0.004 A 
HETATM   15  C9  UNL     1      21.542   6.426  16.518  1.00  0.00     0.025 A 
HETATM   16  C10 UNL     1      20.917   7.020  15.433  1.00  0.00     0.142 A 
HETATM   17  O2  UNL     1      20.157   6.369  14.595  1.00  0.00    -0.325 OA
ENDBRANCH  11  12
ENDBRANCH  10  11
ENDBRANCH   9  10
ENDBRANCH   8   9
ENDBRANCH   7   8
BRANCH   1  18
HETATM   18  N1  UNL     1      15.684   0.270  14.955  1.00  0.00    -0.233 N 
ATOM     19  H12 UNL     1      15.358  -0.682  15.117  1.00  0.00     0.174 HD
ATOM     20  H11 UNL     1      16.512   0.251  14.359  1.00  0.00     0.174 HD
ENDBRANCH   1  18
TORSDOF 6
ENDMDL
MODEL 4
REMARK VINA RESULT: -6.833116136      0.788      1.224
REMARK  6 active torsions:
REMARK  status: ('A' for Active; 'I' for Inactive)
REMARK    1  A    between atoms: N1_1  and  C1_4 
REMARK    2  A    between atoms: N4_10  and  C3_11 
REMARK    3  A    between atoms: C3_11  and  C4_12 
REMARK    4  A    between atoms: C4_12  and  O1_13 
REMARK    5  A    between atoms: O1_13  and  C5_14 
REMARK    6  A    between atoms: C5_14  and  C6_15 
ROOT
HETATM    1  C1  UNL     1      14.480   2.045  16.463  1.00  0.00     0.693 A 
HETATM    2  N2  UNL     1      13.420   2.902  16.406  1.00  0.00    -0.131 N 
ATOM      3  H2  UNL     1      12.510   2.770  16.845  1.00  0.00     0.205 HD
HETATM    4  N3  UNL     1      13.794   3.933  15.675  1.00  0.00    -0.281 N 
ATOM      5  H3  UNL     1      13.215   4.742  15.452  1.00  0.00     0.188 HD
HETATM    6  C2  UNL     1      15.059   3.745  15.272  1.00  0.00     0.218 A 
HETATM    7  N4  UNL     1      15.514   2.556  15.760  1.00  0.00    -0.175 N 
ENDROOT
BRANCH   7   8
HETATM    8  C3  UNL     1      16.810   1.934  15.589  1.00  0.00     0.174 C 
BRANCH   8   9
HETATM    9  C4  UNL     1      17.141   1.933  14.124  1.00  0.00     0.189 C 
BRANCH   9  10
HETATM   10  O1  UNL     1      18.266   2.598  13.762  1.00  0.00    -0.383 OA
BRANCH  10  11
HETATM   11  C5  UNL     1      18.245   3.959  13.767  1.00  0.00     0.232 C 
BRANCH  11  12
HETATM   12  C6  UNL     1      19.323   4.557  14.626  1.00  0.00     0.076 A 
HETATM   13  C7  UNL     1      19.795   5.838  14.469  1.00  0.00     0.035 A 
HETATM   14  C8  UNL     1      20.786   6.363  15.270  1.00  0.00     0.004 A 
HETATM   15  C9  UNL     1      21.320   5.577  16.262  1.00  0.00     0.025 A 
HETATM   16  C10 UNL     1      20.801   4.296  16.369  1.00  0.00     0.142 A 
HETATM   17  O2  UNL     1      19.861   3.833  15.591  1.00  0.00    -0.325 OA
ENDBRANCH  11  12
ENDBRANCH  10  11
ENDBRANCH   9  10
ENDBRANCH   8   9
ENDBRANCH   7   8
BRANCH   1  18
HETATM   18  N1  UNL     1      14.480   0.921  17.096  1.00  0.00    -0.233 N 
ATOM     19  H12 UNL     1      13.654   0.392  17.373  1.00  0.00     0.174 HD
ATOM     20  H11 UNL     1      15.320   0.425  17.396  1.00  0.00     0.174 HD
ENDBRANCH   1  18
TORSDOF 6
ENDMDL
MODEL 5
REMARK VINA RESULT: -6.829288451      2.705      3.715
REMARK  6 active torsions:
REMARK  status: ('A' for Active; 'I' for Inactive)
REMARK    1  A    between atoms: N1_1  and  C1_4 
REMARK    2  A    between atoms: N4_10  and  C3_11 
REMARK    3  A    between atoms: C3_11  and  C4_12 
REMARK    4  A    between atoms: C4_12  and  O1_13 
REMARK    5  A    between atoms: O1_13  and  C5_14 
REMARK    6  A    between atoms: C5_14  and  C6_15 
ROOT
HETATM    1  C1  UNL     1      14.484   2.164  16.846  1.00  0.00     0.693 A 
HETATM    2  N2  UNL     1      13.420   2.817  16.296  1.00  0.00    -0.131 N 
ATOM      3  H2  UNL     1      12.438   2.559  16.386  1.00  0.00     0.205 HD
HETATM    4  N3  UNL     1      13.900   3.846  15.627  1.00  0.00    -0.281 N 
ATOM      5  H3  UNL     1      13.346   4.526  15.107  1.00  0.00     0.188 HD
HETATM    6  C2  UNL     1      15.237   3.854  15.741  1.00  0.00     0.218 A 
HETATM    7  N4  UNL     1      15.628   2.798  16.508  1.00  0.00    -0.175 N 
ENDROOT
BRANCH   7   8
HETATM    8  C3  UNL     1      16.963   2.401  16.904  1.00  0.00     0.174 C 
BRANCH   8   9
HETATM    9  C4  UNL     1      17.551   1.568  15.800  1.00  0.00     0.189 C 
BRANCH   9  10
HETATM   10  O1  UNL     1      16.758   0.587  15.302  1.00  0.00    -0.383 OA
BRANCH  10  11
HETATM   11  C5  UNL     1      16.863   0.273  13.982  1.00  0.00     0.232 C 
BRANCH  11  12
HETATM   12  C6  UNL     1      16.615   1.449  13.081  1.00  0.00     0.076 A 
HETATM   13  C7  UNL     1      15.572   1.514  12.188  1.00  0.00     0.035 A 
HETATM   14  C8  UNL     1      15.367   2.604  11.371  1.00  0.00     0.004 A 
HETATM   15  C9  UNL     1      16.235   3.666  11.453  1.00  0.00     0.025 A 
HETATM   16  C10 UNL     1      17.264   3.539  12.373  1.00  0.00     0.142 A 
HETATM   17  O2  UNL     1      17.428   2.489  13.130  1.00  0.00    -0.325 OA
ENDBRANCH  11  12
ENDBRANCH  10  11
ENDBRANCH   9  10
ENDBRANCH   8   9
ENDBRANCH   7   8
BRANCH   1  18
HETATM   18  N1  UNL     1      14.396   1.102  17.573  1.00  0.00    -0.233 N 
ATOM     19  H12 UNL     1      15.061   0.329  17.583  1.00  0.00     0.174 HD
ATOM     20  H11 UNL     1      13.639   0.911  18.230  1.00  0.00     0.174 HD
ENDBRANCH   1  18
TORSDOF 6
ENDMDL
