MODEL 1
REMARK VINA RESULT: -7.228915905      0.000      0.000
REMARK  4 active torsions:
REMARK  status: ('A' for Active; 'I' for Inactive)
REMARK    1  A    between atoms: C1_4  and  C2_5 
REMARK    2  A    between atoms: C1_4  and  C6_12 
REMARK    3  A    between atoms: C2_5  and  N2_6 
REMARK    4  A    between atoms: C6_12  and  N4_13 
ROOT
HETATM    1  N1  UNL     1      18.607   3.589  12.353  1.00  0.00    -0.403 N 
ATOM      2  H11 UNL     1      18.263   3.041  11.565  1.00  0.00     0.155 HD
ATOM      3  H12 UNL     1      19.619   3.690  12.437  1.00  0.00     0.155 HD
HETATM    4  C1  UNL     1      17.863   4.137  13.208  1.00  0.00     0.017 C 
ENDROOT
BRANCH   4   5
HETATM    5  C2  UNL     1      18.364   4.938  14.358  1.00  0.00     0.182 C 
BRANCH   5   6
HETATM    6  N2  UNL     1      19.214   4.157  15.234  1.00  0.00    -0.346 N 
HETATM    7  C3  UNL     1      20.465   4.428  15.645  1.00  0.00     0.109 A 
HETATM    8  C4  UNL     1      20.904   3.436  16.463  1.00  0.00     0.106 A 
HETATM    9  N3  UNL     1      19.903   2.535  16.557  1.00  0.00    -0.361 N 
HETATM   10  C5  UNL     1      18.895   2.977  15.817  1.00  0.00     0.182 A 
ATOM     11  H3  UNL     1      19.920   1.671  17.098  1.00  0.00     0.166 HD
ENDBRANCH   5   6
ENDBRANCH   4   5
BRANCH   4  12
HETATM   12  C6  UNL     1      16.387   3.991  13.087  1.00  0.00     0.181 C 
BRANCH  12  13
HETATM   13  N4  UNL     1      15.860   3.095  14.118  1.00  0.00    -0.359 N 
HETATM   14  C7  UNL     1      15.346   3.544  15.268  1.00  0.00     0.091 A 
HETATM   15  C8  UNL     1      14.847   2.709  16.246  1.00  0.00     0.019 A 
HETATM   16  C9  UNL     1      14.866   1.344  16.060  1.00  0.00     0.029 A 
HETATM   17  C10 UNL     1      15.396   0.870  14.875  1.00  0.00     0.061 A 
HETATM   18  N5  UNL     1      15.429  -0.528  14.652  1.00  0.00    -0.101 NA
HETATM   19  C11 UNL     1      15.880   1.764  13.933  1.00  0.00     0.117 A 
ENDBRANCH  12  13
ENDBRANCH   4  12
TORSDOF 4
ENDMDL
MODEL 2
REMARK VINA RESULT: -7.050749752      2.237      3.961
REMARK  4 active torsions:
REMARK  status: ('A' for Active; 'I' for Inactive)
REMARK    1  A    between atoms: C1_4  and  C2_5 
REMARK    2  A    between atoms: C1_4  and  C6_12 
REMARK    3  A    between atoms: C2_5  and  N2_6 
REMARK    4  A    between atoms: C6_12  and  N4_13 
ROOT
HETATM    1  N1  UNL     1      17.657   4.020  12.693  1.00  0.00    -0.403 N 
ATOM      2  H11 UNL     1      18.341   4.712  13.000  1.00  0.00     0.155 HD
ATOM      3  H12 UNL     1      17.864   3.521  11.828  1.00  0.00     0.155 HD
HETATM    4  C1  UNL     1      16.595   3.756  13.314  1.00  0.00     0.017 C 
ENDROOT
BRANCH   4   5
HETATM    5  C2  UNL     1      15.597   2.746  12.868  1.00  0.00     0.182 C 
BRANCH   5   6
HETATM    6  N2  UNL     1      16.186   1.431  12.717  1.00  0.00    -0.346 N 
HETATM    7  C3  UNL     1      16.627   0.597  13.674  1.00  0.00     0.109 A 
HETATM    8  C4  UNL     1      17.107  -0.541  13.106  1.00  0.00     0.106 A 
HETATM    9  N3  UNL     1      16.959  -0.403  11.771  1.00  0.00    -0.361 N 
HETATM   10  C5  UNL     1      16.405   0.781  11.548  1.00  0.00     0.182 A 
ATOM     11  H3  UNL     1      17.225  -1.087  11.063  1.00  0.00     0.166 HD
ENDBRANCH   5   6
ENDBRANCH   4   5
BRANCH   4  12
HETATM   12  C6  UNL     1      16.291   4.484  14.576  1.00  0.00     0.181 C 
BRANCH  12  13
HETATM   13  N4  UNL     1      16.290   3.574  15.723  1.00  0.00    -0.359 N 
HETATM   14  C7  UNL     1      17.388   2.925  16.129  1.00  0.00     0.091 A 
HETATM   15  C8  UNL     1      17.397   2.066  17.207  1.00  0.00     0.019 A 
HETATM   16  C9  UNL     1      16.239   1.842  17.919  1.00  0.00     0.029 A 
HETATM   17  C10 UNL     1      15.100   2.507  17.507  1.00  0.00     0.061 A 
HETATM   18  N5  UNL     1      13.893   2.300  18.219  1.00  0.00    -0.101 NA
HETATM   19  C11 UNL     1      15.159   3.359  16.415  1.00  0.00     0.117 A 
ENDBRANCH  12  13
ENDBRANCH   4  12
TORSDOF 4
ENDMDL
MODEL 3
REMARK VINA RESULT: -7.020774809      1.116      1.561
REMARK  4 active torsions:
REMARK  status: ('A' for Active; 'I' for Inactive)
REMARK    1  A    between atoms: C1_4  and  C2_5 
REMARK    2  A    between atoms: C1_4  and  C6_12 
REMARK    3  A    between atoms: C2_5  and  N2_6 
REMARK    4  A    between atoms: C6_12  and  N4_13 
ROOT
HETATM    1  N1  UNL     1      18.611   3.738  12.319  1.00  0.00    -0.403 N 
ATOM      2  H11 UNL     1      18.074   3.931  11.474  1.00  0.00     0.155 HD
ATOM      3  H12 UNL     1      19.592   3.488  12.193  1.00  0.00     0.155 HD
HETATM    4  C1  UNL     1      18.137   3.791  13.483  1.00  0.00     0.017 C 
ENDROOT
BRANCH   4   5
HETATM    5  C2  UNL     1      18.920   3.510  14.717  1.00  0.00     0.182 C 
BRANCH   5   6
HETATM    6  N2  UNL     1      19.819   4.597  15.049  1.00  0.00    -0.346 N 
HETATM    7  C3  UNL     1      19.808   5.861  14.593  1.00  0.00     0.109 A 
HETATM    8  C4  UNL     1      20.826   6.562  15.158  1.00  0.00     0.106 A 
HETATM    9  N3  UNL     1      21.478   5.711  15.978  1.00  0.00    -0.361 N 
HETATM   10  C5  UNL     1      20.867   4.537  15.907  1.00  0.00     0.182 A 
ATOM     11  H3  UNL     1      22.293   5.932  16.549  1.00  0.00     0.166 HD
ENDBRANCH   5   6
ENDBRANCH   4   5
BRANCH   4  12
HETATM   12  C6  UNL     1      16.706   4.156  13.668  1.00  0.00     0.181 C 
BRANCH  12  13
HETATM   13  N4  UNL     1      16.033   3.212  14.564  1.00  0.00    -0.359 N 
HETATM   14  C7  UNL     1      15.482   3.587  15.723  1.00  0.00     0.091 A 
HETATM   15  C8  UNL     1      14.847   2.707  16.574  1.00  0.00     0.019 A 
HETATM   16  C9  UNL     1      14.760   1.373  16.242  1.00  0.00     0.029 A 
HETATM   17  C10 UNL     1      15.327   0.975  15.046  1.00  0.00     0.061 A 
HETATM   18  N5  UNL     1      15.253  -0.390  14.675  1.00  0.00    -0.101 NA
HETATM   19  C11 UNL     1      15.950   1.912  14.237  1.00  0.00     0.117 A 
ENDBRANCH  12  13
ENDBRANCH   4  12
TORSDOF 4
ENDMDL
MODEL 4
REMARK VINA RESULT: -6.808074622      2.711      4.389
REMARK  4 active torsions:
REMARK  status: ('A' for Active; 'I' for Inactive)
REMARK    1  A    between atoms: C1_4  and  C2_5 
REMARK    2  A    between atoms: C1_4  and  C6_12 
REMARK    3  A    between atoms: C2_5  and  N2_6 
REMARK    4  A    between atoms: C6_12  and  N4_13 
ROOT
HETATM    1  N1  UNL     1      17.490  -0.610  13.641  1.00  0.00    -0.403 N 
ATOM      2  H11 UNL     1      18.288  -0.812  14.243  1.00  0.00     0.155 HD
ATOM      3  H12 UNL     1      17.164  -1.368  13.040  1.00  0.00     0.155 HD
HETATM    4  C1  UNL     1      16.898   0.500  13.604  1.00  0.00     0.017 C 
ENDROOT
BRANCH   4   5
HETATM    5  C2  UNL     1      15.733   0.794  12.726  1.00  0.00     0.182 C 
BRANCH   5   6
HETATM    6  N2  UNL     1      15.960   1.961  11.896  1.00  0.00    -0.346 N 
HETATM    7  C3  UNL     1      15.153   3.016  11.697  1.00  0.00     0.109 A 
HETATM    8  C4  UNL     1      15.744   3.893  10.844  1.00  0.00     0.106 A 
HETATM    9  N3  UNL     1      16.940   3.365  10.509  1.00  0.00    -0.361 N 
HETATM   10  C5  UNL     1      17.061   2.207  11.145  1.00  0.00     0.182 A 
ATOM     11  H3  UNL     1      17.627   3.781   9.881  1.00  0.00     0.166 HD
ENDBRANCH   5   6
ENDBRANCH   4   5
BRANCH   4  12
HETATM   12  C6  UNL     1      17.372   1.605  14.480  1.00  0.00     0.181 C 
BRANCH  12  13
HETATM   13  N4  UNL     1      16.353   1.970  15.466  1.00  0.00    -0.359 N 
HETATM   14  C7  UNL     1      15.809   3.191  15.521  1.00  0.00     0.091 A 
HETATM   15  C8  UNL     1      14.849   3.545  16.446  1.00  0.00     0.019 A 
HETATM   16  C9  UNL     1      14.409   2.622  17.369  1.00  0.00     0.029 A 
HETATM   17  C10 UNL     1      14.966   1.358  17.320  1.00  0.00     0.061 A 
HETATM   18  N5  UNL     1      14.535   0.384  18.255  1.00  0.00    -0.101 NA
HETATM   19  C11 UNL     1      15.927   1.067  16.365  1.00  0.00     0.117 A 
ENDBRANCH  12  13
ENDBRANCH   4  12
TORSDOF 4
ENDMDL
MODEL 5
REMARK VINA RESULT: -6.806431893      1.172      4.565
REMARK  4 active torsions:
REMARK  status: ('A' for Active; 'I' for Inactive)
REMARK    1  A    between atoms: C1_4  and  C2_5 
REMARK    2  A    between atoms: C1_4  and  C6_12 
REMARK    3  A    between atoms: C2_5  and  N2_6 
REMARK    4  A    between atoms: C6_12  and  N4_13 
ROOT
HETATM    1  N1  UNL     1      17.904   3.545  11.834  1.00  0.00    -0.403 N 
ATOM      2  H11 UNL     1      18.759   4.100  11.842  1.00  0.00     0.155 HD
ATOM      3  H12 UNL     1      17.821   2.839  11.101  1.00  0.00     0.155 HD
HETATM    4  C1  UNL     1      16.967   3.681  12.663  1.00  0.00     0.017 C 
ENDROOT
BRANCH   4   5
HETATM    5  C2  UNL     1      15.719   2.871  12.652  1.00  0.00     0.182 C 
BRANCH   5   6
HETATM    6  N2  UNL     1      15.811   1.720  13.529  1.00  0.00    -0.346 N 
HETATM    7  C3  UNL     1      16.392   0.532  13.291  1.00  0.00     0.109 A 
HETATM    8  C4  UNL     1      16.254  -0.272  14.378  1.00  0.00     0.106 A 
HETATM    9  N3  UNL     1      15.574   0.437  15.304  1.00  0.00    -0.361 N 
HETATM   10  C5  UNL     1      15.314   1.630  14.786  1.00  0.00     0.182 A 
ATOM     11  H3  UNL     1      15.308   0.113  16.234  1.00  0.00     0.166 HD
ENDBRANCH   5   6
ENDBRANCH   4   5
BRANCH   4  12
HETATM   12  C6  UNL     1      17.088   4.710  13.732  1.00  0.00     0.181 C 
BRANCH  12  13
HETATM   13  N4  UNL     1      18.320   4.527  14.503  1.00  0.00    -0.359 N 
HETATM   14  C7  UNL     1      19.390   5.315  14.349  1.00  0.00     0.091 A 
HETATM   15  C8  UNL     1      20.554   5.151  15.069  1.00  0.00     0.019 A 
HETATM   16  C9  UNL     1      20.651   4.138  15.998  1.00  0.00     0.029 A 
HETATM   17  C10 UNL     1      19.551   3.318  16.163  1.00  0.00     0.061 A 
HETATM   18  N5  UNL     1      19.618   2.267  17.111  1.00  0.00    -0.101 NA
HETATM   19  C11 UNL     1      18.410   3.538  15.407  1.00  0.00     0.117 A 
ENDBRANCH  12  13
ENDBRANCH   4  12
TORSDOF 4
ENDMDL
