MODEL 1
REMARK VINA RESULT: -6.898730720      0.000      0.000
REMARK  8 active torsions:
REMARK  status: ('A' for Active; 'I' for Inactive)
REMARK    1  A    between atoms: N1_1  and  N2_4 
REMARK    2  A    between atoms: N2_4  and  O1_5 
REMARK    3  A    between atoms: N2_4  and  N3_7 
REMARK    4  A    between atoms: N3_7  and  C1_9 
REMARK    5  A    between atoms: C1_9  and  C2_10 
REMARK    6  A    between atoms: C4_13  and  C5_14 
REMARK    7  A    between atoms: C5_14  and  O3_15 
REMARK    8  A    between atoms: C6_18  and  O5_19 
ROOT
HETATM    1  C2  UNL     1      16.870   1.133  15.080  1.00  0.00     0.195 C 
HETATM    2  O2  UNL     1      15.757   1.995  14.861  1.00  0.00    -0.377 OA
HETATM    3  C3  UNL     1      15.393   2.595  16.056  1.00  0.00     0.202 C 
HETATM    4  C4  UNL     1      15.579   1.727  17.256  1.00  0.00     0.172 C 
HETATM    5  O4  UNL     1      15.757   0.412  17.048  1.00  0.00    -0.349 OA
HETATM    6  C6  UNL     1      16.281  -0.000  15.846  1.00  0.00     0.288 C 
ENDROOT
BRANCH   1   7
HETATM    7  C1  UNL     1      17.457   0.782  13.762  1.00  0.00     0.180 C 
BRANCH   7   8
HETATM    8  N3  UNL     1      16.697   1.070  12.598  1.00  0.00    -0.293 N 
ATOM      9  H3  UNL     1      16.087   0.331  12.249  1.00  0.00     0.184 HD
BRANCH   8  10
HETATM   10  N2  UNL     1      16.709   2.265  11.891  1.00  0.00    -0.106 N 
BRANCH  10  11
HETATM   11  N1  UNL     1      17.833   2.854  11.645  1.00  0.00    -0.304 N 
ATOM     12  H12 UNL     1      17.878   3.873  11.631  1.00  0.00     0.180 HD
ATOM     13  H11 UNL     1      18.619   2.229  11.468  1.00  0.00     0.180 HD
ENDBRANCH  10  11
BRANCH  10  14
HETATM   14  O1  UNL     1      15.596   2.916  11.418  1.00  0.00    -0.254 OA
ATOM     15  H1  UNL     1      15.058   2.410  10.821  1.00  0.00     0.248 HD
ENDBRANCH  10  14
ENDBRANCH   8  10
ENDBRANCH   7   8
ENDBRANCH   1   7
BRANCH   6  16
HETATM   16  O5  UNL     1      15.237  -0.540  15.066  1.00  0.00    -0.369 OA
ATOM     17  H5  UNL     1      14.427  -0.406  15.543  1.00  0.00     0.212 HD
ENDBRANCH   6  16
BRANCH   4  18
HETATM   18  C5  UNL     1      14.379   1.927  18.181  1.00  0.00     0.198 C 
BRANCH  18  19
HETATM   19  O3  UNL     1      14.117   0.813  18.944  1.00  0.00    -0.398 OA
ATOM     20  H3  UNL     1      13.225   0.803  19.271  1.00  0.00     0.209 HD
ENDBRANCH  18  19
ENDBRANCH   4  18
TORSDOF 8
ENDMDL
MODEL 2
REMARK VINA RESULT: -6.853551657      3.210      5.220
REMARK  8 active torsions:
REMARK  status: ('A' for Active; 'I' for Inactive)
REMARK    1  A    between atoms: N1_1  and  N2_4 
REMARK    2  A    between atoms: N2_4  and  O1_5 
REMARK    3  A    between atoms: N2_4  and  N3_7 
REMARK    4  A    between atoms: N3_7  and  C1_9 
REMARK    5  A    between atoms: C1_9  and  C2_10 
REMARK    6  A    between atoms: C4_13  and  C5_14 
REMARK    7  A    between atoms: C5_14  and  O3_15 
REMARK    8  A    between atoms: C6_18  and  O5_19 
ROOT
HETATM    1  C2  UNL     1      16.360   1.864  15.418  1.00  0.00     0.195 C 
HETATM    2  O2  UNL     1      17.608   2.405  14.994  1.00  0.00    -0.377 OA
HETATM    3  C3  UNL     1      17.415   3.188  13.866  1.00  0.00     0.202 C 
HETATM    4  C4  UNL     1      16.344   2.689  12.953  1.00  0.00     0.172 C 
HETATM    5  O4  UNL     1      15.920   1.426  13.128  1.00  0.00    -0.349 OA
HETATM    6  C6  UNL     1      16.050   0.852  14.370  1.00  0.00     0.288 C 
ENDROOT
BRANCH   1   7
HETATM    7  C1  UNL     1      16.524   1.333  16.795  1.00  0.00     0.180 C 
BRANCH   7   8
HETATM    8  N3  UNL     1      15.363   0.888  17.479  1.00  0.00    -0.293 N 
ATOM      9  H3  UNL     1      15.248  -0.120  17.589  1.00  0.00     0.184 HD
BRANCH   8  10
HETATM   10  N2  UNL     1      14.369   1.698  18.012  1.00  0.00    -0.106 N 
BRANCH  10  11
HETATM   11  N1  UNL     1      13.613   2.389  17.224  1.00  0.00    -0.304 N 
ATOM     12  H12 UNL     1      12.682   2.668  17.532  1.00  0.00     0.180 HD
ATOM     13  H11 UNL     1      14.019   2.602  16.313  1.00  0.00     0.180 HD
ENDBRANCH  10  11
BRANCH  10  14
HETATM   14  O1  UNL     1      14.109   1.854  19.352  1.00  0.00    -0.254 OA
ATOM     15  H1  UNL     1      14.865   2.064  19.886  1.00  0.00     0.248 HD
ENDBRANCH  10  14
ENDBRANCH   8  10
ENDBRANCH   7   8
ENDBRANCH   1   7
BRANCH   6  16
HETATM   16  O5  UNL     1      17.128  -0.058  14.330  1.00  0.00    -0.369 OA
ATOM     17  H5  UNL     1      17.628   0.128  13.544  1.00  0.00     0.212 HD
ENDBRANCH   6  16
BRANCH   4  18
HETATM   18  C5  UNL     1      16.827   2.858  11.514  1.00  0.00     0.198 C 
BRANCH  18  19
HETATM   19  O3  UNL     1      18.188   3.046  11.438  1.00  0.00    -0.398 OA
ATOM     20  H3  UNL     1      18.597   2.464  10.808  1.00  0.00     0.209 HD
ENDBRANCH  18  19
ENDBRANCH   4  18
TORSDOF 8
ENDMDL
MODEL 3
REMARK VINA RESULT: -6.728624536      2.980      5.411
REMARK  8 active torsions:
REMARK  status: ('A' for Active; 'I' for Inactive)
REMARK    1  A    between atoms: N1_1  and  N2_4 
REMARK    2  A    between atoms: N2_4  and  O1_5 
REMARK    3  A    between atoms: N2_4  and  N3_7 
REMARK    4  A    between atoms: N3_7  and  C1_9 
REMARK    5  A    between atoms: C1_9  and  C2_10 
REMARK    6  A    between atoms: C4_13  and  C5_14 
REMARK    7  A    between atoms: C5_14  and  O3_15 
REMARK    8  A    between atoms: C6_18  and  O5_19 
ROOT
HETATM    1  C2  UNL     1      16.758   1.095  14.819  1.00  0.00     0.195 C 
HETATM    2  O2  UNL     1      15.807   0.746  13.818  1.00  0.00    -0.377 OA
HETATM    3  C3  UNL     1      16.299   1.093  12.569  1.00  0.00     0.202 C 
HETATM    4  C4  UNL     1      17.130   2.332  12.564  1.00  0.00     0.172 C 
HETATM    5  O4  UNL     1      17.056   3.133  13.640  1.00  0.00    -0.349 OA
HETATM    6  C6  UNL     1      16.697   2.583  14.847  1.00  0.00     0.288 C 
ENDROOT
BRANCH   1   7
HETATM    7  C1  UNL     1      16.381   0.412  16.082  1.00  0.00     0.180 C 
BRANCH   7   8
HETATM    8  N3  UNL     1      16.075   1.218  17.209  1.00  0.00    -0.293 N 
ATOM      9  H3  UNL     1      16.829   1.792  17.587  1.00  0.00     0.184 HD
BRANCH   8  10
HETATM   10  N2  UNL     1      14.843   1.298  17.844  1.00  0.00    -0.106 N 
BRANCH  10  11
HETATM   11  N1  UNL     1      13.920   2.064  17.363  1.00  0.00    -0.304 N 
ATOM     12  H12 UNL     1      12.963   1.721  17.291  1.00  0.00     0.180 HD
ATOM     13  H11 UNL     1      14.236   2.989  17.071  1.00  0.00     0.180 HD
ENDBRANCH  10  11
BRANCH  10  14
HETATM   14  O1  UNL     1      14.498   0.624  18.991  1.00  0.00    -0.254 OA
ATOM     15  H1  UNL     1      13.566   0.478  19.105  1.00  0.00     0.248 HD
ENDBRANCH  10  14
ENDBRANCH   8  10
ENDBRANCH   7   8
ENDBRANCH   1   7
BRANCH   6  16
HETATM   16  O5  UNL     1      15.361   2.945  15.123  1.00  0.00    -0.369 OA
ATOM     17  H5  UNL     1      15.381   3.778  15.578  1.00  0.00     0.212 HD
ENDBRANCH   6  16
BRANCH   4  18
HETATM   18  C5  UNL     1      16.775   3.140  11.317  1.00  0.00     0.198 C 
BRANCH  18  19
HETATM   19  O3  UNL     1      17.883   3.448  10.561  1.00  0.00    -0.398 OA
ATOM     20  H3  UNL     1      18.658   3.577  11.095  1.00  0.00     0.209 HD
ENDBRANCH  18  19
ENDBRANCH   4  18
TORSDOF 8
ENDMDL
MODEL 4
REMARK VINA RESULT: -6.423459714      1.419      1.521
REMARK  8 active torsions:
REMARK  status: ('A' for Active; 'I' for Inactive)
REMARK    1  A    between atoms: N1_1  and  N2_4 
REMARK    2  A    between atoms: N2_4  and  O1_5 
REMARK    3  A    between atoms: N2_4  and  N3_7 
REMARK    4  A    between atoms: N3_7  and  C1_9 
REMARK    5  A    between atoms: C1_9  and  C2_10 
REMARK    6  A    between atoms: C4_13  and  C5_14 
REMARK    7  A    between atoms: C5_14  and  O3_15 
REMARK    8  A    between atoms: C6_18  and  O5_19 
ROOT
HETATM    1  C2  UNL     1      16.760   1.365  15.051  1.00  0.00     0.195 C 
HETATM    2  O2  UNL     1      15.567   2.145  15.055  1.00  0.00    -0.377 OA
HETATM    3  C3  UNL     1      15.283   2.551  16.350  1.00  0.00     0.202 C 
HETATM    4  C4  UNL     1      15.658   1.556  17.397  1.00  0.00     0.172 C 
HETATM    5  O4  UNL     1      15.914   0.299  16.995  1.00  0.00    -0.349 OA
HETATM    6  C6  UNL     1      16.341   0.094  15.706  1.00  0.00     0.288 C 
ENDROOT
BRANCH   1   7
HETATM    7  C1  UNL     1      17.233   1.240  13.649  1.00  0.00     0.180 C 
BRANCH   7   8
HETATM    8  N3  UNL     1      17.636   2.423  12.975  1.00  0.00    -0.293 N 
ATOM      9  H3  UNL     1      17.710   2.375  11.959  1.00  0.00     0.184 HD
BRANCH   8  10
HETATM   10  N2  UNL     1      17.939   3.638  13.573  1.00  0.00    -0.106 N 
BRANCH  10  11
HETATM   11  N1  UNL     1      19.158   3.902  13.912  1.00  0.00    -0.304 N 
ATOM     12  H12 UNL     1      19.407   3.967  14.899  1.00  0.00     0.180 HD
ATOM     13  H11 UNL     1      19.802   4.039  13.133  1.00  0.00     0.180 HD
ENDBRANCH  10  11
BRANCH  10  14
HETATM   14  O1  UNL     1      17.029   4.626  13.865  1.00  0.00    -0.254 OA
ATOM     15  H1  UNL     1      17.318   5.509  13.666  1.00  0.00     0.248 HD
ENDBRANCH  10  14
ENDBRANCH   8  10
ENDBRANCH   7   8
ENDBRANCH   1   7
BRANCH   6  16
HETATM   16  O5  UNL     1      15.266  -0.432  14.958  1.00  0.00    -0.369 OA
ATOM     17  H5  UNL     1      15.016  -1.255  15.361  1.00  0.00     0.212 HD
ENDBRANCH   6  16
BRANCH   4  18
HETATM   18  C5  UNL     1      14.548   1.527  18.447  1.00  0.00     0.198 C 
BRANCH  18  19
HETATM   19  O3  UNL     1      13.478   2.317  18.097  1.00  0.00    -0.398 OA
ATOM     20  H3  UNL     1      12.668   1.822  18.044  1.00  0.00     0.209 HD
ENDBRANCH  18  19
ENDBRANCH   4  18
TORSDOF 8
ENDMDL
MODEL 5
REMARK VINA RESULT: -6.361972024      3.045      5.238
REMARK  8 active torsions:
REMARK  status: ('A' for Active; 'I' for Inactive)
REMARK    1  A    between atoms: N1_1  and  N2_4 
REMARK    2  A    between atoms: N2_4  and  O1_5 
REMARK    3  A    between atoms: N2_4  and  N3_7 
REMARK    4  A    between atoms: N3_7  and  C1_9 
REMARK    5  A    between atoms: C1_9  and  C2_10 
REMARK    6  A    between atoms: C4_13  and  C5_14 
REMARK    7  A    between atoms: C5_14  and  O3_15 
REMARK    8  A    between atoms: C6_18  and  O5_19 
ROOT
HETATM    1  C2  UNL     1      16.119   0.838  14.754  1.00  0.00     0.195 C 
HETATM    2  O2  UNL     1      15.745   2.213  14.767  1.00  0.00    -0.377 OA
HETATM    3  C3  UNL     1      15.489   2.636  13.472  1.00  0.00     0.202 C 
HETATM    4  C4  UNL     1      16.354   1.994  12.438  1.00  0.00     0.172 C 
HETATM    5  O4  UNL     1      17.456   1.354  12.864  1.00  0.00    -0.349 OA
HETATM    6  C6  UNL     1      17.477   0.857  14.144  1.00  0.00     0.288 C 
ENDROOT
BRANCH   1   7
HETATM    7  C1  UNL     1      16.045   0.321  16.145  1.00  0.00     0.180 C 
BRANCH   7   8
HETATM    8  N3  UNL     1      15.830   1.255  17.192  1.00  0.00    -0.293 N 
ATOM      9  H3  UNL     1      16.650   1.743  17.551  1.00  0.00     0.184 HD
BRANCH   8  10
HETATM   10  N2  UNL     1      14.607   1.564  17.771  1.00  0.00    -0.106 N 
BRANCH  10  11
HETATM   11  N1  UNL     1      13.780   2.339  17.150  1.00  0.00    -0.304 N 
ATOM     12  H12 UNL     1      12.873   2.549  17.566  1.00  0.00     0.180 HD
ATOM     13  H11 UNL     1      14.108   2.687  16.249  1.00  0.00     0.180 HD
ENDBRANCH  10  11
BRANCH  10  14
HETATM   14  O1  UNL     1      14.177   1.119  18.997  1.00  0.00    -0.254 OA
ATOM     15  H1  UNL     1      13.598   0.367  18.971  1.00  0.00     0.248 HD
ENDBRANCH  10  14
ENDBRANCH   8  10
ENDBRANCH   7   8
ENDBRANCH   1   7
BRANCH   6  16
HETATM   16  O5  UNL     1      18.284   1.701  14.937  1.00  0.00    -0.369 OA
ATOM     17  H5  UNL     1      18.642   2.370  14.366  1.00  0.00     0.212 HD
ENDBRANCH   6  16
BRANCH   4  18
HETATM   18  C5  UNL     1      16.758   3.062  11.423  1.00  0.00     0.198 C 
BRANCH  18  19
HETATM   19  O3  UNL     1      18.122   3.137  11.259  1.00  0.00    -0.398 OA
ATOM     20  H3  UNL     1      18.392   2.899  10.380  1.00  0.00     0.209 HD
ENDBRANCH  18  19
ENDBRANCH   4  18
TORSDOF 8
ENDMDL
