MODEL 1
REMARK VINA RESULT: -6.611834616      0.000      0.000
REMARK  5 active torsions:
REMARK  status: ('A' for Active; 'I' for Inactive)
REMARK    1  A    between atoms: N1_1  and  N2_4 
REMARK    2  A    between atoms: N2_4  and  S1_6 
REMARK    3  A    between atoms: S1_6  and  N3_9 
REMARK    4  A    between atoms: N3_9  and  S2_11 
REMARK    5  A    between atoms: S2_11  and  N4_12 
ROOT
HETATM    1  S1  UNL     1      15.777   1.038  16.127  1.00  0.00     0.346 S 
HETATM    2  O1  UNL     1      17.150   1.166  16.744  1.00  0.00    -0.180 OA
HETATM    3  O2  UNL     1      15.703  -0.342  15.536  1.00  0.00    -0.180 OA
ENDROOT
BRANCH   1   4
HETATM    4  N2  UNL     1      14.533   1.211  17.298  1.00  0.00    -0.216 N 
ATOM      5  H2  UNL     1      14.369   0.531  18.040  1.00  0.00     0.201 HD
BRANCH   4   6
HETATM    6  N1  UNL     1      13.777   2.354  17.141  1.00  0.00    -0.335 N 
ATOM      7  H12 UNL     1      13.373   2.620  16.243  1.00  0.00     0.177 HD
ATOM      8  H11 UNL     1      13.666   2.894  17.999  1.00  0.00     0.177 HD
ENDBRANCH   4   6
ENDBRANCH   1   4
BRANCH   1   9
HETATM    9  N3  UNL     1      15.619   2.265  14.931  1.00  0.00    -0.176 N 
ATOM     10  H3  UNL     1      15.034   3.094  15.043  1.00  0.00     0.195 HD
BRANCH   9  11
HETATM   11  S2  UNL     1      16.555   1.941  13.528  1.00  0.00     0.327 S 
HETATM   12  O3  UNL     1      17.262   3.163  13.026  1.00  0.00    -0.182 OA
HETATM   13  O4  UNL     1      15.648   1.453  12.431  1.00  0.00    -0.182 OA
BRANCH  11  14
HETATM   14  N4  UNL     1      17.734   0.726  13.935  1.00  0.00    -0.311 N 
ATOM     15  H42 UNL     1      17.827   0.279  14.848  1.00  0.00     0.170 HD
ATOM     16  H41 UNL     1      18.304   0.548  13.108  1.00  0.00     0.170 HD
ENDBRANCH  11  14
ENDBRANCH   9  11
ENDBRANCH   1   9
TORSDOF 5
ENDMDL
MODEL 2
REMARK VINA RESULT: -6.338453608      1.438      4.147
REMARK  5 active torsions:
REMARK  status: ('A' for Active; 'I' for Inactive)
REMARK    1  A    between atoms: N1_1  and  N2_4 
REMARK    2  A    between atoms: N2_4  and  S1_6 
REMARK    3  A    between atoms: S1_6  and  N3_9 
REMARK    4  A    between atoms: N3_9  and  S2_11 
REMARK    5  A    between atoms: S2_11  and  N4_12 
ROOT
HETATM    1  S1  UNL     1      16.403   1.904  12.923  1.00  0.00     0.346 S 
HETATM    2  O1  UNL     1      17.664   2.731  12.851  1.00  0.00    -0.180 OA
HETATM    3  O2  UNL     1      15.448   2.494  11.922  1.00  0.00    -0.180 OA
ENDROOT
BRANCH   1   4
HETATM    4  N2  UNL     1      16.691   0.262  12.516  1.00  0.00    -0.216 N 
ATOM      5  H2  UNL     1      16.004  -0.477  12.662  1.00  0.00     0.201 HD
BRANCH   4   6
HETATM    6  N1  UNL     1      17.939   0.034  11.974  1.00  0.00    -0.335 N 
ATOM      7  H12 UNL     1      18.067  -0.473  11.097  1.00  0.00     0.177 HD
ATOM      8  H11 UNL     1      18.705   0.415  12.528  1.00  0.00     0.177 HD
ENDBRANCH   4   6
ENDBRANCH   1   4
BRANCH   1   9
HETATM    9  N3  UNL     1      15.798   2.002  14.531  1.00  0.00    -0.176 N 
ATOM     10  H3  UNL     1      15.150   2.724  14.851  1.00  0.00     0.195 HD
BRANCH   9  11
HETATM   11  S2  UNL     1      16.404   0.751  15.539  1.00  0.00     0.327 S 
HETATM   12  O3  UNL     1      17.827   0.407  15.218  1.00  0.00    -0.182 OA
HETATM   13  O4  UNL     1      15.576  -0.489  15.339  1.00  0.00    -0.182 OA
BRANCH  11  14
HETATM   14  N4  UNL     1      16.307   1.294  17.192  1.00  0.00    -0.311 N 
ATOM     15  H42 UNL     1      16.695   2.168  17.546  1.00  0.00     0.170 HD
ATOM     16  H41 UNL     1      15.800   0.589  17.727  1.00  0.00     0.170 HD
ENDBRANCH  11  14
ENDBRANCH   9  11
ENDBRANCH   1   9
TORSDOF 5
ENDMDL
MODEL 3
REMARK VINA RESULT: -6.299794751      1.327      1.663
REMARK  5 active torsions:
REMARK  status: ('A' for Active; 'I' for Inactive)
REMARK    1  A    between atoms: N1_1  and  N2_4 
REMARK    2  A    between atoms: N2_4  and  S1_6 
REMARK    3  A    between atoms: S1_6  and  N3_9 
REMARK    4  A    between atoms: N3_9  and  S2_11 
REMARK    5  A    between atoms: S2_11  and  N4_12 
ROOT
HETATM    1  S1  UNL     1      15.762   1.582  15.879  1.00  0.00     0.346 S 
HETATM    2  O1  UNL     1      15.717   3.027  15.443  1.00  0.00    -0.180 OA
HETATM    3  O2  UNL     1      17.085   1.384  16.566  1.00  0.00    -0.180 OA
ENDROOT
BRANCH   1   4
HETATM    4  N2  UNL     1      14.500   1.209  16.983  1.00  0.00    -0.216 N 
ATOM      5  H2  UNL     1      14.366   0.281  17.382  1.00  0.00     0.201 HD
BRANCH   4   6
HETATM    6  N1  UNL     1      13.685   2.282  17.279  1.00  0.00    -0.335 N 
ATOM      7  H12 UNL     1      13.709   2.749  18.186  1.00  0.00     0.177 HD
ATOM      8  H11 UNL     1      13.069   2.555  16.514  1.00  0.00     0.177 HD
ENDBRANCH   4   6
ENDBRANCH   1   4
BRANCH   1   9
HETATM    9  N3  UNL     1      15.607   0.600  14.474  1.00  0.00    -0.176 N 
ATOM     10  H3  UNL     1      15.087  -0.277  14.450  1.00  0.00     0.195 HD
BRANCH   9  11
HETATM   11  S2  UNL     1      16.426   1.262  13.117  1.00  0.00     0.327 S 
HETATM   12  O3  UNL     1      15.527   2.119  12.278  1.00  0.00    -0.182 OA
HETATM   13  O4  UNL     1      16.931   0.141  12.250  1.00  0.00    -0.182 OA
BRANCH  11  14
HETATM   14  N4  UNL     1      17.751   2.229  13.704  1.00  0.00    -0.311 N 
ATOM     15  H42 UNL     1      17.697   2.892  14.477  1.00  0.00     0.170 HD
ATOM     16  H41 UNL     1      18.574   2.012  13.142  1.00  0.00     0.170 HD
ENDBRANCH  11  14
ENDBRANCH   9  11
ENDBRANCH   1   9
TORSDOF 5
ENDMDL
MODEL 4
REMARK VINA RESULT: -6.264016647      1.721      4.266
REMARK  5 active torsions:
REMARK  status: ('A' for Active; 'I' for Inactive)
REMARK    1  A    between atoms: N1_1  and  N2_4 
REMARK    2  A    between atoms: N2_4  and  S1_6 
REMARK    3  A    between atoms: S1_6  and  N3_9 
REMARK    4  A    between atoms: N3_9  and  S2_11 
REMARK    5  A    between atoms: S2_11  and  N4_12 
ROOT
HETATM    1  S1  UNL     1      16.384   1.809  13.121  1.00  0.00     0.346 S 
HETATM    2  O1  UNL     1      15.277   2.258  12.197  1.00  0.00    -0.180 OA
HETATM    3  O2  UNL     1      16.693   0.384  12.754  1.00  0.00    -0.180 OA
ENDROOT
BRANCH   1   4
HETATM    4  N2  UNL     1      17.802   2.755  12.925  1.00  0.00    -0.216 N 
ATOM      5  H2  UNL     1      18.365   3.084  13.710  1.00  0.00     0.201 HD
BRANCH   4   6
HETATM    6  N1  UNL     1      18.112   3.029  11.609  1.00  0.00    -0.335 N 
ATOM      7  H12 UNL     1      17.699   3.815  11.106  1.00  0.00     0.177 HD
ATOM      8  H11 UNL     1      18.781   2.379  11.199  1.00  0.00     0.177 HD
ENDBRANCH   4   6
ENDBRANCH   1   4
BRANCH   1   9
HETATM    9  N3  UNL     1      15.813   1.952  14.738  1.00  0.00    -0.176 N 
ATOM     10  H3  UNL     1      15.238   2.727  15.070  1.00  0.00     0.195 HD
BRANCH   9  11
HETATM   11  S2  UNL     1      16.319   0.647  15.732  1.00  0.00     0.327 S 
HETATM   12  O3  UNL     1      15.493  -0.584  15.512  1.00  0.00    -0.182 OA
HETATM   13  O4  UNL     1      16.176   1.041  17.177  1.00  0.00    -0.182 OA
BRANCH  11  14
HETATM   14  N4  UNL     1      17.982   0.294  15.354  1.00  0.00    -0.311 N 
ATOM     15  H42 UNL     1      18.573   0.846  14.733  1.00  0.00     0.170 HD
ATOM     16  H41 UNL     1      18.249  -0.551  15.860  1.00  0.00     0.170 HD
ENDBRANCH  11  14
ENDBRANCH   9  11
ENDBRANCH   1   9
TORSDOF 5
ENDMDL
MODEL 5
REMARK VINA RESULT: -6.237985055      1.088      1.157
REMARK  5 active torsions:
REMARK  status: ('A' for Active; 'I' for Inactive)
REMARK    1  A    between atoms: N1_1  and  N2_4 
REMARK    2  A    between atoms: N2_4  and  S1_6 
REMARK    3  A    between atoms: S1_6  and  N3_9 
REMARK    4  A    between atoms: N3_9  and  S2_11 
REMARK    5  A    between atoms: S2_11  and  N4_12 
ROOT
HETATM    1  S1  UNL     1      15.996   0.991  15.906  1.00  0.00     0.346 S 
HETATM    2  O1  UNL     1      17.479   1.248  16.030  1.00  0.00    -0.180 OA
HETATM    3  O2  UNL     1      15.839  -0.476  15.617  1.00  0.00    -0.180 OA
ENDROOT
BRANCH   1   4
HETATM    4  N2  UNL     1      15.160   1.365  17.359  1.00  0.00    -0.216 N 
ATOM      5  H2  UNL     1      15.481   1.065  18.278  1.00  0.00     0.201 HD
BRANCH   4   6
HETATM    6  N1  UNL     1      14.014   2.108  17.166  1.00  0.00    -0.335 N 
ATOM      7  H12 UNL     1      13.165   1.949  17.709  1.00  0.00     0.177 HD
ATOM      8  H11 UNL     1      14.101   2.819  16.440  1.00  0.00     0.177 HD
ENDBRANCH   4   6
ENDBRANCH   1   4
BRANCH   1   9
HETATM    9  N3  UNL     1      15.395   1.972  14.626  1.00  0.00    -0.176 N 
ATOM     10  H3  UNL     1      14.551   2.542  14.697  1.00  0.00     0.195 HD
BRANCH   9  11
HETATM   11  S2  UNL     1      16.373   1.886  13.217  1.00  0.00     0.327 S 
HETATM   12  O3  UNL     1      15.648   2.366  11.996  1.00  0.00    -0.182 OA
HETATM   13  O4  UNL     1      16.772   0.455  12.980  1.00  0.00    -0.182 OA
BRANCH  11  14
HETATM   14  N4  UNL     1      17.779   2.881  13.474  1.00  0.00    -0.311 N 
ATOM     15  H42 UNL     1      18.738   2.609  13.259  1.00  0.00     0.170 HD
ATOM     16  H41 UNL     1      17.470   3.768  13.872  1.00  0.00     0.170 HD
ENDBRANCH  11  14
ENDBRANCH   9  11
ENDBRANCH   1   9
TORSDOF 5
ENDMDL
