MODEL 1
REMARK VINA RESULT: -6.679091919      0.000      0.000
REMARK  5 active torsions:
REMARK  status: ('A' for Active; 'I' for Inactive)
REMARK    1  A    between atoms: S1_2  and  C1_4 
REMARK    2  A    between atoms: C1_4  and  C2_5 
REMARK    3  A    between atoms: C4_7  and  O3_8 
REMARK    4  A    between atoms: C5_10  and  C6_11 
REMARK    5  A    between atoms: C6_11  and  O4_12 
ROOT
HETATM    1  C2  UNL     1      17.691   1.828  14.817  1.00  0.00     0.204 C 
HETATM    2  C3  UNL     1      17.047   0.562  14.355  1.00  0.00     0.068 C 
HETATM    3  C4  UNL     1      16.259   0.123  15.585  1.00  0.00     0.153 C 
HETATM    4  C5  UNL     1      15.937   1.474  16.200  1.00  0.00     0.238 C 
HETATM    5  N1  UNL     1      17.235   2.108  16.151  1.00  0.00    -0.061 N 
ATOM      6  H11 UNL     1      17.233   3.097  16.399  1.00  0.00     0.278 HD
ATOM      7  H12 UNL     1      17.877   1.815  16.888  1.00  0.00     0.278 HD
ENDROOT
BRANCH   1   8
HETATM    8  C1  UNL     1      17.342   3.026  13.951  1.00  0.00     0.190 C 
BRANCH   8   9
HETATM    9  S1  UNL     1      17.013   2.380  12.312  1.00  0.00     0.252 S 
HETATM   10  O1  UNL     1      15.409   2.515  11.911  1.00  0.00    -0.212 OA
HETATM   11  O2  UNL     1      18.048   3.027  11.190  1.00  0.00    -0.212 OA
ENDBRANCH   8   9
ENDBRANCH   1   8
BRANCH   3  12
HETATM   12  O3  UNL     1      15.125  -0.580  15.267  1.00  0.00    -0.393 OA
ATOM     13  H3  UNL     1      14.786  -1.084  15.998  1.00  0.00     0.210 HD
ENDBRANCH   3  12
BRANCH   4  14
HETATM   14  C6  UNL     1      15.414   1.347  17.608  1.00  0.00     0.199 C 
BRANCH  14  15
HETATM   15  O4  UNL     1      14.031   1.261  17.557  1.00  0.00    -0.399 OA
ATOM     16  H4  UNL     1      13.710   1.918  16.951  1.00  0.00     0.209 HD
ENDBRANCH  14  15
ENDBRANCH   4  14
TORSDOF 5
ENDMDL
MODEL 2
REMARK VINA RESULT: -6.422864671      2.252      4.833
REMARK  5 active torsions:
REMARK  status: ('A' for Active; 'I' for Inactive)
REMARK    1  A    between atoms: S1_2  and  C1_4 
REMARK    2  A    between atoms: C1_4  and  C2_5 
REMARK    3  A    between atoms: C4_7  and  O3_8 
REMARK    4  A    between atoms: C5_10  and  C6_11 
REMARK    5  A    between atoms: C6_11  and  O4_12 
ROOT
HETATM    1  C2  UNL     1      17.192   0.708  14.708  1.00  0.00     0.204 C 
HETATM    2  C3  UNL     1      17.755   2.011  15.173  1.00  0.00     0.068 C 
HETATM    3  C4  UNL     1      17.785   2.835  13.890  1.00  0.00     0.153 C 
HETATM    4  C5  UNL     1      16.598   2.239  13.153  1.00  0.00     0.238 C 
HETATM    5  N1  UNL     1      16.863   0.828  13.314  1.00  0.00    -0.061 N 
ATOM      6  H11 UNL     1      16.109   0.217  13.003  1.00  0.00     0.278 HD
ATOM      7  H12 UNL     1      17.570   0.455  12.679  1.00  0.00     0.278 HD
ENDROOT
BRANCH   1   8
HETATM    8  C1  UNL     1      15.927   0.307  15.446  1.00  0.00     0.190 C 
BRANCH   8   9
HETATM    9  S1  UNL     1      15.777   1.434  16.832  1.00  0.00     0.252 S 
HETATM   10  O1  UNL     1      14.780   2.710  16.478  1.00  0.00    -0.212 OA
HETATM   11  O2  UNL     1      15.377   0.627  18.224  1.00  0.00    -0.212 OA
ENDBRANCH   8   9
ENDBRANCH   1   8
BRANCH   3  12
HETATM   12  O3  UNL     1      17.626   4.179  14.117  1.00  0.00    -0.393 OA
ATOM     13  H3  UNL     1      17.754   4.418  15.028  1.00  0.00     0.210 HD
ENDBRANCH   3  12
BRANCH   4  14
HETATM   14  C6  UNL     1      16.561   2.654  11.705  1.00  0.00     0.199 C 
BRANCH  14  15
HETATM   15  O4  UNL     1      17.844   3.013  11.318  1.00  0.00    -0.399 OA
ATOM     16  H4  UNL     1      18.298   2.234  11.020  1.00  0.00     0.209 HD
ENDBRANCH  14  15
ENDBRANCH   4  14
TORSDOF 5
ENDMDL
MODEL 3
REMARK VINA RESULT: -6.383403149      1.321      1.580
REMARK  5 active torsions:
REMARK  status: ('A' for Active; 'I' for Inactive)
REMARK    1  A    between atoms: S1_2  and  C1_4 
REMARK    2  A    between atoms: C1_4  and  C2_5 
REMARK    3  A    between atoms: C4_7  and  O3_8 
REMARK    4  A    between atoms: C5_10  and  C6_11 
REMARK    5  A    between atoms: C6_11  and  O4_12 
ROOT
HETATM    1  C2  UNL     1      17.496   1.498  14.655  1.00  0.00     0.204 C 
HETATM    2  C3  UNL     1      17.461   0.651  15.884  1.00  0.00     0.068 C 
HETATM    3  C4  UNL     1      16.459   1.387  16.767  1.00  0.00     0.153 C 
HETATM    4  C5  UNL     1      15.557   1.997  15.707  1.00  0.00     0.238 C 
HETATM    5  N1  UNL     1      16.540   2.561  14.810  1.00  0.00    -0.061 N 
ATOM      6  H11 UNL     1      16.158   2.918  13.934  1.00  0.00     0.278 HD
ATOM      7  H12 UNL     1      16.938   3.447  15.121  1.00  0.00     0.278 HD
ENDROOT
BRANCH   1   8
HETATM    8  C1  UNL     1      17.136   0.735  13.392  1.00  0.00     0.190 C 
BRANCH   8   9
HETATM    9  S1  UNL     1      17.007   1.959  12.088  1.00  0.00     0.252 S 
HETATM   10  O1  UNL     1      15.465   2.553  11.957  1.00  0.00    -0.212 OA
HETATM   11  O2  UNL     1      18.173   3.127  12.242  1.00  0.00    -0.212 OA
ENDBRANCH   8   9
ENDBRANCH   1   8
BRANCH   3  12
HETATM   12  O3  UNL     1      15.770   0.548  17.605  1.00  0.00    -0.393 OA
ATOM     13  H3  UNL     1      14.835   0.543  17.436  1.00  0.00     0.210 HD
ENDBRANCH   3  12
BRANCH   4  14
HETATM   14  C6  UNL     1      14.636   3.044  16.279  1.00  0.00     0.199 C 
BRANCH  14  15
HETATM   15  O4  UNL     1      13.661   2.407  17.032  1.00  0.00    -0.399 OA
ATOM     16  H4  UNL     1      13.511   2.913  17.821  1.00  0.00     0.209 HD
ENDBRANCH  14  15
ENDBRANCH   4  14
TORSDOF 5
ENDMDL
MODEL 4
REMARK VINA RESULT: -6.312949579      2.002      4.788
REMARK  5 active torsions:
REMARK  status: ('A' for Active; 'I' for Inactive)
REMARK    1  A    between atoms: S1_2  and  C1_4 
REMARK    2  A    between atoms: C1_4  and  C2_5 
REMARK    3  A    between atoms: C4_7  and  O3_8 
REMARK    4  A    between atoms: C5_10  and  C6_11 
REMARK    5  A    between atoms: C6_11  and  O4_12 
ROOT
HETATM    1  C2  UNL     1      17.219   2.399  14.926  1.00  0.00     0.204 C 
HETATM    2  C3  UNL     1      17.192   3.452  13.868  1.00  0.00     0.068 C 
HETATM    3  C4  UNL     1      17.465   2.654  12.598  1.00  0.00     0.153 C 
HETATM    4  C5  UNL     1      16.844   1.319  12.975  1.00  0.00     0.238 C 
HETATM    5  N1  UNL     1      17.407   1.123  14.291  1.00  0.00    -0.061 N 
ATOM      6  H11 UNL     1      17.018   0.333  14.804  1.00  0.00     0.278 HD
ATOM      7  H12 UNL     1      18.370   0.787  14.293  1.00  0.00     0.278 HD
ENDROOT
BRANCH   1   8
HETATM    8  C1  UNL     1      15.933   2.327  15.731  1.00  0.00     0.190 C 
BRANCH   8   9
HETATM    9  S1  UNL     1      16.015   0.803  16.670  1.00  0.00     0.252 S 
HETATM   10  O1  UNL     1      15.141   0.902  18.076  1.00  0.00    -0.212 OA
HETATM   11  O2  UNL     1      15.635  -0.508  15.727  1.00  0.00    -0.212 OA
ENDBRANCH   8   9
ENDBRANCH   1   8
BRANCH   3  12
HETATM   12  O3  UNL     1      16.873   3.200  11.488  1.00  0.00    -0.393 OA
ATOM     13  H3  UNL     1      16.914   2.630  10.729  1.00  0.00     0.210 HD
ENDBRANCH   3  12
BRANCH   4  14
HETATM   14  C6  UNL     1      17.230   0.222  12.016  1.00  0.00     0.199 C 
BRANCH  14  15
HETATM   15  O4  UNL     1      18.321   0.651  11.274  1.00  0.00    -0.399 OA
ATOM     16  H4  UNL     1      18.338   1.601  11.286  1.00  0.00     0.209 HD
ENDBRANCH  14  15
ENDBRANCH   4  14
TORSDOF 5
ENDMDL
MODEL 5
REMARK VINA RESULT: -6.156301142      1.194      1.789
REMARK  5 active torsions:
REMARK  status: ('A' for Active; 'I' for Inactive)
REMARK    1  A    between atoms: S1_2  and  C1_4 
REMARK    2  A    between atoms: C1_4  and  C2_5 
REMARK    3  A    between atoms: C4_7  and  O3_8 
REMARK    4  A    between atoms: C5_10  and  C6_11 
REMARK    5  A    between atoms: C6_11  and  O4_12 
ROOT
HETATM    1  C2  UNL     1      17.507   1.757  14.606  1.00  0.00     0.204 C 
HETATM    2  C3  UNL     1      17.398   0.689  15.643  1.00  0.00     0.068 C 
HETATM    3  C4  UNL     1      16.390   1.280  16.623  1.00  0.00     0.153 C 
HETATM    4  C5  UNL     1      15.549   2.121  15.678  1.00  0.00     0.238 C 
HETATM    5  N1  UNL     1      16.583   2.807  14.938  1.00  0.00    -0.061 N 
ATOM      6  H11 UNL     1      16.247   3.343  14.138  1.00  0.00     0.278 HD
ATOM      7  H12 UNL     1      17.000   3.599  15.429  1.00  0.00     0.278 HD
ENDROOT
BRANCH   1   8
HETATM    8  C1  UNL     1      17.168   1.270  13.208  1.00  0.00     0.190 C 
BRANCH   8   9
HETATM    9  S1  UNL     1      16.830   2.737  12.236  1.00  0.00     0.252 S 
HETATM   10  O1  UNL     1      18.074   3.080  11.194  1.00  0.00    -0.212 OA
HETATM   11  O2  UNL     1      15.343   2.649  11.509  1.00  0.00    -0.212 OA
ENDBRANCH   8   9
ENDBRANCH   1   8
BRANCH   3  12
HETATM   12  O3  UNL     1      15.642   0.322  17.261  1.00  0.00    -0.393 OA
ATOM     13  H3  UNL     1      16.142  -0.459  17.468  1.00  0.00     0.210 HD
ENDBRANCH   3  12
BRANCH   4  14
HETATM   14  C6  UNL     1      14.644   3.073  16.416  1.00  0.00     0.199 C 
BRANCH  14  15
HETATM   15  O4  UNL     1      13.681   2.333  17.086  1.00  0.00    -0.399 OA
ATOM     16  H4  UNL     1      12.904   2.288  16.542  1.00  0.00     0.209 HD
ENDBRANCH  14  15
ENDBRANCH   4  14
TORSDOF 5
ENDMDL
