MODEL 1
REMARK VINA RESULT: -6.896490407      0.000      0.000
REMARK  4 active torsions:
REMARK  status: ('A' for Active; 'I' for Inactive)
REMARK    1  A    between atoms: N1_1  and  C1_5 
REMARK    2  A    between atoms: C4_8  and  N2_9 
REMARK    3  A    between atoms: N2_9  and  S1_11 
REMARK    4  A    between atoms: S1_11  and  N3_12 
ROOT
HETATM    1  C1  UNL     1      46.538  25.952  43.019  1.00  0.00     0.185 C 
HETATM    2  C2  UNL     1      46.567  24.872  41.943  1.00  0.00     0.035 C 
HETATM    3  C3  UNL     1      46.148  25.697  40.719  1.00  0.00     0.028 C 
HETATM    4  C4  UNL     1      44.934  26.390  41.252  1.00  0.00     0.096 C 
HETATM    5  C5  UNL     1      45.381  26.822  42.639  1.00  0.00     0.058 C 
ENDROOT
BRANCH   4   6
HETATM    6  N2  UNL     1      44.556  27.561  40.530  1.00  0.00    -0.298 N 
ATOM      7  H2  UNL     1      44.342  28.445  40.990  1.00  0.00     0.174 HD
BRANCH   6   8
HETATM    8  S1  UNL     1      44.491  27.363  38.838  1.00  0.00     0.313 S 
HETATM    9  O1  UNL     1      45.922  27.396  38.323  1.00  0.00    -0.183 OA
HETATM   10  O2  UNL     1      43.740  28.472  38.146  1.00  0.00    -0.183 OA
BRANCH   8  11
HETATM   11  N3  UNL     1      43.824  25.861  38.352  1.00  0.00    -0.312 N 
ATOM     12  H32 UNL     1      44.320  25.215  37.739  1.00  0.00     0.170 HD
ATOM     13  H31 UNL     1      42.895  25.688  38.736  1.00  0.00     0.170 HD
ENDBRANCH   8  11
ENDBRANCH   6   8
ENDBRANCH   4   6
BRANCH   1  14
HETATM   14  N1  UNL     1      47.798  26.691  42.934  1.00  0.00    -0.075 N 
ATOM     15  H13 UNL     1      47.677  27.649  42.606  1.00  0.00     0.274 HD
ATOM     16  H12 UNL     1      48.192  26.911  43.849  1.00  0.00     0.274 HD
ATOM     17  H11 UNL     1      48.433  26.148  42.349  1.00  0.00     0.274 HD
ENDBRANCH   1  14
TORSDOF 4
ENDMDL
MODEL 2
REMARK VINA RESULT: -6.800698081      1.122      1.360
REMARK  4 active torsions:
REMARK  status: ('A' for Active; 'I' for Inactive)
REMARK    1  A    between atoms: N1_1  and  C1_5 
REMARK    2  A    between atoms: C4_8  and  N2_9 
REMARK    3  A    between atoms: N2_9  and  S1_11 
REMARK    4  A    between atoms: S1_11  and  N3_12 
ROOT
HETATM    1  C1  UNL     1      46.601  25.953  43.068  1.00  0.00     0.185 C 
HETATM    2  C2  UNL     1      46.634  24.827  42.041  1.00  0.00     0.035 C 
HETATM    3  C3  UNL     1      46.176  25.588  40.790  1.00  0.00     0.028 C 
HETATM    4  C4  UNL     1      44.957  26.278  41.314  1.00  0.00     0.096 C 
HETATM    5  C5  UNL     1      45.419  26.781  42.672  1.00  0.00     0.058 C 
ENDROOT
BRANCH   4   6
HETATM    6  N2  UNL     1      44.542  27.408  40.549  1.00  0.00    -0.298 N 
ATOM      7  H2  UNL     1      44.208  28.271  40.978  1.00  0.00     0.174 HD
BRANCH   6   8
HETATM    8  S1  UNL     1      44.648  27.201  38.859  1.00  0.00     0.313 S 
HETATM    9  O1  UNL     1      43.965  25.885  38.521  1.00  0.00    -0.183 OA
HETATM   10  O2  UNL     1      46.069  27.108  38.367  1.00  0.00    -0.183 OA
BRANCH   8  11
HETATM   11  N3  UNL     1      43.838  28.423  37.972  1.00  0.00    -0.312 N 
ATOM     12  H32 UNL     1      44.274  29.317  37.747  1.00  0.00     0.170 HD
ATOM     13  H31 UNL     1      42.890  28.163  37.698  1.00  0.00     0.170 HD
ENDBRANCH   8  11
ENDBRANCH   6   8
ENDBRANCH   4   6
BRANCH   1  14
HETATM   14  N1  UNL     1      47.844  26.712  42.928  1.00  0.00    -0.075 N 
ATOM     15  H13 UNL     1      48.462  26.616  43.734  1.00  0.00     0.274 HD
ATOM     16  H12 UNL     1      48.474  26.319  42.229  1.00  0.00     0.274 HD
ATOM     17  H11 UNL     1      47.590  27.681  42.734  1.00  0.00     0.274 HD
ENDBRANCH   1  14
TORSDOF 4
ENDMDL
MODEL 3
REMARK VINA RESULT: -6.705496905      2.898      4.432
REMARK  4 active torsions:
REMARK  status: ('A' for Active; 'I' for Inactive)
REMARK    1  A    between atoms: N1_1  and  C1_5 
REMARK    2  A    between atoms: C4_8  and  N2_9 
REMARK    3  A    between atoms: N2_9  and  S1_11 
REMARK    4  A    between atoms: S1_11  and  N3_12 
ROOT
HETATM    1  C1  UNL     1      44.764  26.275  38.058  1.00  0.00     0.185 C 
HETATM    2  C2  UNL     1      45.839  25.194  38.093  1.00  0.00     0.035 C 
HETATM    3  C3  UNL     1      45.759  24.780  39.568  1.00  0.00     0.028 C 
HETATM    4  C4  UNL     1      45.820  26.117  40.236  1.00  0.00     0.096 C 
HETATM    5  C5  UNL     1      44.881  26.957  39.386  1.00  0.00     0.058 C 
ENDROOT
BRANCH   4   6
HETATM    6  N2  UNL     1      45.327  26.133  41.575  1.00  0.00    -0.298 N 
ATOM      7  H2  UNL     1      44.532  25.569  41.875  1.00  0.00     0.174 HD
BRANCH   6   8
HETATM    8  S1  UNL     1      46.172  27.170  42.633  1.00  0.00     0.313 S 
HETATM    9  O1  UNL     1      45.395  27.213  43.940  1.00  0.00    -0.183 OA
HETATM   10  O2  UNL     1      46.266  28.583  42.120  1.00  0.00    -0.183 OA
BRANCH   8  11
HETATM   11  N3  UNL     1      47.749  26.616  43.013  1.00  0.00    -0.312 N 
ATOM     12  H32 UNL     1      48.474  26.502  42.305  1.00  0.00     0.170 HD
ATOM     13  H31 UNL     1      47.881  26.417  44.005  1.00  0.00     0.170 HD
ENDBRANCH   8  11
ENDBRANCH   6   8
ENDBRANCH   4   6
BRANCH   1  14
HETATM   14  N1  UNL     1      43.470  25.605  37.925  1.00  0.00    -0.075 N 
ATOM     15  H13 UNL     1      42.703  26.253  37.743  1.00  0.00     0.274 HD
ATOM     16  H12 UNL     1      43.391  25.059  37.067  1.00  0.00     0.274 HD
ATOM     17  H11 UNL     1      43.328  25.046  38.766  1.00  0.00     0.274 HD
ENDBRANCH   1  14
TORSDOF 4
ENDMDL
MODEL 4
REMARK VINA RESULT: -6.534922113      2.988      4.299
REMARK  4 active torsions:
REMARK  status: ('A' for Active; 'I' for Inactive)
REMARK    1  A    between atoms: N1_1  and  C1_5 
REMARK    2  A    between atoms: C4_8  and  N2_9 
REMARK    3  A    between atoms: N2_9  and  S1_11 
REMARK    4  A    between atoms: S1_11  and  N3_12 
ROOT
HETATM    1  C1  UNL     1      45.125  26.876  38.454  1.00  0.00     0.185 C 
HETATM    2  C2  UNL     1      44.466  25.500  38.457  1.00  0.00     0.035 C 
HETATM    3  C3  UNL     1      43.917  25.465  39.888  1.00  0.00     0.028 C 
HETATM    4  C4  UNL     1      45.130  25.871  40.662  1.00  0.00     0.096 C 
HETATM    5  C5  UNL     1      45.682  27.021  39.836  1.00  0.00     0.058 C 
ENDROOT
BRANCH   4   6
HETATM    6  N2  UNL     1      44.858  26.367  41.972  1.00  0.00    -0.298 N 
ATOM      7  H2  UNL     1      43.967  26.217  42.443  1.00  0.00     0.174 HD
BRANCH   6   8
HETATM    8  S1  UNL     1      46.144  27.230  42.688  1.00  0.00     0.313 S 
HETATM    9  O1  UNL     1      45.805  27.406  44.160  1.00  0.00    -0.183 OA
HETATM   10  O2  UNL     1      46.325  28.607  42.102  1.00  0.00    -0.183 OA
BRANCH   8  11
HETATM   11  N3  UNL     1      47.642  26.401  42.619  1.00  0.00    -0.312 N 
ATOM     12  H32 UNL     1      47.783  25.572  42.043  1.00  0.00     0.170 HD
ATOM     13  H31 UNL     1      48.364  26.820  43.207  1.00  0.00     0.170 HD
ENDBRANCH   8  11
ENDBRANCH   6   8
ENDBRANCH   4   6
BRANCH   1  14
HETATM   14  N1  UNL     1      44.076  27.865  38.205  1.00  0.00    -0.075 N 
ATOM     15  H13 UNL     1      43.280  27.481  37.694  1.00  0.00     0.274 HD
ATOM     16  H12 UNL     1      43.574  28.134  39.052  1.00  0.00     0.274 HD
ATOM     17  H11 UNL     1      44.508  28.657  37.731  1.00  0.00     0.274 HD
ENDBRANCH   1  14
TORSDOF 4
ENDMDL
MODEL 5
REMARK VINA RESULT: -6.391932213      2.974      4.216
REMARK  4 active torsions:
REMARK  status: ('A' for Active; 'I' for Inactive)
REMARK    1  A    between atoms: N1_1  and  C1_5 
REMARK    2  A    between atoms: C4_8  and  N2_9 
REMARK    3  A    between atoms: N2_9  and  S1_11 
REMARK    4  A    between atoms: S1_11  and  N3_12 
ROOT
HETATM    1  C1  UNL     1      44.705  26.462  38.493  1.00  0.00     0.185 C 
HETATM    2  C2  UNL     1      45.973  25.655  38.235  1.00  0.00     0.035 C 
HETATM    3  C3  UNL     1      46.184  25.031  39.621  1.00  0.00     0.028 C 
HETATM    4  C4  UNL     1      46.060  26.241  40.492  1.00  0.00     0.096 C 
HETATM    5  C5  UNL     1      44.862  26.959  39.896  1.00  0.00     0.058 C 
ENDROOT
BRANCH   4   6
HETATM    6  N2  UNL     1      45.764  25.957  41.859  1.00  0.00    -0.298 N 
ATOM      7  H2  UNL     1      45.766  25.011  42.237  1.00  0.00     0.174 HD
BRANCH   6   8
HETATM    8  S1  UNL     1      45.406  27.328  42.808  1.00  0.00     0.313 S 
HETATM    9  O1  UNL     1      46.030  28.532  42.119  1.00  0.00    -0.183 OA
HETATM   10  O2  UNL     1      45.993  27.252  44.194  1.00  0.00    -0.183 OA
BRANCH   8  11
HETATM   11  N3  UNL     1      43.727  27.646  42.938  1.00  0.00    -0.312 N 
ATOM     12  H32 UNL     1      43.022  26.916  42.841  1.00  0.00     0.170 HD
ATOM     13  H31 UNL     1      43.514  28.627  43.121  1.00  0.00     0.170 HD
ENDBRANCH   8  11
ENDBRANCH   6   8
ENDBRANCH   4   6
BRANCH   1  14
HETATM   14  N1  UNL     1      43.570  25.544  38.386  1.00  0.00    -0.075 N 
ATOM     15  H13 UNL     1      43.843  24.564  38.466  1.00  0.00     0.274 HD
ATOM     16  H12 UNL     1      42.953  25.578  39.197  1.00  0.00     0.274 HD
ATOM     17  H11 UNL     1      43.089  25.753  37.511  1.00  0.00     0.274 HD
ENDBRANCH   1  14
TORSDOF 4
ENDMDL
