MODEL 1
REMARK VINA RESULT: -6.192514777      0.000      0.000
REMARK  4 active torsions:
REMARK  status: ('A' for Active; 'I' for Inactive)
REMARK    1  A    between atoms: O1_1  and  C1_3 
REMARK    2  A    between atoms: C4_9  and  O2_10 
REMARK    3  A    between atoms: O2_10  and  C5_11 
REMARK    4  A    between atoms: C5_11  and  N2_12 
ROOT
HETATM    1  C1  UNL     1      45.230  25.714  39.272  1.00  0.00     0.174 C 
HETATM    2  C2  UNL     1      44.375  25.512  38.047  1.00  0.00     0.266 C 
HETATM    3  N1  UNL     1      43.772  26.773  37.724  1.00  0.00    -0.070 N 
ATOM      4  H11 UNL     1      42.764  26.793  37.880  1.00  0.00     0.277 HD
ATOM      5  H12 UNL     1      43.745  26.967  36.723  1.00  0.00     0.277 HD
HETATM    6  C3  UNL     1      44.508  27.785  38.499  1.00  0.00     0.266 C 
HETATM    7  C4  UNL     1      44.661  27.033  39.808  1.00  0.00     0.179 C 
ENDROOT
BRANCH   7   8
HETATM    8  O2  UNL     1      45.539  27.645  40.680  1.00  0.00    -0.362 OA
BRANCH   8   9
HETATM    9  C5  UNL     1      45.051  27.446  41.971  1.00  0.00     0.299 C 
BRANCH   9  10
HETATM   10  N2  UNL     1      46.021  26.783  42.816  1.00  0.00    -0.330 N 
HETATM   11  C6  UNL     1      46.244  26.933  44.124  1.00  0.00     0.111 A 
HETATM   12  C7  UNL     1      47.281  26.086  44.520  1.00  0.00     0.106 A 
HETATM   13  N3  UNL     1      47.667  25.426  43.408  1.00  0.00    -0.361 N 
HETATM   14  C8  UNL     1      46.909  25.851  42.399  1.00  0.00     0.184 A 
ATOM     15  H3  UNL     1      48.407  24.726  43.351  1.00  0.00     0.166 HD
ENDBRANCH   9  10
ENDBRANCH   8   9
ENDBRANCH   7   8
BRANCH   1  16
HETATM   16  O1  UNL     1      46.530  26.002  38.836  1.00  0.00    -0.391 OA
ATOM     17  H1  UNL     1      47.132  25.557  39.421  1.00  0.00     0.210 HD
ENDBRANCH   1  16
TORSDOF 4
ENDMDL
MODEL 2
REMARK VINA RESULT: -5.964877862      1.082      1.349
REMARK  4 active torsions:
REMARK  status: ('A' for Active; 'I' for Inactive)
REMARK    1  A    between atoms: O1_1  and  C1_3 
REMARK    2  A    between atoms: C4_9  and  O2_10 
REMARK    3  A    between atoms: O2_10  and  C5_11 
REMARK    4  A    between atoms: C5_11  and  N2_12 
ROOT
HETATM    1  C1  UNL     1      45.220  26.889  38.510  1.00  0.00     0.174 C 
HETATM    2  C2  UNL     1      44.201  25.852  38.107  1.00  0.00     0.266 C 
HETATM    3  N1  UNL     1      43.668  25.276  39.307  1.00  0.00    -0.070 N 
ATOM      4  H11 UNL     1      43.946  24.305  39.451  1.00  0.00     0.277 HD
ATOM      5  H12 UNL     1      42.662  25.111  39.268  1.00  0.00     0.277 HD
HETATM    6  C3  UNL     1      44.075  26.172  40.402  1.00  0.00     0.266 C 
HETATM    7  C4  UNL     1      45.494  26.477  39.961  1.00  0.00     0.179 C 
ENDROOT
BRANCH   7   8
HETATM    8  O2  UNL     1      46.070  27.506  40.678  1.00  0.00    -0.362 OA
BRANCH   8   9
HETATM    9  C5  UNL     1      45.495  27.501  41.949  1.00  0.00     0.299 C 
BRANCH   9  10
HETATM   10  N2  UNL     1      46.312  26.787  42.906  1.00  0.00    -0.330 N 
HETATM   11  C6  UNL     1      46.380  26.930  44.232  1.00  0.00     0.111 A 
HETATM   12  C7  UNL     1      47.308  26.026  44.750  1.00  0.00     0.106 A 
HETATM   13  N3  UNL     1      47.790  25.339  43.694  1.00  0.00    -0.361 N 
HETATM   14  C8  UNL     1      47.188  25.803  42.599  1.00  0.00     0.184 A 
ATOM     15  H3  UNL     1      48.489  24.596  43.726  1.00  0.00     0.166 HD
ENDBRANCH   9  10
ENDBRANCH   8   9
ENDBRANCH   7   8
BRANCH   1  16
HETATM   16  O1  UNL     1      44.560  28.123  38.575  1.00  0.00    -0.391 OA
ATOM     17  H1  UNL     1      43.867  28.043  39.220  1.00  0.00     0.210 HD
ENDBRANCH   1  16
TORSDOF 4
ENDMDL
MODEL 3
REMARK VINA RESULT: -5.737762812      0.559      1.006
REMARK  4 active torsions:
REMARK  status: ('A' for Active; 'I' for Inactive)
REMARK    1  A    between atoms: O1_1  and  C1_3 
REMARK    2  A    between atoms: C4_9  and  O2_10 
REMARK    3  A    between atoms: O2_10  and  C5_11 
REMARK    4  A    between atoms: C5_11  and  N2_12 
ROOT
HETATM    1  C1  UNL     1      45.176  25.741  39.224  1.00  0.00     0.174 C 
HETATM    2  C2  UNL     1      44.396  25.491  37.958  1.00  0.00     0.266 C 
HETATM    3  N1  UNL     1      43.740  26.715  37.600  1.00  0.00    -0.070 N 
ATOM      4  H11 UNL     1      42.726  26.680  37.706  1.00  0.00     0.277 HD
ATOM      5  H12 UNL     1      43.753  26.907  36.599  1.00  0.00     0.277 HD
HETATM    6  C3  UNL     1      44.379  27.767  38.408  1.00  0.00     0.266 C 
HETATM    7  C4  UNL     1      44.508  27.027  39.726  1.00  0.00     0.179 C 
ENDROOT
BRANCH   7   8
HETATM    8  O2  UNL     1      45.306  27.687  40.638  1.00  0.00    -0.362 OA
BRANCH   8   9
HETATM    9  C5  UNL     1      44.835  27.369  41.911  1.00  0.00     0.299 C 
BRANCH   9  10
HETATM   10  N2  UNL     1      45.861  26.753  42.726  1.00  0.00    -0.330 N 
HETATM   11  C6  UNL     1      46.709  25.770  42.416  1.00  0.00     0.111 A 
HETATM   12  C7  UNL     1      47.526  25.496  43.514  1.00  0.00     0.106 A 
HETATM   13  N3  UNL     1      47.139  26.347  44.487  1.00  0.00    -0.361 N 
HETATM   14  C8  UNL     1      46.144  27.090  44.005  1.00  0.00     0.184 A 
ATOM     15  H3  UNL     1      47.537  26.410  45.425  1.00  0.00     0.166 HD
ENDBRANCH   9  10
ENDBRANCH   8   9
ENDBRANCH   7   8
BRANCH   1  16
HETATM   16  O1  UNL     1      46.478  26.100  38.852  1.00  0.00    -0.391 OA
ATOM     17  H1  UNL     1      46.737  25.531  38.137  1.00  0.00     0.210 HD
ENDBRANCH   1  16
TORSDOF 4
ENDMDL
MODEL 4
REMARK VINA RESULT: -5.582854180      1.184      1.929
REMARK  4 active torsions:
REMARK  status: ('A' for Active; 'I' for Inactive)
REMARK    1  A    between atoms: O1_1  and  C1_3 
REMARK    2  A    between atoms: C4_9  and  O2_10 
REMARK    3  A    between atoms: O2_10  and  C5_11 
REMARK    4  A    between atoms: C5_11  and  N2_12 
ROOT
HETATM    1  C1  UNL     1      45.023  27.444  38.551  1.00  0.00     0.174 C 
HETATM    2  C2  UNL     1      43.830  26.979  37.755  1.00  0.00     0.266 C 
HETATM    3  N1  UNL     1      43.560  25.621  38.128  1.00  0.00    -0.070 N 
ATOM      4  H11 UNL     1      43.758  24.948  37.388  1.00  0.00     0.277 HD
ATOM      5  H12 UNL     1      42.566  25.414  38.220  1.00  0.00     0.277 HD
HETATM    6  C3  UNL     1      44.326  25.380  39.362  1.00  0.00     0.266 C 
HETATM    7  C4  UNL     1      45.611  26.102  39.003  1.00  0.00     0.179 C 
ENDROOT
BRANCH   7   8
HETATM    8  O2  UNL     1      46.458  26.259  40.081  1.00  0.00    -0.362 OA
BRANCH   8   9
HETATM    9  C5  UNL     1      46.046  25.364  41.069  1.00  0.00     0.299 C 
BRANCH   9  10
HETATM   10  N2  UNL     1      46.370  25.842  42.396  1.00  0.00    -0.330 N 
HETATM   11  C6  UNL     1      47.295  25.398  43.251  1.00  0.00     0.111 A 
HETATM   12  C7  UNL     1      47.252  26.161  44.419  1.00  0.00     0.106 A 
HETATM   13  N3  UNL     1      46.275  27.072  44.234  1.00  0.00    -0.361 N 
HETATM   14  C8  UNL     1      45.756  26.871  43.024  1.00  0.00     0.184 A 
ATOM     15  H3  UNL     1      45.986  27.788  44.901  1.00  0.00     0.166 HD
ENDBRANCH   9  10
ENDBRANCH   8   9
ENDBRANCH   7   8
BRANCH   1  16
HETATM   16  O1  UNL     1      44.540  28.066  39.710  1.00  0.00    -0.391 OA
ATOM     17  H1  UNL     1      43.592  28.007  39.691  1.00  0.00     0.210 HD
ENDBRANCH   1  16
TORSDOF 4
ENDMDL
MODEL 5
REMARK VINA RESULT: -5.382248506      1.231      5.210
REMARK  4 active torsions:
REMARK  status: ('A' for Active; 'I' for Inactive)
REMARK    1  A    between atoms: O1_1  and  C1_3 
REMARK    2  A    between atoms: C4_9  and  O2_10 
REMARK    3  A    between atoms: O2_10  and  C5_11 
REMARK    4  A    between atoms: C5_11  and  N2_12 
ROOT
HETATM    1  C1  UNL     1      45.933  27.062  42.656  1.00  0.00     0.174 C 
HETATM    2  C2  UNL     1      46.348  27.049  44.106  1.00  0.00     0.266 C 
HETATM    3  N1  UNL     1      47.210  25.920  44.303  1.00  0.00    -0.070 N 
ATOM      4  H11 UNL     1      46.794  25.185  44.875  1.00  0.00     0.277 HD
ATOM      5  H12 UNL     1      48.004  26.115  44.912  1.00  0.00     0.277 HD
HETATM    6  C3  UNL     1      47.599  25.468  42.957  1.00  0.00     0.266 C 
HETATM    7  C4  UNL     1      46.267  25.622  42.247  1.00  0.00     0.179 C 
ENDROOT
BRANCH   7   8
HETATM    8  O2  UNL     1      46.371  25.498  40.876  1.00  0.00    -0.362 OA
BRANCH   8   9
HETATM    9  C5  UNL     1      45.105  25.170  40.391  1.00  0.00     0.299 C 
BRANCH   9  10
HETATM   10  N2  UNL     1      44.641  26.127  39.409  1.00  0.00    -0.330 N 
HETATM   11  C6  UNL     1      44.654  27.461  39.458  1.00  0.00     0.111 A 
HETATM   12  C7  UNL     1      44.103  27.976  38.283  1.00  0.00     0.106 A 
HETATM   13  N3  UNL     1      43.762  26.908  37.533  1.00  0.00    -0.361 N 
HETATM   14  C8  UNL     1      44.086  25.811  38.216  1.00  0.00     0.184 A 
ATOM     15  H3  UNL     1      43.332  26.934  36.608  1.00  0.00     0.166 HD
ENDBRANCH   9  10
ENDBRANCH   8   9
ENDBRANCH   7   8
BRANCH   1  16
HETATM   16  O1  UNL     1      46.837  27.880  41.967  1.00  0.00    -0.391 OA
ATOM     17  H1  UNL     1      46.334  28.559  41.533  1.00  0.00     0.210 HD
ENDBRANCH   1  16
TORSDOF 4
ENDMDL
