MODEL 1
REMARK VINA RESULT: -6.255141243      0.000      0.000
REMARK  6 active torsions:
REMARK  status: ('A' for Active; 'I' for Inactive)
REMARK    1  A    between atoms: C1_4  and  C2_5 
REMARK    2  A    between atoms: C3_6  and  C4_7 
REMARK    3  A    between atoms: C4_7  and  N2_8 
REMARK    4  A    between atoms: N2_8  and  C5_10 
REMARK    5  A    between atoms: C8_13  and  O1_14 
REMARK    6  A    between atoms: C10_17  and  O2_18 
ROOT
HETATM    1  C5  UNL     1      44.581  26.804  40.693  1.00  0.00     0.129 C 
HETATM    2  C6  UNL     1      44.471  27.728  39.550  1.00  0.00    -0.001 C 
HETATM    3  C7  UNL     1      44.530  27.347  38.290  1.00  0.00     0.003 C 
HETATM    4  C8  UNL     1      44.717  25.940  37.867  1.00  0.00     0.143 C 
HETATM    5  C9  UNL     1      45.234  25.075  38.983  1.00  0.00     0.070 C 
HETATM    6  C10 UNL     1      44.447  25.379  40.233  1.00  0.00     0.146 C 
ENDROOT
BRANCH   1   7
HETATM    7  N2  UNL     1      43.492  27.011  41.649  1.00  0.00    -0.402 N 
ATOM      8  H2  UNL     1      42.522  26.777  41.435  1.00  0.00     0.154 HD
BRANCH   7   9
HETATM    9  C4  UNL     1      43.887  27.561  42.894  1.00  0.00     0.210 C 
BRANCH   9  10
HETATM   10  C3  UNL     1      45.203  27.036  43.287  1.00  0.00    -0.081 C 
HETATM   11  C2  UNL     1      46.284  26.582  43.591  1.00  0.00    -0.060 C 
BRANCH  11  12
HETATM   12  C1  UNL     1      47.553  26.014  43.938  1.00  0.00     0.146 C 
HETATM   13  N1  UNL     1      48.231  25.363  43.061  1.00  0.00    -0.401 N 
ATOM     14  H12 UNL     1      47.851  25.260  42.120  1.00  0.00     0.156 HD
ATOM     15  H11 UNL     1      49.134  24.959  43.308  1.00  0.00     0.156 HD
ENDBRANCH  11  12
ENDBRANCH   9  10
ENDBRANCH   7   9
ENDBRANCH   1   7
BRANCH   6  16
HETATM   16  O2  UNL     1      43.123  25.124  39.959  1.00  0.00    -0.393 OA
ATOM     17  H2  UNL     1      42.925  24.229  40.211  1.00  0.00     0.210 HD
ENDBRANCH   6  16
BRANCH   4  18
HETATM   18  O1  UNL     1      43.471  25.425  37.427  1.00  0.00    -0.392 OA
ATOM     19  H1  UNL     1      42.772  25.927  37.829  1.00  0.00     0.210 HD
ENDBRANCH   4  18
TORSDOF 6
ENDMDL
MODEL 2
REMARK VINA RESULT: -6.201606442      1.825      2.235
REMARK  6 active torsions:
REMARK  status: ('A' for Active; 'I' for Inactive)
REMARK    1  A    between atoms: C1_4  and  C2_5 
REMARK    2  A    between atoms: C3_6  and  C4_7 
REMARK    3  A    between atoms: C4_7  and  N2_8 
REMARK    4  A    between atoms: N2_8  and  C5_10 
REMARK    5  A    between atoms: C8_13  and  O1_14 
REMARK    6  A    between atoms: C10_17  and  O2_18 
ROOT
HETATM    1  C5  UNL     1      44.336  27.119  39.766  1.00  0.00     0.129 C 
HETATM    2  C6  UNL     1      43.972  25.861  40.443  1.00  0.00    -0.001 C 
HETATM    3  C7  UNL     1      44.617  24.724  40.276  1.00  0.00     0.003 C 
HETATM    4  C8  UNL     1      45.790  24.571  39.384  1.00  0.00     0.143 C 
HETATM    5  C9  UNL     1      45.908  25.703  38.401  1.00  0.00     0.070 C 
HETATM    6  C10 UNL     1      45.695  27.003  39.135  1.00  0.00     0.146 C 
ENDROOT
BRANCH   1   7
HETATM    7  N2  UNL     1      44.440  28.223  40.721  1.00  0.00    -0.402 N 
ATOM      8  H2  UNL     1      44.769  29.151  40.454  1.00  0.00     0.154 HD
BRANCH   7   9
HETATM    9  C4  UNL     1      44.049  27.905  42.046  1.00  0.00     0.210 C 
BRANCH   9  10
HETATM   10  C3  UNL     1      45.162  27.264  42.763  1.00  0.00    -0.081 C 
HETATM   11  C2  UNL     1      46.090  26.730  43.329  1.00  0.00    -0.060 C 
BRANCH  11  12
HETATM   12  C1  UNL     1      47.194  26.079  43.968  1.00  0.00     0.146 C 
HETATM   13  N1  UNL     1      48.032  25.394  43.273  1.00  0.00    -0.401 N 
ATOM     14  H12 UNL     1      47.895  25.324  42.265  1.00  0.00     0.156 HD
ATOM     15  H11 UNL     1      48.819  24.932  43.728  1.00  0.00     0.156 HD
ENDBRANCH  11  12
ENDBRANCH   9  10
ENDBRANCH   7   9
ENDBRANCH   1   7
BRANCH   6  16
HETATM   16  O2  UNL     1      46.651  27.080  40.122  1.00  0.00    -0.393 OA
ATOM     17  H2  UNL     1      47.307  27.717  39.864  1.00  0.00     0.210 HD
ENDBRANCH   6  16
BRANCH   4  18
HETATM   18  O1  UNL     1      46.965  24.526  40.176  1.00  0.00    -0.392 OA
ATOM     19  H1  UNL     1      47.547  23.861  39.826  1.00  0.00     0.210 HD
ENDBRANCH   4  18
TORSDOF 6
ENDMDL
MODEL 3
REMARK VINA RESULT: -5.975339404      1.539      1.996
REMARK  6 active torsions:
REMARK  status: ('A' for Active; 'I' for Inactive)
REMARK    1  A    between atoms: C1_4  and  C2_5 
REMARK    2  A    between atoms: C3_6  and  C4_7 
REMARK    3  A    between atoms: C4_7  and  N2_8 
REMARK    4  A    between atoms: N2_8  and  C5_10 
REMARK    5  A    between atoms: C8_13  and  O1_14 
REMARK    6  A    between atoms: C10_17  and  O2_18 
ROOT
HETATM    1  C5  UNL     1      44.054  27.069  40.000  1.00  0.00     0.129 C 
HETATM    2  C6  UNL     1      44.551  25.769  40.485  1.00  0.00    -0.001 C 
HETATM    3  C7  UNL     1      45.071  24.843  39.703  1.00  0.00     0.003 C 
HETATM    4  C8  UNL     1      45.218  24.997  38.238  1.00  0.00     0.143 C 
HETATM    5  C9  UNL     1      44.360  26.106  37.694  1.00  0.00     0.070 C 
HETATM    6  C10 UNL     1      44.508  27.312  38.587  1.00  0.00     0.146 C 
ENDROOT
BRANCH   1   7
HETATM    7  N2  UNL     1      44.608  28.174  40.784  1.00  0.00    -0.402 N 
ATOM      8  H2  UNL     1      45.154  28.926  40.364  1.00  0.00     0.154 HD
BRANCH   7   9
HETATM    9  C4  UNL     1      44.329  28.118  42.173  1.00  0.00     0.210 C 
BRANCH   9  10
HETATM   10  C3  UNL     1      45.383  27.368  42.873  1.00  0.00    -0.081 C 
HETATM   11  C2  UNL     1      46.258  26.738  43.424  1.00  0.00    -0.060 C 
BRANCH  11  12
HETATM   12  C1  UNL     1      47.293  25.970  44.050  1.00  0.00     0.146 C 
HETATM   13  N1  UNL     1      48.190  25.390  43.333  1.00  0.00    -0.401 N 
ATOM     14  H12 UNL     1      48.150  25.487  42.319  1.00  0.00     0.156 HD
ATOM     15  H11 UNL     1      48.928  24.844  43.778  1.00  0.00     0.156 HD
ENDBRANCH  11  12
ENDBRANCH   9  10
ENDBRANCH   7   9
ENDBRANCH   1   7
BRANCH   6  16
HETATM   16  O2  UNL     1      45.840  27.655  38.601  1.00  0.00    -0.393 OA
ATOM     17  H2  UNL     1      45.942  28.466  39.085  1.00  0.00     0.210 HD
ENDBRANCH   6  16
BRANCH   4  18
HETATM   18  O1  UNL     1      46.575  25.279  37.940  1.00  0.00    -0.392 OA
ATOM     19  H1  UNL     1      46.696  25.250  36.998  1.00  0.00     0.210 HD
ENDBRANCH   4  18
TORSDOF 6
ENDMDL
MODEL 4
REMARK VINA RESULT: -5.137796381      2.291      2.948
REMARK  6 active torsions:
REMARK  status: ('A' for Active; 'I' for Inactive)
REMARK    1  A    between atoms: C1_4  and  C2_5 
REMARK    2  A    between atoms: C3_6  and  C4_7 
REMARK    3  A    between atoms: C4_7  and  N2_8 
REMARK    4  A    between atoms: N2_8  and  C5_10 
REMARK    5  A    between atoms: C8_13  and  O1_14 
REMARK    6  A    between atoms: C10_17  and  O2_18 
ROOT
HETATM    1  C5  UNL     1      45.259  25.347  39.797  1.00  0.00     0.129 C 
HETATM    2  C6  UNL     1      44.650  25.298  38.455  1.00  0.00    -0.001 C 
HETATM    3  C7  UNL     1      44.106  26.339  37.857  1.00  0.00     0.003 C 
HETATM    4  C8  UNL     1      44.037  27.688  38.463  1.00  0.00     0.143 C 
HETATM    5  C9  UNL     1      44.268  27.657  39.949  1.00  0.00     0.070 C 
HETATM    6  C10 UNL     1      45.456  26.772  40.233  1.00  0.00     0.146 C 
ENDROOT
BRANCH   1   7
HETATM    7  N2  UNL     1      46.596  24.750  39.795  1.00  0.00    -0.402 N 
ATOM      8  H2  UNL     1      47.274  24.927  39.054  1.00  0.00     0.154 HD
BRANCH   7   9
HETATM    9  C4  UNL     1      46.874  23.907  40.900  1.00  0.00     0.210 C 
BRANCH   9  10
HETATM   10  C3  UNL     1      47.012  24.706  42.126  1.00  0.00    -0.081 C 
HETATM   11  C2  UNL     1      47.103  25.381  43.128  1.00  0.00    -0.060 C 
BRANCH  11  12
HETATM   12  C1  UNL     1      47.192  26.204  44.297  1.00  0.00     0.146 C 
HETATM   13  N1  UNL     1      46.418  27.222  44.432  1.00  0.00    -0.401 N 
ATOM     14  H12 UNL     1      45.743  27.429  43.696  1.00  0.00     0.156 HD
ATOM     15  H11 UNL     1      46.481  27.807  45.265  1.00  0.00     0.156 HD
ENDBRANCH  11  12
ENDBRANCH   9  10
ENDBRANCH   7   9
ENDBRANCH   1   7
BRANCH   6  16
HETATM   16  O2  UNL     1      46.534  27.298  39.559  1.00  0.00    -0.393 OA
ATOM     17  H2  UNL     1      46.916  27.991  40.085  1.00  0.00     0.210 HD
ENDBRANCH   6  16
BRANCH   4  18
HETATM   18  O1  UNL     1      45.025  28.510  37.862  1.00  0.00    -0.392 OA
ATOM     19  H1  UNL     1      45.217  29.236  38.446  1.00  0.00     0.210 HD
ENDBRANCH   4  18
TORSDOF 6
ENDMDL
MODEL 5
REMARK VINA RESULT: -5.038766881      2.120      2.745
REMARK  6 active torsions:
REMARK  status: ('A' for Active; 'I' for Inactive)
REMARK    1  A    between atoms: C1_4  and  C2_5 
REMARK    2  A    between atoms: C3_6  and  C4_7 
REMARK    3  A    between atoms: C4_7  and  N2_8 
REMARK    4  A    between atoms: N2_8  and  C5_10 
REMARK    5  A    between atoms: C8_13  and  O1_14 
REMARK    6  A    between atoms: C10_17  and  O2_18 
ROOT
HETATM    1  C5  UNL     1      45.351  24.695  39.127  1.00  0.00     0.129 C 
HETATM    2  C6  UNL     1      46.371  25.758  39.068  1.00  0.00    -0.001 C 
HETATM    3  C7  UNL     1      46.098  27.024  38.825  1.00  0.00     0.003 C 
HETATM    4  C8  UNL     1      44.730  27.535  38.580  1.00  0.00     0.143 C 
HETATM    5  C9  UNL     1      43.766  26.434  38.232  1.00  0.00     0.070 C 
HETATM    6  C10 UNL     1      43.973  25.291  39.194  1.00  0.00     0.146 C 
ENDROOT
BRANCH   1   7
HETATM    7  N2  UNL     1      45.491  23.894  40.345  1.00  0.00    -0.402 N 
ATOM      8  H2  UNL     1      44.700  23.429  40.790  1.00  0.00     0.154 HD
BRANCH   7   9
HETATM    9  C4  UNL     1      46.810  23.815  40.859  1.00  0.00     0.210 C 
BRANCH   9  10
HETATM   10  C3  UNL     1      46.953  24.696  42.028  1.00  0.00    -0.081 C 
HETATM   11  C2  UNL     1      47.043  25.417  42.997  1.00  0.00    -0.060 C 
BRANCH  11  12
HETATM   12  C1  UNL     1      47.114  26.275  44.142  1.00  0.00     0.146 C 
HETATM   13  N1  UNL     1      46.257  27.221  44.295  1.00  0.00    -0.401 N 
ATOM     14  H12 UNL     1      45.531  27.348  43.590  1.00  0.00     0.156 HD
ATOM     15  H11 UNL     1      46.307  27.832  45.111  1.00  0.00     0.156 HD
ENDBRANCH  11  12
ENDBRANCH   9  10
ENDBRANCH   7   9
ENDBRANCH   1   7
BRANCH   6  16
HETATM   16  O2  UNL     1      43.760  25.775  40.464  1.00  0.00    -0.393 OA
ATOM     17  H2  UNL     1      44.571  25.718  40.954  1.00  0.00     0.210 HD
ENDBRANCH   6  16
BRANCH   4  18
HETATM   18  O1  UNL     1      44.270  28.194  39.748  1.00  0.00    -0.392 OA
ATOM     19  H1  UNL     1      43.330  28.316  39.683  1.00  0.00     0.210 HD
ENDBRANCH   4  18
TORSDOF 6
ENDMDL
