MODEL 1
REMARK VINA RESULT: -5.140030439      0.000      0.000
REMARK  3 active torsions:
REMARK  status: ('A' for Active; 'I' for Inactive)
REMARK    1  A    between atoms: C2_2  and  C3_3 
REMARK    2  A    between atoms: C3_3  and  N1_4 
REMARK    3  A    between atoms: N2_7  and  N3_8 
REMARK       I    between atoms: N3_8  and  C6_10 
ROOT
HETATM    1  N1  UNL     1      45.176  26.403  42.288  1.00  0.00    -0.384 N 
HETATM    2  C4  UNL     1      46.065  25.923  41.310  1.00  0.00     0.104 C 
HETATM    3  C5  UNL     1      46.141  26.602  40.005  1.00  0.00     0.127 C 
HETATM    4  N2  UNL     1      45.053  27.411  39.629  1.00  0.00    -0.298 N 
HETATM    5  C7  UNL     1      44.313  28.013  40.676  1.00  0.00     0.168 C 
HETATM    6  C8  UNL     1      44.015  27.044  41.773  1.00  0.00     0.144 C 
ENDROOT
BRANCH   4   7
HETATM    7  N3  UNL     1      44.382  27.075  38.492  1.00  0.00    -0.272 N 
HETATM    8  C6  UNL     1      44.124  25.717  38.183  1.00  0.00     0.200 C 
HETATM    9  N4  UNL     1      43.053  25.158  38.620  1.00  0.00    -0.372 N 
HETATM   10  N5  UNL     1      45.027  24.970  37.401  1.00  0.00    -0.062 NA
ATOM     11  H42 UNL     1      42.400  25.700  39.186  1.00  0.00     0.158 HD
ATOM     12  H41 UNL     1      42.868  24.180  38.399  1.00  0.00     0.158 HD
ATOM     13  H3  UNL     1      44.063  27.808  37.857  1.00  0.00     0.190 HD
ENDBRANCH   4   7
BRANCH   1  14
HETATM   14  C3  UNL     1      45.737  26.993  43.460  1.00  0.00     0.148 C 
BRANCH  14  15
HETATM   15  C2  UNL     1      47.090  26.414  43.728  1.00  0.00    -0.018 C 
HETATM   16  C1  UNL     1      47.421  25.795  44.845  1.00  0.00     0.008 C 
ENDBRANCH  14  15
ENDBRANCH   1  14
TORSDOF 3
ENDMDL
MODEL 2
REMARK VINA RESULT: -5.069412476      1.319      2.290
REMARK  3 active torsions:
REMARK  status: ('A' for Active; 'I' for Inactive)
REMARK    1  A    between atoms: C2_2  and  C3_3 
REMARK    2  A    between atoms: C3_3  and  N1_4 
REMARK    3  A    between atoms: N2_7  and  N3_8 
REMARK       I    between atoms: N3_8  and  C6_10 
ROOT
HETATM    1  N1  UNL     1      45.676  27.434  42.627  1.00  0.00    -0.384 N 
HETATM    2  C4  UNL     1      44.371  27.829  42.282  1.00  0.00     0.104 C 
HETATM    3  C5  UNL     1      43.585  27.000  41.352  1.00  0.00     0.127 C 
HETATM    4  N2  UNL     1      44.290  26.105  40.526  1.00  0.00    -0.298 N 
HETATM    5  C7  UNL     1      45.517  25.603  41.027  1.00  0.00     0.168 C 
HETATM    6  C8  UNL     1      46.355  26.685  41.626  1.00  0.00     0.144 C 
ENDROOT
BRANCH   4   7
HETATM    7  N3  UNL     1      44.177  26.270  39.178  1.00  0.00    -0.272 N 
HETATM    8  C6  UNL     1      44.545  27.496  38.571  1.00  0.00     0.200 C 
HETATM    9  N4  UNL     1      45.757  27.677  38.188  1.00  0.00    -0.372 N 
HETATM   10  N5  UNL     1      43.596  28.520  38.379  1.00  0.00    -0.062 NA
ATOM     11  H42 UNL     1      46.444  26.936  38.327  1.00  0.00     0.158 HD
ATOM     12  H41 UNL     1      46.022  28.560  37.751  1.00  0.00     0.158 HD
ATOM     13  H3  UNL     1      43.825  25.505  38.602  1.00  0.00     0.190 HD
ENDBRANCH   4   7
BRANCH   1  14
HETATM   14  C3  UNL     1      45.907  27.016  43.971  1.00  0.00     0.148 C 
BRANCH  14  15
HETATM   15  C2  UNL     1      47.170  26.221  44.052  1.00  0.00    -0.018 C 
HETATM   16  C1  UNL     1      47.514  25.482  45.090  1.00  0.00     0.008 C 
ENDBRANCH  14  15
ENDBRANCH   1  14
TORSDOF 3
ENDMDL
MODEL 3
REMARK VINA RESULT: -5.055195385      1.034      1.406
REMARK  3 active torsions:
REMARK  status: ('A' for Active; 'I' for Inactive)
REMARK    1  A    between atoms: C2_2  and  C3_3 
REMARK    2  A    between atoms: C3_3  and  N1_4 
REMARK    3  A    between atoms: N2_7  and  N3_8 
REMARK       I    between atoms: N3_8  and  C6_10 
ROOT
HETATM    1  N1  UNL     1      45.101  26.722  42.323  1.00  0.00    -0.384 N 
HETATM    2  C4  UNL     1      45.308  25.464  41.731  1.00  0.00     0.104 C 
HETATM    3  C5  UNL     1      46.101  25.367  40.494  1.00  0.00     0.127 C 
HETATM    4  N2  UNL     1      46.256  26.538  39.728  1.00  0.00    -0.298 N 
HETATM    5  C7  UNL     1      46.220  27.769  40.429  1.00  0.00     0.168 C 
HETATM    6  C8  UNL     1      45.097  27.815  41.412  1.00  0.00     0.144 C 
ENDROOT
BRANCH   4   7
HETATM    7  N3  UNL     1      45.781  26.523  38.451  1.00  0.00    -0.272 N 
HETATM    8  C6  UNL     1      44.398  26.695  38.196  1.00  0.00     0.200 C 
HETATM    9  N4  UNL     1      43.923  27.877  38.038  1.00  0.00    -0.372 N 
HETATM   10  N5  UNL     1      43.535  25.584  38.111  1.00  0.00    -0.062 NA
ATOM     11  H42 UNL     1      44.548  28.681  38.099  1.00  0.00     0.158 HD
ATOM     12  H41 UNL     1      42.927  28.001  37.855  1.00  0.00     0.158 HD
ATOM     13  H3  UNL     1      46.427  26.386  37.673  1.00  0.00     0.190 HD
ENDBRANCH   4   7
BRANCH   1  14
HETATM   14  C3  UNL     1      45.726  26.972  43.581  1.00  0.00     0.148 C 
BRANCH  14  15
HETATM   15  C2  UNL     1      46.981  26.169  43.699  1.00  0.00    -0.018 C 
HETATM   16  C1  UNL     1      47.487  25.752  44.844  1.00  0.00     0.008 C 
ENDBRANCH  14  15
ENDBRANCH   1  14
TORSDOF 3
ENDMDL
MODEL 4
REMARK VINA RESULT: -5.049309956      0.927      1.551
REMARK  3 active torsions:
REMARK  status: ('A' for Active; 'I' for Inactive)
REMARK    1  A    between atoms: C2_2  and  C3_3 
REMARK    2  A    between atoms: C3_3  and  N1_4 
REMARK    3  A    between atoms: N2_7  and  N3_8 
REMARK       I    between atoms: N3_8  and  C6_10 
ROOT
HETATM    1  N1  UNL     1      45.896  27.351  42.440  1.00  0.00    -0.384 N 
HETATM    2  C4  UNL     1      45.125  28.417  41.945  1.00  0.00     0.104 C 
HETATM    3  C5  UNL     1      44.112  28.157  40.908  1.00  0.00     0.127 C 
HETATM    4  N2  UNL     1      44.240  26.973  40.157  1.00  0.00    -0.298 N 
HETATM    5  C7  UNL     1      44.869  25.876  40.795  1.00  0.00     0.168 C 
HETATM    6  C8  UNL     1      46.110  26.291  41.516  1.00  0.00     0.144 C 
ENDROOT
BRANCH   4   7
HETATM    7  N3  UNL     1      44.399  27.097  38.809  1.00  0.00    -0.272 N 
HETATM    8  C6  UNL     1      44.580  25.949  37.998  1.00  0.00     0.200 C 
HETATM    9  N4  UNL     1      43.556  25.342  37.518  1.00  0.00    -0.372 N 
HETATM   10  N5  UNL     1      45.872  25.466  37.709  1.00  0.00    -0.062 NA
ATOM     11  H42 UNL     1      42.621  25.692  37.727  1.00  0.00     0.158 HD
ATOM     12  H41 UNL     1      43.686  24.515  36.935  1.00  0.00     0.158 HD
ATOM     13  H3  UNL     1      44.387  28.023  38.381  1.00  0.00     0.190 HD
ENDBRANCH   4   7
BRANCH   1  14
HETATM   14  C3  UNL     1      45.684  26.954  43.794  1.00  0.00     0.148 C 
BRANCH  14  15
HETATM   15  C2  UNL     1      46.992  26.646  44.450  1.00  0.00    -0.018 C 
HETATM   16  C1  UNL     1      47.546  25.449  44.468  1.00  0.00     0.008 C 
ENDBRANCH  14  15
ENDBRANCH   1  14
TORSDOF 3
ENDMDL
MODEL 5
REMARK VINA RESULT: -5.045459646      1.767      4.977
REMARK  3 active torsions:
REMARK  status: ('A' for Active; 'I' for Inactive)
REMARK    1  A    between atoms: C2_2  and  C3_3 
REMARK    2  A    between atoms: C3_3  and  N1_4 
REMARK    3  A    between atoms: N2_7  and  N3_8 
REMARK       I    between atoms: N3_8  and  C6_10 
ROOT
HETATM    1  N1  UNL     1      44.253  25.566  40.664  1.00  0.00    -0.384 N 
HETATM    2  C4  UNL     1      43.997  26.661  41.507  1.00  0.00     0.104 C 
HETATM    3  C5  UNL     1      45.039  27.683  41.705  1.00  0.00     0.127 C 
HETATM    4  N2  UNL     1      46.366  27.324  41.404  1.00  0.00    -0.298 N 
HETATM    5  C7  UNL     1      46.550  26.337  40.404  1.00  0.00     0.168 C 
HETATM    6  C8  UNL     1      45.621  25.182  40.587  1.00  0.00     0.144 C 
ENDROOT
BRANCH   4   7
HETATM    7  N3  UNL     1      47.278  27.377  42.415  1.00  0.00    -0.272 N 
HETATM    8  C6  UNL     1      47.112  26.581  43.576  1.00  0.00     0.200 C 
HETATM    9  N4  UNL     1      47.596  25.393  43.606  1.00  0.00    -0.372 N 
HETATM   10  N5  UNL     1      46.422  27.079  44.700  1.00  0.00    -0.062 NA
ATOM     11  H42 UNL     1      48.095  25.033  42.793  1.00  0.00     0.158 HD
ATOM     12  H41 UNL     1      47.476  24.820  44.442  1.00  0.00     0.158 HD
ATOM     13  H3  UNL     1      48.086  27.994  42.336  1.00  0.00     0.190 HD
ENDBRANCH   4   7
BRANCH   1  14
HETATM   14  C3  UNL     1      43.522  25.486  39.441  1.00  0.00     0.148 C 
BRANCH  14  15
HETATM   15  C2  UNL     1      44.263  26.194  38.353  1.00  0.00    -0.018 C 
HETATM   16  C1  UNL     1      44.132  27.479  38.084  1.00  0.00     0.008 C 
ENDBRANCH  14  15
ENDBRANCH   1  14
TORSDOF 3
ENDMDL
