MODEL 1
REMARK VINA RESULT: -5.625321073      0.000      0.000
REMARK  5 active torsions:
REMARK  status: ('A' for Active; 'I' for Inactive)
REMARK    1  A    between atoms: C3_3  and  N1_4 
REMARK    2  A    between atoms: N1_4  and  C4_6 
REMARK    3  A    between atoms: C4_6  and  C5_10 
REMARK    4  A    between atoms: C5_10  and  N3_11 
REMARK    5  A    between atoms: C8_14  and  N4_15 
ROOT
HETATM    1  C1  UNL     1      43.753  28.481  41.474  1.00  0.00     0.014 C 
HETATM    2  C2  UNL     1      44.724  28.156  42.084  1.00  0.00    -0.098 C 
HETATM    3  C3  UNL     1      45.915  27.746  42.853  1.00  0.00     0.214 C 
ENDROOT
BRANCH   3   4
HETATM    4  N1  UNL     1      45.811  26.315  43.082  1.00  0.00    -0.368 N 
ATOM      5  H1  UNL     1      45.066  25.910  43.649  1.00  0.00     0.161 HD
BRANCH   4   6
HETATM    6  C4  UNL     1      46.809  25.518  42.470  1.00  0.00     0.100 C 
HETATM    7  N2  UNL     1      47.992  25.539  42.954  1.00  0.00    -0.388 N 
ATOM      8  H22 UNL     1      48.208  26.120  43.764  1.00  0.00     0.157 HD
ATOM      9  H21 UNL     1      48.711  24.965  42.513  1.00  0.00     0.157 HD
BRANCH   6  10
HETATM   10  C5  UNL     1      46.489  24.658  41.272  1.00  0.00     0.347 C 
BRANCH  10  11
HETATM   11  N3  UNL     1      45.689  25.485  40.400  1.00  0.00     0.097 N 
HETATM   12  C6  UNL     1      46.446  26.379  39.592  1.00  0.00     0.275 C 
HETATM   13  C7  UNL     1      45.422  26.802  38.557  1.00  0.00     0.065 C 
HETATM   14  C8  UNL     1      44.780  25.443  38.259  1.00  0.00     0.213 C 
HETATM   15  C9  UNL     1      44.746  24.773  39.618  1.00  0.00     0.305 C 
BRANCH  14  16
HETATM   16  N4  UNL     1      43.458  25.586  37.708  1.00  0.00    -0.073 N 
ATOM     17  H43 UNL     1      43.150  24.726  37.253  1.00  0.00     0.274 HD
ATOM     18  H42 UNL     1      42.753  25.640  38.442  1.00  0.00     0.274 HD
ATOM     19  H41 UNL     1      43.396  26.384  37.075  1.00  0.00     0.274 HD
ENDBRANCH  14  16
ENDBRANCH  10  11
ENDBRANCH   6  10
ENDBRANCH   4   6
ENDBRANCH   3   4
TORSDOF 5
ENDMDL
MODEL 2
REMARK VINA RESULT: -5.527183656      1.783      4.760
REMARK  5 active torsions:
REMARK  status: ('A' for Active; 'I' for Inactive)
REMARK    1  A    between atoms: C3_3  and  N1_4 
REMARK    2  A    between atoms: N1_4  and  C4_6 
REMARK    3  A    between atoms: C4_6  and  C5_10 
REMARK    4  A    between atoms: C5_10  and  N3_11 
REMARK    5  A    between atoms: C8_14  and  N4_15 
ROOT
HETATM    1  C1  UNL     1      46.175  25.302  38.379  1.00  0.00     0.014 C 
HETATM    2  C2  UNL     1      45.300  26.110  38.431  1.00  0.00    -0.098 C 
HETATM    3  C3  UNL     1      44.217  27.108  38.513  1.00  0.00     0.214 C 
ENDROOT
BRANCH   3   4
HETATM    4  N1  UNL     1      44.658  28.152  39.423  1.00  0.00    -0.368 N 
ATOM      5  H1  UNL     1      45.362  28.840  39.157  1.00  0.00     0.161 HD
BRANCH   4   6
HETATM    6  C4  UNL     1      44.049  28.153  40.702  1.00  0.00     0.100 C 
HETATM    7  N2  UNL     1      43.446  29.210  41.092  1.00  0.00    -0.388 N 
ATOM      8  H22 UNL     1      43.407  30.033  40.493  1.00  0.00     0.157 HD
ATOM      9  H21 UNL     1      43.007  29.211  42.014  1.00  0.00     0.157 HD
BRANCH   6  10
HETATM   10  C5  UNL     1      44.107  26.934  41.590  1.00  0.00     0.347 C 
BRANCH  10  11
HETATM   11  N3  UNL     1      45.400  26.976  42.229  1.00  0.00     0.097 N 
HETATM   12  C6  UNL     1      45.344  27.120  43.644  1.00  0.00     0.275 C 
HETATM   13  C7  UNL     1      46.758  26.751  44.048  1.00  0.00     0.065 C 
HETATM   14  C8  UNL     1      46.972  25.528  43.149  1.00  0.00     0.213 C 
HETATM   15  C9  UNL     1      46.272  25.920  41.863  1.00  0.00     0.305 C 
BRANCH  14  16
HETATM   16  N4  UNL     1      48.370  25.266  42.929  1.00  0.00    -0.073 N 
ATOM     17  H43 UNL     1      48.921  25.464  43.764  1.00  0.00     0.274 HD
ATOM     18  H42 UNL     1      48.553  24.266  42.850  1.00  0.00     0.274 HD
ATOM     19  H41 UNL     1      48.728  25.773  42.119  1.00  0.00     0.274 HD
ENDBRANCH  14  16
ENDBRANCH  10  11
ENDBRANCH   6  10
ENDBRANCH   4   6
ENDBRANCH   3   4
TORSDOF 5
ENDMDL
MODEL 3
REMARK VINA RESULT: -5.505232111      1.723      3.164
REMARK  5 active torsions:
REMARK  status: ('A' for Active; 'I' for Inactive)
REMARK    1  A    between atoms: C3_3  and  N1_4 
REMARK    2  A    between atoms: N1_4  and  C4_6 
REMARK    3  A    between atoms: C4_6  and  C5_10 
REMARK    4  A    between atoms: C5_10  and  N3_11 
REMARK    5  A    between atoms: C8_14  and  N4_15 
ROOT
HETATM    1  C1  UNL     1      47.331  25.479  42.945  1.00  0.00     0.014 C 
HETATM    2  C2  UNL     1      46.491  26.324  42.987  1.00  0.00    -0.098 C 
HETATM    3  C3  UNL     1      45.463  27.381  43.033  1.00  0.00     0.214 C 
ENDROOT
BRANCH   3   4
HETATM    4  N1  UNL     1      45.464  28.042  41.739  1.00  0.00    -0.368 N 
ATOM      5  H1  UNL     1      46.320  28.389  41.308  1.00  0.00     0.161 HD
BRANCH   4   6
HETATM    6  C4  UNL     1      44.200  28.175  41.114  1.00  0.00     0.100 C 
HETATM    7  N2  UNL     1      43.160  28.279  41.850  1.00  0.00    -0.388 N 
ATOM      8  H22 UNL     1      43.243  28.264  42.866  1.00  0.00     0.157 HD
ATOM      9  H21 UNL     1      42.249  28.374  41.399  1.00  0.00     0.157 HD
BRANCH   6  10
HETATM   10  C5  UNL     1      44.076  28.196  39.609  1.00  0.00     0.347 C 
BRANCH  10  11
HETATM   11  N3  UNL     1      44.524  26.899  39.162  1.00  0.00     0.097 N 
HETATM   12  C6  UNL     1      45.936  26.791  39.019  1.00  0.00     0.275 C 
HETATM   13  C7  UNL     1      46.124  25.289  38.931  1.00  0.00     0.065 C 
HETATM   14  C8  UNL     1      45.168  24.845  40.044  1.00  0.00     0.213 C 
HETATM   15  C9  UNL     1      44.007  25.809  39.907  1.00  0.00     0.305 C 
BRANCH  14  16
HETATM   16  N4  UNL     1      44.743  23.480  39.870  1.00  0.00    -0.073 N 
ATOM     17  H43 UNL     1      44.892  23.165  38.911  1.00  0.00     0.274 HD
ATOM     18  H42 UNL     1      45.368  22.833  40.350  1.00  0.00     0.274 HD
ATOM     19  H41 UNL     1      43.775  23.346  40.159  1.00  0.00     0.274 HD
ENDBRANCH  14  16
ENDBRANCH  10  11
ENDBRANCH   6  10
ENDBRANCH   4   6
ENDBRANCH   3   4
TORSDOF 5
ENDMDL
MODEL 4
REMARK VINA RESULT: -5.273960392      1.238      4.192
REMARK  5 active torsions:
REMARK  status: ('A' for Active; 'I' for Inactive)
REMARK    1  A    between atoms: C3_3  and  N1_4 
REMARK    2  A    between atoms: N1_4  and  C4_6 
REMARK    3  A    between atoms: C4_6  and  C5_10 
REMARK    4  A    between atoms: C5_10  and  N3_11 
REMARK    5  A    between atoms: C8_14  and  N4_15 
ROOT
HETATM    1  C1  UNL     1      43.505  29.211  40.979  1.00  0.00     0.014 C 
HETATM    2  C2  UNL     1      43.798  28.831  39.888  1.00  0.00    -0.098 C 
HETATM    3  C3  UNL     1      44.179  28.362  38.542  1.00  0.00     0.214 C 
ENDROOT
BRANCH   3   4
HETATM    4  N1  UNL     1      45.032  27.198  38.715  1.00  0.00    -0.368 N 
ATOM      5  H1  UNL     1      46.048  27.272  38.755  1.00  0.00     0.161 HD
BRANCH   4   6
HETATM    6  C4  UNL     1      44.364  25.954  38.823  1.00  0.00     0.100 C 
HETATM    7  N2  UNL     1      43.732  25.506  37.807  1.00  0.00    -0.388 N 
ATOM      8  H22 UNL     1      43.712  26.038  36.937  1.00  0.00     0.157 HD
ATOM      9  H21 UNL     1      43.251  24.610  37.885  1.00  0.00     0.157 HD
BRANCH   6  10
HETATM   10  C5  UNL     1      44.394  25.167  40.111  1.00  0.00     0.347 C 
BRANCH  10  11
HETATM   11  N3  UNL     1      45.385  25.809  40.939  1.00  0.00     0.097 N 
HETATM   12  C6  UNL     1      44.854  26.430  42.105  1.00  0.00     0.275 C 
HETATM   13  C7  UNL     1      46.105  26.658  42.931  1.00  0.00     0.065 C 
HETATM   14  C8  UNL     1      46.806  25.312  42.713  1.00  0.00     0.213 C 
HETATM   15  C9  UNL     1      46.499  24.994  41.264  1.00  0.00     0.305 C 
BRANCH  14  16
HETATM   16  N4  UNL     1      48.224  25.406  42.943  1.00  0.00    -0.073 N 
ATOM     17  H43 UNL     1      48.753  24.973  42.185  1.00  0.00     0.274 HD
ATOM     18  H42 UNL     1      48.554  26.366  42.840  1.00  0.00     0.274 HD
ATOM     19  H41 UNL     1      48.487  25.018  43.848  1.00  0.00     0.274 HD
ENDBRANCH  14  16
ENDBRANCH  10  11
ENDBRANCH   6  10
ENDBRANCH   4   6
ENDBRANCH   3   4
TORSDOF 5
ENDMDL
MODEL 5
REMARK VINA RESULT: -5.268979503      1.730      4.365
REMARK  5 active torsions:
REMARK  status: ('A' for Active; 'I' for Inactive)
REMARK    1  A    between atoms: C3_3  and  N1_4 
REMARK    2  A    between atoms: N1_4  and  C4_6 
REMARK    3  A    between atoms: C4_6  and  C5_10 
REMARK    4  A    between atoms: C5_10  and  N3_11 
REMARK    5  A    between atoms: C8_14  and  N4_15 
ROOT
HETATM    1  C1  UNL     1      45.032  25.309  38.017  1.00  0.00     0.014 C 
HETATM    2  C2  UNL     1      44.714  26.397  38.387  1.00  0.00    -0.098 C 
HETATM    3  C3  UNL     1      44.317  27.736  38.860  1.00  0.00     0.214 C 
ENDROOT
BRANCH   3   4
HETATM    4  N1  UNL     1      45.038  27.990  40.096  1.00  0.00    -0.368 N 
ATOM      5  H1  UNL     1      46.056  28.047  40.127  1.00  0.00     0.161 HD
BRANCH   4   6
HETATM    6  C4  UNL     1      44.240  28.153  41.255  1.00  0.00     0.100 C 
HETATM    7  N2  UNL     1      43.385  29.103  41.281  1.00  0.00    -0.388 N 
ATOM      8  H22 UNL     1      43.285  29.729  40.483  1.00  0.00     0.157 HD
ATOM      9  H21 UNL     1      42.810  29.221  42.116  1.00  0.00     0.157 HD
BRANCH   6  10
HETATM   10  C5  UNL     1      44.389  27.226  42.437  1.00  0.00     0.347 C 
BRANCH  10  11
HETATM   11  N3  UNL     1      45.728  26.696  42.351  1.00  0.00     0.097 N 
HETATM   12  C6  UNL     1      46.390  26.584  43.606  1.00  0.00     0.275 C 
HETATM   13  C7  UNL     1      47.554  25.676  43.261  1.00  0.00     0.065 C 
HETATM   14  C8  UNL     1      46.828  24.646  42.389  1.00  0.00     0.213 C 
HETATM   15  C9  UNL     1      45.836  25.489  41.614  1.00  0.00     0.305 C 
BRANCH  14  16
HETATM   16  N4  UNL     1      47.736  23.957  41.508  1.00  0.00    -0.073 N 
ATOM     17  H43 UNL     1      47.247  23.268  40.936  1.00  0.00     0.274 HD
ATOM     18  H42 UNL     1      48.071  24.571  40.767  1.00  0.00     0.274 HD
ATOM     19  H41 UNL     1      48.511  23.535  42.019  1.00  0.00     0.274 HD
ENDBRANCH  14  16
ENDBRANCH  10  11
ENDBRANCH   6  10
ENDBRANCH   4   6
ENDBRANCH   3   4
TORSDOF 5
ENDMDL
