MODEL 1
REMARK VINA RESULT: -5.388938775      0.000      0.000
REMARK  8 active torsions:
REMARK  status: ('A' for Active; 'I' for Inactive)
REMARK    1  A    between atoms: C3_3  and  C5_5 
REMARK    2  A    between atoms: C5_5  and  N1_7 
REMARK    3  A    between atoms: N1_7  and  C7_9 
REMARK    4  A    between atoms: C7_9  and  N2_11 
REMARK    5  A    between atoms: N2_11  and  N3_13 
REMARK    6  A    between atoms: N3_13  and  C8_15 
REMARK    7  A    between atoms: C8_15  and  N4_17 
REMARK    8  A    between atoms: N4_17  and  C9_19 
ROOT
HETATM    1  C1  UNL     1      13.549  -6.688  23.033  1.00  0.00     0.097 C 
HETATM    2  C2  UNL     1      14.623  -6.508  23.606  1.00  0.00    -0.181 C 
HETATM    3  C3  UNL     1      15.891  -6.323  24.228  1.00  0.00     0.070 C 
HETATM    4  C4  UNL     1      16.572  -7.714  24.237  1.00  0.00     0.024 C 
ENDROOT
BRANCH   3   5
HETATM    5  C5  UNL     1      15.835  -5.837  25.622  1.00  0.00     0.094 C 
HETATM    6  C6  UNL     1      15.189  -4.443  25.598  1.00  0.00     0.033 C 
BRANCH   5   7
HETATM    7  N1  UNL     1      17.015  -5.808  26.395  1.00  0.00    -0.361 N 
ATOM      8  H1  UNL     1      17.831  -5.471  25.884  1.00  0.00     0.162 HD
BRANCH   7   9
HETATM    9  C7  UNL     1      17.288  -6.149  27.719  1.00  0.00     0.186 C 
HETATM   10  S1  UNL     1      18.772  -6.047  28.359  1.00  0.00    -0.040 SA
BRANCH   9  11
HETATM   11  N2  UNL     1      16.231  -6.564  28.576  1.00  0.00    -0.274 N 
ATOM     12  H2  UNL     1      15.642  -7.342  28.277  1.00  0.00     0.189 HD
BRANCH  11  13
HETATM   13  N3  UNL     1      15.959  -5.965  29.798  1.00  0.00    -0.274 N 
ATOM     14  H3  UNL     1      16.448  -6.265  30.642  1.00  0.00     0.189 HD
BRANCH  13  15
HETATM   15  C8  UNL     1      14.989  -4.927  29.856  1.00  0.00     0.186 C 
HETATM   16  S2  UNL     1      13.682  -5.068  30.849  1.00  0.00    -0.040 SA
BRANCH  15  17
HETATM   17  N4  UNL     1      15.119  -3.753  29.071  1.00  0.00    -0.366 N 
ATOM     18  H4  UNL     1      14.387  -3.522  28.400  1.00  0.00     0.161 HD
BRANCH  17  19
HETATM   19  C9  UNL     1      16.249  -2.886  29.194  1.00  0.00     0.117 C 
HETATM   20  C10 UNL     1      15.878  -1.580  29.826  1.00  0.00     0.026 C 
ENDBRANCH  17  19
ENDBRANCH  15  17
ENDBRANCH  13  15
ENDBRANCH  11  13
ENDBRANCH   9  11
ENDBRANCH   7   9
ENDBRANCH   5   7
ENDBRANCH   3   5
TORSDOF 8
ENDMDL
MODEL 2
REMARK VINA RESULT: -5.334072645      1.409      2.047
REMARK  8 active torsions:
REMARK  status: ('A' for Active; 'I' for Inactive)
REMARK    1  A    between atoms: C3_3  and  C5_5 
REMARK    2  A    between atoms: C5_5  and  N1_7 
REMARK    3  A    between atoms: N1_7  and  C7_9 
REMARK    4  A    between atoms: C7_9  and  N2_11 
REMARK    5  A    between atoms: N2_11  and  N3_13 
REMARK    6  A    between atoms: N3_13  and  C8_15 
REMARK    7  A    between atoms: C8_15  and  N4_17 
REMARK    8  A    between atoms: N4_17  and  C9_19 
ROOT
HETATM    1  C1  UNL     1      13.555  -6.697  23.065  1.00  0.00     0.097 C 
HETATM    2  C2  UNL     1      14.625  -6.497  23.637  1.00  0.00    -0.181 C 
HETATM    3  C3  UNL     1      15.890  -6.285  24.258  1.00  0.00     0.070 C 
HETATM    4  C4  UNL     1      16.609  -7.657  24.245  1.00  0.00     0.024 C 
ENDROOT
BRANCH   3   5
HETATM    5  C5  UNL     1      15.825  -5.821  25.658  1.00  0.00     0.094 C 
HETATM    6  C6  UNL     1      15.113  -4.460  25.660  1.00  0.00     0.033 C 
BRANCH   5   7
HETATM    7  N1  UNL     1      17.011  -5.745  26.420  1.00  0.00    -0.361 N 
ATOM      8  H1  UNL     1      17.808  -5.377  25.901  1.00  0.00     0.162 HD
BRANCH   7   9
HETATM    9  C7  UNL     1      17.310  -6.074  27.742  1.00  0.00     0.186 C 
HETATM   10  S1  UNL     1      18.789  -5.887  28.375  1.00  0.00    -0.040 SA
BRANCH   9  11
HETATM   11  N2  UNL     1      16.283  -6.552  28.603  1.00  0.00    -0.274 N 
ATOM     12  H2  UNL     1      15.733  -7.356  28.300  1.00  0.00     0.189 HD
BRANCH  11  13
HETATM   13  N3  UNL     1      15.991  -5.981  29.834  1.00  0.00    -0.274 N 
ATOM     14  H3  UNL     1      16.374  -6.377  30.692  1.00  0.00     0.189 HD
BRANCH  13  15
HETATM   15  C8  UNL     1      15.151  -4.835  29.879  1.00  0.00     0.186 C 
HETATM   16  S2  UNL     1      15.791  -3.329  29.681  1.00  0.00    -0.040 SA
BRANCH  15  17
HETATM   17  N4  UNL     1      13.754  -4.954  30.092  1.00  0.00    -0.366 N 
ATOM     18  H4  UNL     1      13.134  -5.030  29.287  1.00  0.00     0.161 HD
BRANCH  17  19
HETATM   19  C9  UNL     1      13.192  -4.970  31.407  1.00  0.00     0.117 C 
HETATM   20  C10 UNL     1      11.841  -5.616  31.424  1.00  0.00     0.026 C 
ENDBRANCH  17  19
ENDBRANCH  15  17
ENDBRANCH  13  15
ENDBRANCH  11  13
ENDBRANCH   9  11
ENDBRANCH   7   9
ENDBRANCH   5   7
ENDBRANCH   3   5
TORSDOF 8
ENDMDL
MODEL 3
REMARK VINA RESULT: -5.327257134      1.599      2.228
REMARK  8 active torsions:
REMARK  status: ('A' for Active; 'I' for Inactive)
REMARK    1  A    between atoms: C3_3  and  C5_5 
REMARK    2  A    between atoms: C5_5  and  N1_7 
REMARK    3  A    between atoms: N1_7  and  C7_9 
REMARK    4  A    between atoms: C7_9  and  N2_11 
REMARK    5  A    between atoms: N2_11  and  N3_13 
REMARK    6  A    between atoms: N3_13  and  C8_15 
REMARK    7  A    between atoms: C8_15  and  N4_17 
REMARK    8  A    between atoms: N4_17  and  C9_19 
ROOT
HETATM    1  C1  UNL     1      13.643  -6.811  22.884  1.00  0.00     0.097 C 
HETATM    2  C2  UNL     1      14.708  -6.650  23.478  1.00  0.00    -0.181 C 
HETATM    3  C3  UNL     1      15.967  -6.488  24.125  1.00  0.00     0.070 C 
HETATM    4  C4  UNL     1      16.605  -7.898  24.183  1.00  0.00     0.024 C 
ENDROOT
BRANCH   3   5
HETATM    5  C5  UNL     1      15.893  -5.967  25.505  1.00  0.00     0.094 C 
HETATM    6  C6  UNL     1      15.259  -4.570  25.436  1.00  0.00     0.033 C 
BRANCH   5   7
HETATM    7  N1  UNL     1      17.062  -5.927  26.295  1.00  0.00    -0.361 N 
ATOM      8  H1  UNL     1      17.904  -5.694  25.768  1.00  0.00     0.162 HD
BRANCH   7   9
HETATM    9  C7  UNL     1      17.295  -6.142  27.653  1.00  0.00     0.186 C 
HETATM   10  S1  UNL     1      18.773  -6.059  28.309  1.00  0.00    -0.040 SA
BRANCH   9  11
HETATM   11  N2  UNL     1      16.202  -6.402  28.527  1.00  0.00    -0.274 N 
ATOM     12  H2  UNL     1      15.994  -7.371  28.766  1.00  0.00     0.189 HD
BRANCH  11  13
HETATM   13  N3  UNL     1      15.405  -5.404  29.070  1.00  0.00    -0.274 N 
ATOM     14  H3  UNL     1      15.390  -4.471  28.657  1.00  0.00     0.189 HD
BRANCH  13  15
HETATM   15  C8  UNL     1      14.610  -5.701  30.210  1.00  0.00     0.186 C 
HETATM   16  S2  UNL     1      15.103  -6.848  31.288  1.00  0.00    -0.040 SA
BRANCH  15  17
HETATM   17  N4  UNL     1      13.387  -5.027  30.452  1.00  0.00    -0.366 N 
ATOM     18  H4  UNL     1      12.996  -4.431  29.722  1.00  0.00     0.161 HD
BRANCH  17  19
HETATM   19  C9  UNL     1      12.686  -5.160  31.691  1.00  0.00     0.117 C 
HETATM   20  C10 UNL     1      11.336  -5.780  31.500  1.00  0.00     0.026 C 
ENDBRANCH  17  19
ENDBRANCH  15  17
ENDBRANCH  13  15
ENDBRANCH  11  13
ENDBRANCH   9  11
ENDBRANCH   7   9
ENDBRANCH   5   7
ENDBRANCH   3   5
TORSDOF 8
ENDMDL
MODEL 4
REMARK VINA RESULT: -5.321669745      1.811      2.454
REMARK  8 active torsions:
REMARK  status: ('A' for Active; 'I' for Inactive)
REMARK    1  A    between atoms: C3_3  and  C5_5 
REMARK    2  A    between atoms: C5_5  and  N1_7 
REMARK    3  A    between atoms: N1_7  and  C7_9 
REMARK    4  A    between atoms: C7_9  and  N2_11 
REMARK    5  A    between atoms: N2_11  and  N3_13 
REMARK    6  A    between atoms: N3_13  and  C8_15 
REMARK    7  A    between atoms: C8_15  and  N4_17 
REMARK    8  A    between atoms: N4_17  and  C9_19 
ROOT
HETATM    1  C1  UNL     1      13.588  -6.835  22.772  1.00  0.00     0.097 C 
HETATM    2  C2  UNL     1      14.589  -6.558  23.431  1.00  0.00    -0.181 C 
HETATM    3  C3  UNL     1      15.778  -6.259  24.157  1.00  0.00     0.070 C 
HETATM    4  C4  UNL     1      16.554  -7.594  24.278  1.00  0.00     0.024 C 
ENDROOT
BRANCH   3   5
HETATM    5  C5  UNL     1      15.560  -5.737  25.521  1.00  0.00     0.094 C 
HETATM    6  C6  UNL     1      15.133  -4.267  25.388  1.00  0.00     0.033 C 
BRANCH   5   7
HETATM    7  N1  UNL     1      16.586  -5.855  26.482  1.00  0.00    -0.361 N 
ATOM      8  H1  UNL     1      17.460  -6.221  26.105  1.00  0.00     0.162 HD
BRANCH   7   9
HETATM    9  C7  UNL     1      16.643  -5.572  27.847  1.00  0.00     0.186 C 
HETATM   10  S1  UNL     1      17.985  -5.027  28.570  1.00  0.00    -0.040 SA
BRANCH   9  11
HETATM   11  N2  UNL     1      15.476  -5.716  28.649  1.00  0.00    -0.274 N 
ATOM     12  H2  UNL     1      15.252  -6.642  29.014  1.00  0.00     0.189 HD
BRANCH  11  13
HETATM   13  N3  UNL     1      14.629  -4.662  28.960  1.00  0.00    -0.274 N 
ATOM     14  H3  UNL     1      14.390  -3.965  28.255  1.00  0.00     0.189 HD
BRANCH  13  15
HETATM   15  C8  UNL     1      14.099  -4.569  30.276  1.00  0.00     0.186 C 
HETATM   16  S2  UNL     1      14.851  -3.637  31.408  1.00  0.00    -0.040 SA
BRANCH  15  17
HETATM   17  N4  UNL     1      12.922  -5.267  30.648  1.00  0.00    -0.366 N 
ATOM     18  H4  UNL     1      12.437  -5.829  29.948  1.00  0.00     0.161 HD
BRANCH  17  19
HETATM   19  C9  UNL     1      12.397  -5.204  31.976  1.00  0.00     0.117 C 
HETATM   20  C10 UNL     1      10.968  -5.648  32.027  1.00  0.00     0.026 C 
ENDBRANCH  17  19
ENDBRANCH  15  17
ENDBRANCH  13  15
ENDBRANCH  11  13
ENDBRANCH   9  11
ENDBRANCH   7   9
ENDBRANCH   5   7
ENDBRANCH   3   5
TORSDOF 8
ENDMDL
MODEL 5
REMARK VINA RESULT: -5.211074775      2.473      3.199
REMARK  8 active torsions:
REMARK  status: ('A' for Active; 'I' for Inactive)
REMARK    1  A    between atoms: C3_3  and  C5_5 
REMARK    2  A    between atoms: C5_5  and  N1_7 
REMARK    3  A    between atoms: N1_7  and  C7_9 
REMARK    4  A    between atoms: C7_9  and  N2_11 
REMARK    5  A    between atoms: N2_11  and  N3_13 
REMARK    6  A    between atoms: N3_13  and  C8_15 
REMARK    7  A    between atoms: C8_15  and  N4_17 
REMARK    8  A    between atoms: N4_17  and  C9_19 
ROOT
HETATM    1  C1  UNL     1      13.614  -6.800  22.975  1.00  0.00     0.097 C 
HETATM    2  C2  UNL     1      14.713  -6.663  23.509  1.00  0.00    -0.181 C 
HETATM    3  C3  UNL     1      16.008  -6.530  24.087  1.00  0.00     0.070 C 
HETATM    4  C4  UNL     1      16.586  -7.964  24.178  1.00  0.00     0.024 C 
ENDROOT
BRANCH   3   5
HETATM    5  C5  UNL     1      16.027  -5.947  25.444  1.00  0.00     0.094 C 
HETATM    6  C6  UNL     1      15.317  -4.587  25.370  1.00  0.00     0.033 C 
BRANCH   5   7
HETATM    7  N1  UNL     1      17.255  -5.813  26.126  1.00  0.00    -0.361 N 
ATOM      8  H1  UNL     1      18.043  -5.603  25.512  1.00  0.00     0.162 HD
BRANCH   7   9
HETATM    9  C7  UNL     1      17.607  -5.910  27.472  1.00  0.00     0.186 C 
HETATM   10  S1  UNL     1      17.421  -4.685  28.513  1.00  0.00    -0.040 SA
BRANCH   9  11
HETATM   11  N2  UNL     1      18.110  -7.138  27.985  1.00  0.00    -0.274 N 
ATOM     12  H2  UNL     1      17.722  -8.010  27.623  1.00  0.00     0.189 HD
BRANCH  11  13
HETATM   13  N3  UNL     1      19.101  -7.211  28.954  1.00  0.00    -0.274 N 
ATOM     14  H3  UNL     1      20.060  -6.944  28.735  1.00  0.00     0.189 HD
BRANCH  13  15
HETATM   15  C8  UNL     1      18.758  -7.664  30.258  1.00  0.00     0.186 C 
HETATM   16  S2  UNL     1      19.940  -8.072  31.331  1.00  0.00    -0.040 SA
BRANCH  15  17
HETATM   17  N4  UNL     1      17.405  -7.774  30.667  1.00  0.00    -0.366 N 
ATOM     18  H4  UNL     1      16.840  -8.546  30.313  1.00  0.00     0.161 HD
BRANCH  17  19
HETATM   19  C9  UNL     1      16.810  -6.831  31.563  1.00  0.00     0.117 C 
HETATM   20  C10 UNL     1      15.370  -6.585  31.232  1.00  0.00     0.026 C 
ENDBRANCH  17  19
ENDBRANCH  15  17
ENDBRANCH  13  15
ENDBRANCH  11  13
ENDBRANCH   9  11
ENDBRANCH   7   9
ENDBRANCH   5   7
ENDBRANCH   3   5
TORSDOF 8
ENDMDL
