MODEL 1
REMARK VINA RESULT: -6.379269705      0.000      0.000
REMARK  5 active torsions:
REMARK  status: ('A' for Active; 'I' for Inactive)
REMARK       I    between atoms: C1_2  and  N1_3 
REMARK    1  A    between atoms: C1_2  and  C6_17 
REMARK    2  A    between atoms: N1_3  and  N2_5 
REMARK    3  A    between atoms: N2_5  and  C2_7 
REMARK    4  A    between atoms: C2_7  and  N3_9 
REMARK    5  A    between atoms: N3_9  and  C3_11 
ROOT
HETATM    1  N2  UNL     1      14.850  -3.871  29.194  1.00  0.00    -0.274 N 
ATOM      2  H2  UNL     1      13.891  -3.743  29.521  1.00  0.00     0.189 HD
ENDROOT
BRANCH   1   3
HETATM    3  N1  UNL     1      15.167  -4.958  28.358  1.00  0.00    -0.268 N 
HETATM    4  C1  UNL     1      15.466  -4.675  27.029  1.00  0.00     0.240 C 
HETATM    5  O1  UNL     1      15.421  -3.443  26.638  1.00  0.00    -0.271 OA
ATOM      6  H1  UNL     1      15.177  -5.914  28.713  1.00  0.00     0.190 HD
BRANCH   4   7
HETATM    7  C6  UNL     1      15.829  -5.661  26.035  1.00  0.00     0.079 C 
HETATM    8  C7  UNL     1      17.274  -6.109  26.087  1.00  0.00     0.014 C 
HETATM    9  C8  UNL     1      17.536  -7.113  24.973  1.00  0.00     0.001 C 
HETATM   10  C9  UNL     1      16.235  -7.566  24.318  1.00  0.00     0.000 C 
HETATM   11  C10 UNL     1      15.391  -6.462  23.791  1.00  0.00     0.001 C 
HETATM   12  C11 UNL     1      15.599  -5.189  24.606  1.00  0.00     0.014 C 
ENDBRANCH   4   7
ENDBRANCH   1   3
BRANCH   1  13
HETATM   13  C2  UNL     1      15.841  -2.966  29.578  1.00  0.00     0.186 C 
HETATM   14  S1  UNL     1      17.030  -3.581  30.565  1.00  0.00    -0.040 SA
BRANCH  13  15
HETATM   15  N3  UNL     1      15.916  -1.604  29.245  1.00  0.00    -0.358 N 
ATOM     16  H3  UNL     1      16.050  -1.325  28.273  1.00  0.00     0.162 HD
BRANCH  15  17
HETATM   17  C3  UNL     1      15.804  -0.601  30.266  1.00  0.00     0.135 C 
HETATM   18  C4  UNL     1      16.537   0.655  29.875  1.00  0.00     0.259 C 
HETATM   19  N4  UNL     1      15.273   1.118  29.267  1.00  0.00    -0.071 N 
HETATM   20  C5  UNL     1      14.588   0.290  30.237  1.00  0.00     0.259 C 
ATOM     21  H42 UNL     1      15.062   2.111  29.177  1.00  0.00     0.277 HD
ATOM     22  H41 UNL     1      15.098   1.017  28.267  1.00  0.00     0.277 HD
ENDBRANCH  15  17
ENDBRANCH  13  15
ENDBRANCH   1  13
TORSDOF 5
ENDMDL
MODEL 2
REMARK VINA RESULT: -6.310575507      3.278      4.241
REMARK  5 active torsions:
REMARK  status: ('A' for Active; 'I' for Inactive)
REMARK       I    between atoms: C1_2  and  N1_3 
REMARK    1  A    between atoms: C1_2  and  C6_17 
REMARK    2  A    between atoms: N1_3  and  N2_5 
REMARK    3  A    between atoms: N2_5  and  C2_7 
REMARK    4  A    between atoms: C2_7  and  N3_9 
REMARK    5  A    between atoms: N3_9  and  C3_11 
ROOT
HETATM    1  N2  UNL     1      19.307  -7.347  29.056  1.00  0.00    -0.274 N 
ATOM      2  H2  UNL     1      20.211  -7.693  28.735  1.00  0.00     0.189 HD
ENDROOT
BRANCH   1   3
HETATM    3  N1  UNL     1      18.250  -7.191  28.140  1.00  0.00    -0.268 N 
HETATM    4  C1  UNL     1      18.097  -5.940  27.549  1.00  0.00     0.240 C 
HETATM    5  O1  UNL     1      18.916  -4.998  27.885  1.00  0.00    -0.271 OA
ATOM      6  H1  UNL     1      17.622  -7.963  27.917  1.00  0.00     0.190 HD
BRANCH   4   7
HETATM    7  C6  UNL     1      17.080  -5.604  26.576  1.00  0.00     0.079 C 
HETATM    8  C7  UNL     1      15.817  -5.009  27.162  1.00  0.00     0.014 C 
HETATM    9  C8  UNL     1      14.818  -4.736  26.046  1.00  0.00     0.001 C 
HETATM   10  C9  UNL     1      15.467  -4.884  24.674  1.00  0.00     0.000 C 
HETATM   11  C10 UNL     1      16.116  -6.200  24.436  1.00  0.00     0.001 C 
HETATM   12  C11 UNL     1      16.623  -6.795  25.746  1.00  0.00     0.014 C 
ENDBRANCH   4   7
ENDBRANCH   1   3
BRANCH   1  13
HETATM   13  C2  UNL     1      19.122  -7.030  30.404  1.00  0.00     0.186 C 
HETATM   14  S1  UNL     1      18.668  -8.295  31.382  1.00  0.00    -0.040 SA
BRANCH  13  15
HETATM   15  N3  UNL     1      19.248  -5.763  30.998  1.00  0.00    -0.358 N 
ATOM     16  H3  UNL     1      20.142  -5.274  30.965  1.00  0.00     0.162 HD
BRANCH  15  17
HETATM   17  C3  UNL     1      18.124  -5.154  31.650  1.00  0.00     0.135 C 
HETATM   18  C4  UNL     1      18.203  -3.652  31.574  1.00  0.00     0.259 C 
HETATM   19  N4  UNL     1      17.434  -3.747  30.317  1.00  0.00    -0.071 N 
HETATM   20  C5  UNL     1      16.865  -4.970  30.842  1.00  0.00     0.259 C 
ATOM     21  H42 UNL     1      16.840  -2.981  30.000  1.00  0.00     0.277 HD
ATOM     22  H41 UNL     1      17.899  -3.727  29.409  1.00  0.00     0.277 HD
ENDBRANCH  15  17
ENDBRANCH  13  15
ENDBRANCH   1  13
TORSDOF 5
ENDMDL
MODEL 3
REMARK VINA RESULT: -6.287826942      2.380      3.563
REMARK  5 active torsions:
REMARK  status: ('A' for Active; 'I' for Inactive)
REMARK       I    between atoms: C1_2  and  N1_3 
REMARK    1  A    between atoms: C1_2  and  C6_17 
REMARK    2  A    between atoms: N1_3  and  N2_5 
REMARK    3  A    between atoms: N2_5  and  C2_7 
REMARK    4  A    between atoms: C2_7  and  N3_9 
REMARK    5  A    between atoms: N3_9  and  C3_11 
ROOT
HETATM    1  N2  UNL     1      14.351  -3.960  29.153  1.00  0.00    -0.274 N 
ATOM      2  H2  UNL     1      13.695  -3.211  28.932  1.00  0.00     0.189 HD
ENDROOT
BRANCH   1   3
HETATM    3  N1  UNL     1      14.582  -4.989  28.221  1.00  0.00    -0.268 N 
HETATM    4  C1  UNL     1      15.380  -4.687  27.121  1.00  0.00     0.240 C 
HETATM    5  O1  UNL     1      15.847  -3.486  27.013  1.00  0.00    -0.271 OA
ATOM      6  H1  UNL     1      14.180  -5.918  28.346  1.00  0.00     0.190 HD
BRANCH   4   7
HETATM    7  C6  UNL     1      15.735  -5.621  26.076  1.00  0.00     0.079 C 
HETATM    8  C7  UNL     1      17.164  -6.120  26.131  1.00  0.00     0.014 C 
HETATM    9  C8  UNL     1      17.420  -7.061  24.962  1.00  0.00     0.001 C 
HETATM   10  C9  UNL     1      16.121  -7.429  24.252  1.00  0.00     0.000 C 
HETATM   11  C10 UNL     1      15.326  -6.266  23.777  1.00  0.00     0.001 C 
HETATM   12  C11 UNL     1      15.555  -5.054  24.674  1.00  0.00     0.014 C 
ENDBRANCH   4   7
ENDBRANCH   1   3
BRANCH   1  13
HETATM   13  C2  UNL     1      15.019  -3.960  30.380  1.00  0.00     0.186 C 
HETATM   14  S1  UNL     1      15.372  -2.460  31.004  1.00  0.00    -0.040 SA
BRANCH  13  15
HETATM   15  N3  UNL     1      15.442  -5.083  31.110  1.00  0.00    -0.358 N 
ATOM     16  H3  UNL     1      14.753  -5.691  31.551  1.00  0.00     0.162 HD
BRANCH  15  17
HETATM   17  C3  UNL     1      16.841  -5.378  31.239  1.00  0.00     0.135 C 
HETATM   18  C4  UNL     1      17.081  -6.864  31.260  1.00  0.00     0.259 C 
HETATM   19  N4  UNL     1      17.222  -6.790  29.792  1.00  0.00    -0.071 N 
HETATM   20  C5  UNL     1      17.663  -5.423  29.976  1.00  0.00     0.259 C 
ATOM     21  H42 UNL     1      17.791  -7.464  29.280  1.00  0.00     0.277 HD
ATOM     22  H41 UNL     1      16.443  -7.016  29.173  1.00  0.00     0.277 HD
ENDBRANCH  15  17
ENDBRANCH  13  15
ENDBRANCH   1  13
TORSDOF 5
ENDMDL
MODEL 4
REMARK VINA RESULT: -6.283393103      2.427      3.236
REMARK  5 active torsions:
REMARK  status: ('A' for Active; 'I' for Inactive)
REMARK       I    between atoms: C1_2  and  N1_3 
REMARK    1  A    between atoms: C1_2  and  C6_17 
REMARK    2  A    between atoms: N1_3  and  N2_5 
REMARK    3  A    between atoms: N2_5  and  C2_7 
REMARK    4  A    between atoms: C2_7  and  N3_9 
REMARK    5  A    between atoms: N3_9  and  C3_11 
ROOT
HETATM    1  N2  UNL     1      14.572  -3.814  29.179  1.00  0.00    -0.274 N 
ATOM      2  H2  UNL     1      14.019  -2.965  29.060  1.00  0.00     0.189 HD
ENDROOT
BRANCH   1   3
HETATM    3  N1  UNL     1      14.609  -4.776  28.152  1.00  0.00    -0.268 N 
HETATM    4  C1  UNL     1      15.675  -4.715  27.258  1.00  0.00     0.240 C 
HETATM    5  O1  UNL     1      16.551  -3.777  27.411  1.00  0.00    -0.271 OA
ATOM      6  H1  UNL     1      13.885  -5.489  28.067  1.00  0.00     0.190 HD
BRANCH   4   7
HETATM    7  C6  UNL     1      15.882  -5.627  26.155  1.00  0.00     0.079 C 
HETATM    8  C7  UNL     1      17.278  -6.209  26.071  1.00  0.00     0.014 C 
HETATM    9  C8  UNL     1      17.377  -7.119  24.854  1.00  0.00     0.001 C 
HETATM   10  C9  UNL     1      16.003  -7.384  24.248  1.00  0.00     0.000 C 
HETATM   11  C10 UNL     1      15.242  -6.160  23.881  1.00  0.00     0.001 C 
HETATM   12  C11 UNL     1      15.619  -4.998  24.794  1.00  0.00     0.014 C 
ENDBRANCH   4   7
ENDBRANCH   1   3
BRANCH   1  13
HETATM   13  C2  UNL     1      15.290  -4.018  30.360  1.00  0.00     0.186 C 
HETATM   14  S1  UNL     1      14.424  -4.669  31.622  1.00  0.00    -0.040 SA
BRANCH  13  15
HETATM   15  N3  UNL     1      16.638  -3.702  30.593  1.00  0.00    -0.358 N 
ATOM     16  H3  UNL     1      16.964  -2.744  30.469  1.00  0.00     0.162 HD
BRANCH  15  17
HETATM   17  C3  UNL     1      17.560  -4.723  31.006  1.00  0.00     0.135 C 
HETATM   18  C4  UNL     1      17.633  -5.830  29.988  1.00  0.00     0.259 C 
HETATM   19  N4  UNL     1      18.734  -5.078  29.354  1.00  0.00    -0.071 N 
HETATM   20  C5  UNL     1      19.015  -4.527  30.663  1.00  0.00     0.259 C 
ATOM     21  H42 UNL     1      19.457  -5.553  28.814  1.00  0.00     0.277 HD
ATOM     22  H41 UNL     1      18.567  -4.473  28.549  1.00  0.00     0.277 HD
ENDBRANCH  15  17
ENDBRANCH  13  15
ENDBRANCH   1  13
TORSDOF 5
ENDMDL
MODEL 5
REMARK VINA RESULT: -6.260762521      2.516      3.942
REMARK  5 active torsions:
REMARK  status: ('A' for Active; 'I' for Inactive)
REMARK       I    between atoms: C1_2  and  N1_3 
REMARK    1  A    between atoms: C1_2  and  C6_17 
REMARK    2  A    between atoms: N1_3  and  N2_5 
REMARK    3  A    between atoms: N2_5  and  C2_7 
REMARK    4  A    between atoms: C2_7  and  N3_9 
REMARK    5  A    between atoms: N3_9  and  C3_11 
ROOT
HETATM    1  N2  UNL     1      14.746  -3.698  29.200  1.00  0.00    -0.274 N 
ATOM      2  H2  UNL     1      14.922  -2.705  29.052  1.00  0.00     0.189 HD
ENDROOT
BRANCH   1   3
HETATM    3  N1  UNL     1      14.680  -4.571  28.098  1.00  0.00    -0.268 N 
HETATM    4  C1  UNL     1      15.857  -4.793  27.388  1.00  0.00     0.240 C 
HETATM    5  O1  UNL     1      16.929  -4.179  27.770  1.00  0.00    -0.271 OA
ATOM      6  H1  UNL     1      13.806  -5.022  27.830  1.00  0.00     0.190 HD
BRANCH   4   7
HETATM    7  C6  UNL     1      15.979  -5.668  26.243  1.00  0.00     0.079 C 
HETATM    8  C7  UNL     1      17.358  -6.262  26.046  1.00  0.00     0.014 C 
HETATM    9  C8  UNL     1      17.364  -7.127  24.793  1.00  0.00     0.001 C 
HETATM   10  C9  UNL     1      15.950  -7.354  24.270  1.00  0.00     0.000 C 
HETATM   11  C10 UNL     1      15.184  -6.110  23.998  1.00  0.00     0.001 C 
HETATM   12  C11 UNL     1      15.636  -4.986  24.925  1.00  0.00     0.014 C 
ENDBRANCH   4   7
ENDBRANCH   1   3
BRANCH   1  13
HETATM   13  C2  UNL     1      14.571  -4.189  30.496  1.00  0.00     0.186 C 
HETATM   14  S1  UNL     1      14.790  -3.081  31.717  1.00  0.00    -0.040 SA
BRANCH  13  15
HETATM   15  N3  UNL     1      14.265  -5.508  30.866  1.00  0.00    -0.358 N 
ATOM     16  H3  UNL     1      13.339  -5.888  30.671  1.00  0.00     0.162 HD
BRANCH  15  17
HETATM   17  C3  UNL     1      15.250  -6.325  31.517  1.00  0.00     0.135 C 
HETATM   18  C4  UNL     1      15.246  -7.724  30.959  1.00  0.00     0.259 C 
HETATM   19  N4  UNL     1      16.258  -7.262  29.987  1.00  0.00    -0.071 N 
HETATM   20  C5  UNL     1      16.656  -6.284  30.977  1.00  0.00     0.259 C 
ATOM     21  H42 UNL     1      16.934  -7.908  29.580  1.00  0.00     0.277 HD
ATOM     22  H41 UNL     1      15.995  -6.982  29.042  1.00  0.00     0.277 HD
ENDBRANCH  15  17
ENDBRANCH  13  15
ENDBRANCH   1  13
TORSDOF 5
ENDMDL
