MODEL 1
REMARK VINA RESULT: -6.092702787      0.000      0.000
REMARK  18 active torsions:
REMARK  status: ('A' for Active; 'I' for Inactive)
REMARK    1  A    between atoms: C7_7  and  O1_8 
REMARK    2  A    between atoms: O1_8  and  C8_9 
REMARK    3  A    between atoms: C8_9  and  C9_10 
REMARK    4  A    between atoms: C9_10  and  O2_11 
REMARK    5  A    between atoms: O2_11  and  C10_12 
REMARK    6  A    between atoms: C10_12  and  C11_13 
REMARK    7  A    between atoms: C11_13  and  O3_14 
REMARK    8  A    between atoms: O3_14  and  C12_15 
REMARK    9  A    between atoms: C12_15  and  C13_16 
REMARK   10  A    between atoms: C13_16  and  O4_17 
REMARK   11  A    between atoms: O4_17  and  C14_18 
REMARK   12  A    between atoms: C14_18  and  C15_19 
REMARK   13  A    between atoms: C15_19  and  O5_20 
REMARK   14  A    between atoms: O5_20  and  C16_21 
REMARK   15  A    between atoms: C16_21  and  C17_22 
REMARK   16  A    between atoms: C17_22  and  N1_23 
REMARK   17  A    between atoms: N2_26  and  C20_27 
REMARK   18  A    between atoms: C20_27  and  C21_28 
ROOT
HETATM    1  C13 UNL     1      38.506  25.166   2.765  1.00  0.00     0.193 C 
ENDROOT
BRANCH   1   2
HETATM    2  C12 UNL     1      39.086  26.164   1.846  1.00  0.00     0.193 C 
BRANCH   2   3
HETATM    3  O3  UNL     1      38.135  26.667   0.983  1.00  0.00    -0.387 OA
BRANCH   3   4
HETATM    4  C11 UNL     1      36.828  26.277   1.244  1.00  0.00     0.193 C 
BRANCH   4   5
HETATM    5  C10 UNL     1      36.121  26.289  -0.097  1.00  0.00     0.193 C 
BRANCH   5   6
HETATM    6  O2  UNL     1      35.137  25.339  -0.239  1.00  0.00    -0.387 OA
BRANCH   6   7
HETATM    7  C9  UNL     1      35.018  24.973  -1.564  1.00  0.00     0.194 C 
BRANCH   7   8
HETATM    8  C8  UNL     1      36.366  24.590  -2.159  1.00  0.00     0.201 C 
BRANCH   8   9
HETATM    9  O1  UNL     1      36.491  23.185  -1.947  1.00  0.00    -0.349 OA
BRANCH   9  10
HETATM   10  C7  UNL     1      37.611  22.616  -1.363  1.00  0.00     0.074 A 
HETATM   11  C2  UNL     1      37.954  21.334  -1.730  1.00  0.00    -0.029 A 
HETATM   12  C1  UNL     1      37.169  20.551  -2.720  1.00  0.00     0.051 C 
HETATM   13  C3  UNL     1      39.069  20.775  -1.146  1.00  0.00     0.009 A 
HETATM   14  C4  UNL     1      39.837  21.440  -0.227  1.00  0.00     0.001 A 
HETATM   15  C5  UNL     1      39.501  22.739   0.155  1.00  0.00     0.003 A 
HETATM   16  C6  UNL     1      38.380  23.287  -0.439  1.00  0.00     0.037 A 
ENDBRANCH   9  10
ENDBRANCH   8   9
ENDBRANCH   7   8
ENDBRANCH   6   7
ENDBRANCH   5   6
ENDBRANCH   4   5
ENDBRANCH   3   4
ENDBRANCH   2   3
ENDBRANCH   1   2
BRANCH   1  17
HETATM   17  O4  UNL     1      39.324  24.650   3.717  1.00  0.00    -0.387 OA
BRANCH  17  18
HETATM   18  C14 UNL     1      40.582  24.279   3.408  1.00  0.00     0.193 C 
BRANCH  18  19
HETATM   19  C15 UNL     1      40.991  23.163   4.419  1.00  0.00     0.193 C 
BRANCH  19  20
HETATM   20  O5  UNL     1      41.847  22.349   4.052  1.00  0.00    -0.387 OA
BRANCH  20  21
HETATM   21  C16 UNL     1      42.724  21.556   3.666  1.00  0.00     0.187 C 
BRANCH  21  22
HETATM   22  C17 UNL     1      42.836  21.321   2.138  1.00  0.00     0.143 C 
BRANCH  22  23
HETATM   23  N1  UNL     1      42.902  19.929   1.925  1.00  0.00    -0.407 N 
HETATM   24  C18 UNL     1      43.187  19.458   0.619  1.00  0.00     0.147 C 
HETATM   25  C19 UNL     1      42.526  18.077   0.509  1.00  0.00     0.291 C 
HETATM   26  N2  UNL     1      41.095  18.345   0.788  1.00  0.00     0.091 N 
HETATM   27  C24 UNL     1      40.961  18.417   2.194  1.00  0.00     0.291 C 
HETATM   28  C25 UNL     1      42.195  19.069   2.793  1.00  0.00     0.147 C 
BRANCH  26  29
HETATM   29  C20 UNL     1      40.346  17.376   0.075  1.00  0.00     0.277 C 
BRANCH  29  30
HETATM   30  C21 UNL     1      38.940  17.167   0.495  1.00  0.00     0.014 A 
HETATM   31  C22 UNL     1      38.129  15.998   0.135  1.00  0.00     0.007 A 
HETATM   32  C23 UNL     1      37.869  17.291  -0.577  1.00  0.00     0.007 A 
ENDBRANCH  29  30
ENDBRANCH  26  29
ENDBRANCH  22  23
ENDBRANCH  21  22
ENDBRANCH  20  21
ENDBRANCH  19  20
ENDBRANCH  18  19
ENDBRANCH  17  18
ENDBRANCH   1  17
TORSDOF 18
ENDMDL
MODEL 2
REMARK VINA RESULT: -5.795883050      1.631      3.579
REMARK  18 active torsions:
REMARK  status: ('A' for Active; 'I' for Inactive)
REMARK    1  A    between atoms: C7_7  and  O1_8 
REMARK    2  A    between atoms: O1_8  and  C8_9 
REMARK    3  A    between atoms: C8_9  and  C9_10 
REMARK    4  A    between atoms: C9_10  and  O2_11 
REMARK    5  A    between atoms: O2_11  and  C10_12 
REMARK    6  A    between atoms: C10_12  and  C11_13 
REMARK    7  A    between atoms: C11_13  and  O3_14 
REMARK    8  A    between atoms: O3_14  and  C12_15 
REMARK    9  A    between atoms: C12_15  and  C13_16 
REMARK   10  A    between atoms: C13_16  and  O4_17 
REMARK   11  A    between atoms: O4_17  and  C14_18 
REMARK   12  A    between atoms: C14_18  and  C15_19 
REMARK   13  A    between atoms: C15_19  and  O5_20 
REMARK   14  A    between atoms: O5_20  and  C16_21 
REMARK   15  A    between atoms: C16_21  and  C17_22 
REMARK   16  A    between atoms: C17_22  and  N1_23 
REMARK   17  A    between atoms: N2_26  and  C20_27 
REMARK   18  A    between atoms: C20_27  and  C21_28 
ROOT
HETATM    1  C13 UNL     1      41.035  23.261   5.513  1.00  0.00     0.193 C 
ENDROOT
BRANCH   1   2
HETATM    2  C12 UNL     1      39.585  23.033   5.371  1.00  0.00     0.193 C 
BRANCH   2   3
HETATM    3  O3  UNL     1      39.103  23.566   4.194  1.00  0.00    -0.387 OA
BRANCH   3   4
HETATM    4  C11 UNL     1      39.419  24.899   3.971  1.00  0.00     0.193 C 
BRANCH   4   5
HETATM    5  C10 UNL     1      39.704  25.010   2.487  1.00  0.00     0.193 C 
BRANCH   5   6
HETATM    6  O2  UNL     1      39.659  23.820   1.799  1.00  0.00    -0.387 OA
BRANCH   6   7
HETATM    7  C9  UNL     1      40.378  23.922   0.626  1.00  0.00     0.194 C 
BRANCH   7   8
HETATM    8  C8  UNL     1      39.500  23.656  -0.590  1.00  0.00     0.201 C 
BRANCH   8   9
HETATM    9  O1  UNL     1      38.200  23.383  -0.070  1.00  0.00    -0.349 OA
BRANCH   9  10
HETATM   10  C7  UNL     1      37.041  23.692  -0.762  1.00  0.00     0.074 A 
HETATM   11  C2  UNL     1      36.166  24.591  -0.195  1.00  0.00    -0.029 A 
HETATM   12  C1  UNL     1      36.424  25.232   1.121  1.00  0.00     0.051 C 
HETATM   13  C3  UNL     1      35.017  24.894  -0.889  1.00  0.00     0.009 A 
HETATM   14  C4  UNL     1      34.716  24.340  -2.106  1.00  0.00     0.001 A 
HETATM   15  C5  UNL     1      35.594  23.427  -2.692  1.00  0.00     0.003 A 
HETATM   16  C6  UNL     1      36.743  23.134  -1.984  1.00  0.00     0.037 A 
ENDBRANCH   9  10
ENDBRANCH   8   9
ENDBRANCH   7   8
ENDBRANCH   6   7
ENDBRANCH   5   6
ENDBRANCH   4   5
ENDBRANCH   3   4
ENDBRANCH   2   3
ENDBRANCH   1   2
BRANCH   1  17
HETATM   17  O4  UNL     1      41.863  22.277   5.078  1.00  0.00    -0.387 OA
BRANCH  17  18
HETATM   18  C14 UNL     1      42.207  22.201   3.777  1.00  0.00     0.193 C 
BRANCH  18  19
HETATM   19  C15 UNL     1      43.553  21.414   3.706  1.00  0.00     0.193 C 
BRANCH  19  20
HETATM   20  O5  UNL     1      44.028  21.201   2.585  1.00  0.00    -0.387 OA
BRANCH  20  21
HETATM   21  C16 UNL     1      44.528  21.012   1.461  1.00  0.00     0.187 C 
BRANCH  21  22
HETATM   22  C17 UNL     1      43.556  20.630   0.315  1.00  0.00     0.143 C 
BRANCH  22  23
HETATM   23  N1  UNL     1      42.482  19.919   0.886  1.00  0.00    -0.407 N 
HETATM   24  C18 UNL     1      42.612  18.517   1.052  1.00  0.00     0.147 C 
HETATM   25  C19 UNL     1      41.189  17.945   0.994  1.00  0.00     0.291 C 
HETATM   26  N2  UNL     1      40.686  18.383  -0.329  1.00  0.00     0.091 N 
HETATM   27  C24 UNL     1      40.257  19.722  -0.180  1.00  0.00     0.291 C 
HETATM   28  C25 UNL     1      41.178  20.448   0.785  1.00  0.00     0.147 C 
BRANCH  26  29
HETATM   29  C20 UNL     1      39.752  17.406  -0.759  1.00  0.00     0.277 C 
BRANCH  29  30
HETATM   30  C21 UNL     1      38.685  17.026   0.197  1.00  0.00     0.014 A 
HETATM   31  C22 UNL     1      37.929  15.769   0.144  1.00  0.00     0.007 A 
HETATM   32  C23 UNL     1      37.255  17.025  -0.321  1.00  0.00     0.007 A 
ENDBRANCH  29  30
ENDBRANCH  26  29
ENDBRANCH  22  23
ENDBRANCH  21  22
ENDBRANCH  20  21
ENDBRANCH  19  20
ENDBRANCH  18  19
ENDBRANCH  17  18
ENDBRANCH   1  17
TORSDOF 18
ENDMDL
MODEL 3
REMARK VINA RESULT: -5.741648499      1.743      5.100
REMARK  18 active torsions:
REMARK  status: ('A' for Active; 'I' for Inactive)
REMARK    1  A    between atoms: C7_7  and  O1_8 
REMARK    2  A    between atoms: O1_8  and  C8_9 
REMARK    3  A    between atoms: C8_9  and  C9_10 
REMARK    4  A    between atoms: C9_10  and  O2_11 
REMARK    5  A    between atoms: O2_11  and  C10_12 
REMARK    6  A    between atoms: C10_12  and  C11_13 
REMARK    7  A    between atoms: C11_13  and  O3_14 
REMARK    8  A    between atoms: O3_14  and  C12_15 
REMARK    9  A    between atoms: C12_15  and  C13_16 
REMARK   10  A    between atoms: C13_16  and  O4_17 
REMARK   11  A    between atoms: O4_17  and  C14_18 
REMARK   12  A    between atoms: C14_18  and  C15_19 
REMARK   13  A    between atoms: C15_19  and  O5_20 
REMARK   14  A    between atoms: O5_20  and  C16_21 
REMARK   15  A    between atoms: C16_21  and  C17_22 
REMARK   16  A    between atoms: C17_22  and  N1_23 
REMARK   17  A    between atoms: N2_26  and  C20_27 
REMARK   18  A    between atoms: C20_27  and  C21_28 
ROOT
HETATM    1  C13 UNL     1      36.991  22.884  -2.603  1.00  0.00     0.193 C 
ENDROOT
BRANCH   1   2
HETATM    2  C12 UNL     1      38.017  23.898  -2.295  1.00  0.00     0.193 C 
BRANCH   2   3
HETATM    3  O3  UNL     1      37.498  25.175  -2.355  1.00  0.00    -0.387 OA
BRANCH   3   4
HETATM    4  C11 UNL     1      36.187  25.305  -1.917  1.00  0.00     0.193 C 
BRANCH   4   5
HETATM    5  C10 UNL     1      36.166  26.550  -1.052  1.00  0.00     0.193 C 
BRANCH   5   6
HETATM    6  O2  UNL     1      37.233  26.674  -0.193  1.00  0.00    -0.387 OA
BRANCH   6   7
HETATM    7  C9  UNL     1      36.808  26.547   1.114  1.00  0.00     0.194 C 
BRANCH   7   8
HETATM    8  C8  UNL     1      36.883  25.101   1.586  1.00  0.00     0.201 C 
BRANCH   8   9
HETATM    9  O1  UNL     1      38.264  24.750   1.519  1.00  0.00    -0.349 OA
BRANCH   9  10
HETATM   10  C7  UNL     1      38.884  23.980   2.489  1.00  0.00     0.074 A 
HETATM   11  C2  UNL     1      39.550  22.843   2.088  1.00  0.00    -0.029 A 
HETATM   12  C1  UNL     1      39.622  22.422   0.664  1.00  0.00     0.051 C 
HETATM   13  C3  UNL     1      40.165  22.083   3.057  1.00  0.00     0.009 A 
HETATM   14  C4  UNL     1      40.137  22.412   4.387  1.00  0.00     0.001 A 
HETATM   15  C5  UNL     1      39.466  23.560   4.808  1.00  0.00     0.003 A 
HETATM   16  C6  UNL     1      38.854  24.313   3.824  1.00  0.00     0.037 A 
ENDBRANCH   9  10
ENDBRANCH   8   9
ENDBRANCH   7   8
ENDBRANCH   6   7
ENDBRANCH   5   6
ENDBRANCH   4   5
ENDBRANCH   3   4
ENDBRANCH   2   3
ENDBRANCH   1   2
BRANCH   1  17
HETATM   17  O4  UNL     1      36.847  21.860  -1.724  1.00  0.00    -0.387 OA
BRANCH  17  18
HETATM   18  C14 UNL     1      36.994  20.585  -2.131  1.00  0.00     0.193 C 
BRANCH  18  19
HETATM   19  C15 UNL     1      38.521  20.264  -2.087  1.00  0.00     0.193 C 
BRANCH  19  20
HETATM   20  O5  UNL     1      38.894  19.381  -1.306  1.00  0.00    -0.387 OA
BRANCH  20  21
HETATM   21  C16 UNL     1      39.268  18.516  -0.495  1.00  0.00     0.187 C 
BRANCH  21  22
HETATM   22  C17 UNL     1      40.266  17.449  -1.014  1.00  0.00     0.143 C 
BRANCH  22  23
HETATM   23  N1  UNL     1      41.526  17.737  -0.451  1.00  0.00    -0.407 N 
HETATM   24  C18 UNL     1      41.606  17.965   0.945  1.00  0.00     0.147 C 
HETATM   25  C19 UNL     1      42.807  18.895   1.159  1.00  0.00     0.291 C 
HETATM   26  N2  UNL     1      42.483  20.087   0.341  1.00  0.00     0.091 N 
HETATM   27  C24 UNL     1      42.829  19.771  -0.993  1.00  0.00     0.291 C 
HETATM   28  C25 UNL     1      42.528  18.307  -1.266  1.00  0.00     0.147 C 
BRANCH  26  29
HETATM   29  C20 UNL     1      43.103  21.198   0.966  1.00  0.00     0.277 C 
BRANCH  29  30
HETATM   30  C21 UNL     1      43.982  20.917   2.126  1.00  0.00     0.014 A 
HETATM   31  C22 UNL     1      43.856  21.558   3.440  1.00  0.00     0.007 A 
HETATM   32  C23 UNL     1      44.964  22.004   2.534  1.00  0.00     0.007 A 
ENDBRANCH  29  30
ENDBRANCH  26  29
ENDBRANCH  22  23
ENDBRANCH  21  22
ENDBRANCH  20  21
ENDBRANCH  19  20
ENDBRANCH  18  19
ENDBRANCH  17  18
ENDBRANCH   1  17
TORSDOF 18
ENDMDL
MODEL 4
REMARK VINA RESULT: -5.737467602      2.947      6.288
REMARK  18 active torsions:
REMARK  status: ('A' for Active; 'I' for Inactive)
REMARK    1  A    between atoms: C7_7  and  O1_8 
REMARK    2  A    between atoms: O1_8  and  C8_9 
REMARK    3  A    between atoms: C8_9  and  C9_10 
REMARK    4  A    between atoms: C9_10  and  O2_11 
REMARK    5  A    between atoms: O2_11  and  C10_12 
REMARK    6  A    between atoms: C10_12  and  C11_13 
REMARK    7  A    between atoms: C11_13  and  O3_14 
REMARK    8  A    between atoms: O3_14  and  C12_15 
REMARK    9  A    between atoms: C12_15  and  C13_16 
REMARK   10  A    between atoms: C13_16  and  O4_17 
REMARK   11  A    between atoms: O4_17  and  C14_18 
REMARK   12  A    between atoms: C14_18  and  C15_19 
REMARK   13  A    between atoms: C15_19  and  O5_20 
REMARK   14  A    between atoms: O5_20  and  C16_21 
REMARK   15  A    between atoms: C16_21  and  C17_22 
REMARK   16  A    between atoms: C17_22  and  N1_23 
REMARK   17  A    between atoms: N2_26  and  C20_27 
REMARK   18  A    between atoms: C20_27  and  C21_28 
ROOT
HETATM    1  C13 UNL     1      44.782  21.480   2.461  1.00  0.00     0.193 C 
ENDROOT
BRANCH   1   2
HETATM    2  C12 UNL     1      45.187  22.633   1.635  1.00  0.00     0.193 C 
BRANCH   2   3
HETATM    3  O3  UNL     1      45.838  22.229   0.489  1.00  0.00    -0.387 OA
BRANCH   3   4
HETATM    4  C11 UNL     1      45.391  21.034  -0.059  1.00  0.00     0.193 C 
BRANCH   4   5
HETATM    5  C10 UNL     1      44.642  21.416  -1.321  1.00  0.00     0.193 C 
BRANCH   5   6
HETATM    6  O2  UNL     1      43.274  21.468  -1.187  1.00  0.00    -0.387 OA
BRANCH   6   7
HETATM    7  C9  UNL     1      42.720  20.244  -1.500  1.00  0.00     0.194 C 
BRANCH   7   8
HETATM    8  C8  UNL     1      41.242  20.374  -1.845  1.00  0.00     0.201 C 
BRANCH   8   9
HETATM    9  O1  UNL     1      40.541  20.015  -0.656  1.00  0.00    -0.349 OA
BRANCH   9  10
HETATM   10  C7  UNL     1      39.498  19.104  -0.652  1.00  0.00     0.074 A 
HETATM   11  C2  UNL     1      39.641  17.955   0.093  1.00  0.00    -0.029 A 
HETATM   12  C1  UNL     1      40.866  17.667   0.885  1.00  0.00     0.051 C 
HETATM   13  C3  UNL     1      38.600  17.054   0.092  1.00  0.00     0.009 A 
HETATM   14  C4  UNL     1      37.444  17.257  -0.615  1.00  0.00     0.001 A 
HETATM   15  C5  UNL     1      37.285  18.416  -1.376  1.00  0.00     0.003 A 
HETATM   16  C6  UNL     1      38.338  19.311  -1.364  1.00  0.00     0.037 A 
ENDBRANCH   9  10
ENDBRANCH   8   9
ENDBRANCH   7   8
ENDBRANCH   6   7
ENDBRANCH   5   6
ENDBRANCH   4   5
ENDBRANCH   3   4
ENDBRANCH   2   3
ENDBRANCH   1   2
BRANCH   1  17
HETATM   17  O4  UNL     1      43.491  21.439   2.879  1.00  0.00    -0.387 OA
BRANCH  17  18
HETATM   18  C14 UNL     1      42.551  20.833   2.128  1.00  0.00     0.193 C 
BRANCH  18  19
HETATM   19  C15 UNL     1      41.408  20.391   3.095  1.00  0.00     0.193 C 
BRANCH  19  20
HETATM   20  O5  UNL     1      40.783  21.282   3.681  1.00  0.00    -0.387 OA
BRANCH  20  21
HETATM   21  C16 UNL     1      40.183  22.192   4.281  1.00  0.00     0.187 C 
BRANCH  21  22
HETATM   22  C17 UNL     1      40.964  23.510   4.521  1.00  0.00     0.143 C 
BRANCH  22  23
HETATM   23  N1  UNL     1      40.588  24.417   3.510  1.00  0.00    -0.407 N 
HETATM   24  C18 UNL     1      39.287  24.977   3.556  1.00  0.00     0.147 C 
HETATM   25  C19 UNL     1      38.908  25.298   2.103  1.00  0.00     0.291 C 
HETATM   26  N2  UNL     1      39.011  23.991   1.413  1.00  0.00     0.091 N 
HETATM   27  C24 UNL     1      40.381  23.789   1.125  1.00  0.00     0.291 C 
HETATM   28  C25 UNL     1      41.229  24.348   2.255  1.00  0.00     0.147 C 
BRANCH  26  29
HETATM   29  C20 UNL     1      38.081  24.013   0.344  1.00  0.00     0.277 C 
BRANCH  29  30
HETATM   30  C21 UNL     1      38.201  22.946  -0.678  1.00  0.00     0.014 A 
HETATM   31  C22 UNL     1      38.440  23.185  -2.107  1.00  0.00     0.007 A 
HETATM   32  C23 UNL     1      37.058  22.801  -1.670  1.00  0.00     0.007 A 
ENDBRANCH  29  30
ENDBRANCH  26  29
ENDBRANCH  22  23
ENDBRANCH  21  22
ENDBRANCH  20  21
ENDBRANCH  19  20
ENDBRANCH  18  19
ENDBRANCH  17  18
ENDBRANCH   1  17
TORSDOF 18
ENDMDL
MODEL 5
REMARK VINA RESULT: -5.735661238      2.581      7.102
REMARK  18 active torsions:
REMARK  status: ('A' for Active; 'I' for Inactive)
REMARK    1  A    between atoms: C7_7  and  O1_8 
REMARK    2  A    between atoms: O1_8  and  C8_9 
REMARK    3  A    between atoms: C8_9  and  C9_10 
REMARK    4  A    between atoms: C9_10  and  O2_11 
REMARK    5  A    between atoms: O2_11  and  C10_12 
REMARK    6  A    between atoms: C10_12  and  C11_13 
REMARK    7  A    between atoms: C11_13  and  O3_14 
REMARK    8  A    between atoms: O3_14  and  C12_15 
REMARK    9  A    between atoms: C12_15  and  C13_16 
REMARK   10  A    between atoms: C13_16  and  O4_17 
REMARK   11  A    between atoms: O4_17  and  C14_18 
REMARK   12  A    between atoms: C14_18  and  C15_19 
REMARK   13  A    between atoms: C15_19  and  O5_20 
REMARK   14  A    between atoms: O5_20  and  C16_21 
REMARK   15  A    between atoms: C16_21  and  C17_22 
REMARK   16  A    between atoms: C17_22  and  N1_23 
REMARK   17  A    between atoms: N2_26  and  C20_27 
REMARK   18  A    between atoms: C20_27  and  C21_28 
ROOT
HETATM    1  C13 UNL     1      36.157  26.205   1.113  1.00  0.00     0.193 C 
ENDROOT
BRANCH   1   2
HETATM    2  C12 UNL     1      37.589  25.858   1.041  1.00  0.00     0.193 C 
BRANCH   2   3
HETATM    3  O3  UNL     1      37.958  25.019   2.071  1.00  0.00    -0.387 OA
BRANCH   3   4
HETATM    4  C11 UNL     1      39.183  25.302   2.660  1.00  0.00     0.193 C 
BRANCH   4   5
HETATM    5  C10 UNL     1      39.176  24.578   3.991  1.00  0.00     0.193 C 
BRANCH   5   6
HETATM    6  O2  UNL     1      39.408  23.224   3.913  1.00  0.00    -0.387 OA
BRANCH   6   7
HETATM    7  C9  UNL     1      40.115  22.799   5.019  1.00  0.00     0.194 C 
BRANCH   7   8
HETATM    8  C8  UNL     1      41.594  22.623   4.700  1.00  0.00     0.201 C 
BRANCH   8   9
HETATM    9  O1  UNL     1      41.702  21.339   4.090  1.00  0.00    -0.349 OA
BRANCH   9  10
HETATM   10  C7  UNL     1      42.478  21.112   2.965  1.00  0.00     0.074 A 
HETATM   11  C2  UNL     1      42.270  19.950   2.256  1.00  0.00    -0.029 A 
HETATM   12  C1  UNL     1      41.252  18.943   2.657  1.00  0.00     0.051 C 
HETATM   13  C3  UNL     1      43.044  19.731   1.139  1.00  0.00     0.009 A 
HETATM   14  C4  UNL     1      44.000  20.616   0.714  1.00  0.00     0.001 A 
HETATM   15  C5  UNL     1      44.222  21.797   1.423  1.00  0.00     0.003 A 
HETATM   16  C6  UNL     1      43.438  22.003   2.542  1.00  0.00     0.037 A 
ENDBRANCH   9  10
ENDBRANCH   8   9
ENDBRANCH   7   8
ENDBRANCH   6   7
ENDBRANCH   5   6
ENDBRANCH   4   5
ENDBRANCH   3   4
ENDBRANCH   2   3
ENDBRANCH   1   2
BRANCH   1  17
HETATM   17  O4  UNL     1      35.404  25.966   0.009  1.00  0.00    -0.387 OA
BRANCH  17  18
HETATM   18  C14 UNL     1      35.387  24.741  -0.553  1.00  0.00     0.193 C 
BRANCH  18  19
HETATM   19  C15 UNL     1      34.305  24.769  -1.677  1.00  0.00     0.193 C 
BRANCH  19  20
HETATM   20  O5  UNL     1      34.565  24.177  -2.731  1.00  0.00    -0.387 OA
BRANCH  20  21
HETATM   21  C16 UNL     1      34.853  23.601  -3.795  1.00  0.00     0.187 C 
BRANCH  21  22
HETATM   22  C17 UNL     1      35.650  24.419  -4.844  1.00  0.00     0.143 C 
BRANCH  22  23
HETATM   23  N1  UNL     1      37.008  24.067  -4.716  1.00  0.00    -0.407 N 
HETATM   24  C18 UNL     1      37.364  22.699  -4.827  1.00  0.00     0.147 C 
HETATM   25  C19 UNL     1      38.639  22.519  -3.991  1.00  0.00     0.291 C 
HETATM   26  N2  UNL     1      38.239  22.962  -2.635  1.00  0.00     0.091 N 
HETATM   27  C24 UNL     1      38.306  24.374  -2.630  1.00  0.00     0.291 C 
HETATM   28  C25 UNL     1      37.870  24.911  -3.983  1.00  0.00     0.147 C 
BRANCH  26  29
HETATM   29  C20 UNL     1      39.031  22.233  -1.712  1.00  0.00     0.277 C 
BRANCH  29  30
HETATM   30  C21 UNL     1      39.414  22.925  -0.458  1.00  0.00     0.014 A 
HETATM   31  C22 UNL     1      40.780  22.981   0.078  1.00  0.00     0.007 A 
HETATM   32  C23 UNL     1      39.797  22.054   0.728  1.00  0.00     0.007 A 
ENDBRANCH  29  30
ENDBRANCH  26  29
ENDBRANCH  22  23
ENDBRANCH  21  22
ENDBRANCH  20  21
ENDBRANCH  19  20
ENDBRANCH  18  19
ENDBRANCH  17  18
ENDBRANCH   1  17
TORSDOF 18
ENDMDL
