MODEL 1
REMARK VINA RESULT: -6.561549261      0.000      0.000
REMARK  18 active torsions:
REMARK  status: ('A' for Active; 'I' for Inactive)
REMARK    1  A    between atoms: C6_7  and  O1_8 
REMARK    2  A    between atoms: O1_8  and  C7_9 
REMARK    3  A    between atoms: C7_9  and  C8_10 
REMARK    4  A    between atoms: C8_10  and  O2_11 
REMARK    5  A    between atoms: O2_11  and  C9_12 
REMARK    6  A    between atoms: C9_12  and  C10_13 
REMARK    7  A    between atoms: C10_13  and  O3_14 
REMARK    8  A    between atoms: O3_14  and  C11_15 
REMARK    9  A    between atoms: C11_15  and  C12_16 
REMARK   10  A    between atoms: C12_16  and  O4_17 
REMARK   11  A    between atoms: O4_17  and  C13_18 
REMARK   12  A    between atoms: C13_18  and  C14_19 
REMARK   13  A    between atoms: C14_19  and  O5_20 
REMARK   14  A    between atoms: O5_20  and  C15_21 
REMARK   15  A    between atoms: C15_21  and  C16_22 
REMARK   16  A    between atoms: C16_22  and  O6_23 
REMARK   17  A    between atoms: O6_23  and  C17_24 
REMARK   18  A    between atoms: C17_24  and  C18_25 
ROOT
HETATM    1  O3  UNL     1      36.087  20.858  -2.326  1.00  0.00    -0.387 OA
ENDROOT
BRANCH   1   2
HETATM    2  C10 UNL     1      36.129  19.690  -3.031  1.00  0.00     0.193 C 
BRANCH   2   3
HETATM    3  C9  UNL     1      36.997  18.645  -2.334  1.00  0.00     0.193 C 
BRANCH   3   4
HETATM    4  O2  UNL     1      36.417  18.098  -1.221  1.00  0.00    -0.387 OA
BRANCH   4   5
HETATM    5  C8  UNL     1      37.217  17.275  -0.471  1.00  0.00     0.194 C 
BRANCH   5   6
HETATM    6  C7  UNL     1      38.684  17.615  -0.545  1.00  0.00     0.201 C 
BRANCH   6   7
HETATM    7  O1  UNL     1      39.382  17.319   0.629  1.00  0.00    -0.349 OA
BRANCH   7   8
HETATM    8  C6  UNL     1      40.367  18.194   1.048  1.00  0.00     0.069 A 
HETATM    9  C5  UNL     1      40.824  19.224   0.228  1.00  0.00     0.046 A 
HETATM   10  C4  UNL     1      41.798  20.081   0.654  1.00  0.00    -0.027 A 
HETATM   11  C3  UNL     1      42.433  21.228  -0.031  1.00  0.00     0.060 C 
HETATM   12  C26 UNL     1      42.375  19.986   1.892  1.00  0.00     0.036 A 
HETATM   13  C2  UNL     1      43.666  21.530   0.780  1.00  0.00     0.127 C 
HETATM   14  N1  UNL     1      43.358  20.991   2.092  1.00  0.00    -0.384 N 
HETATM   15  C1  UNL     1      43.950  21.408   3.369  1.00  0.00     0.149 C 
HETATM   16  C25 UNL     1      41.927  18.967   2.713  1.00  0.00     0.033 A 
HETATM   17  C24 UNL     1      40.944  18.093   2.295  1.00  0.00     0.039 A 
ENDBRANCH   7   8
ENDBRANCH   6   7
ENDBRANCH   5   6
ENDBRANCH   4   5
ENDBRANCH   3   4
ENDBRANCH   2   3
ENDBRANCH   1   2
BRANCH   1  18
HETATM   18  C11 UNL     1      37.284  21.440  -2.121  1.00  0.00     0.193 C 
BRANCH  18  19
HETATM   19  C12 UNL     1      37.224  22.977  -1.950  1.00  0.00     0.193 C 
BRANCH  19  20
HETATM   20  O4  UNL     1      36.280  23.311  -1.045  1.00  0.00    -0.387 OA
BRANCH  20  21
HETATM   21  C13 UNL     1      35.399  24.273  -1.356  1.00  0.00     0.193 C 
BRANCH  21  22
HETATM   22  C14 UNL     1      35.791  25.651  -0.948  1.00  0.00     0.193 C 
BRANCH  22  23
HETATM   23  O5  UNL     1      35.477  25.927   0.327  1.00  0.00    -0.387 OA
BRANCH  23  24
HETATM   24  C15 UNL     1      36.529  26.093   1.206  1.00  0.00     0.193 C 
BRANCH  24  25
HETATM   25  C16 UNL     1      37.847  26.276   0.579  1.00  0.00     0.194 C 
BRANCH  25  26
HETATM   26  O6  UNL     1      38.848  25.622   1.241  1.00  0.00    -0.385 OA
BRANCH  26  27
HETATM   27  C17 UNL     1      38.758  24.257   1.269  1.00  0.00     0.206 C 
BRANCH  27  28
HETATM   28  C18 UNL     1      39.117  23.738   2.615  1.00  0.00    -0.035 A 
HETATM   29  C19 UNL     1      38.733  24.375   3.772  1.00  0.00     0.009 A 
HETATM   30  C20 UNL     1      39.101  23.849   4.996  1.00  0.00     0.001 A 
HETATM   31  C21 UNL     1      39.846  22.701   5.089  1.00  0.00     0.000 A 
HETATM   32  C22 UNL     1      40.220  22.082   3.914  1.00  0.00     0.001 A 
HETATM   33  C23 UNL     1      39.868  22.579   2.678  1.00  0.00     0.009 A 
ENDBRANCH  27  28
ENDBRANCH  26  27
ENDBRANCH  25  26
ENDBRANCH  24  25
ENDBRANCH  23  24
ENDBRANCH  22  23
ENDBRANCH  21  22
ENDBRANCH  20  21
ENDBRANCH  19  20
ENDBRANCH  18  19
ENDBRANCH   1  18
TORSDOF 18
ENDMDL
MODEL 2
REMARK VINA RESULT: -6.441850562      2.573      5.233
REMARK  18 active torsions:
REMARK  status: ('A' for Active; 'I' for Inactive)
REMARK    1  A    between atoms: C6_7  and  O1_8 
REMARK    2  A    between atoms: O1_8  and  C7_9 
REMARK    3  A    between atoms: C7_9  and  C8_10 
REMARK    4  A    between atoms: C8_10  and  O2_11 
REMARK    5  A    between atoms: O2_11  and  C9_12 
REMARK    6  A    between atoms: C9_12  and  C10_13 
REMARK    7  A    between atoms: C10_13  and  O3_14 
REMARK    8  A    between atoms: O3_14  and  C11_15 
REMARK    9  A    between atoms: C11_15  and  C12_16 
REMARK   10  A    between atoms: C12_16  and  O4_17 
REMARK   11  A    between atoms: O4_17  and  C13_18 
REMARK   12  A    between atoms: C13_18  and  C14_19 
REMARK   13  A    between atoms: C14_19  and  O5_20 
REMARK   14  A    between atoms: O5_20  and  C15_21 
REMARK   15  A    between atoms: C15_21  and  C16_22 
REMARK   16  A    between atoms: C16_22  and  O6_23 
REMARK   17  A    between atoms: O6_23  and  C17_24 
REMARK   18  A    between atoms: C17_24  and  C18_25 
ROOT
HETATM    1  O3  UNL     1      40.232  24.810   3.911  1.00  0.00    -0.387 OA
ENDROOT
BRANCH   1   2
HETATM    2  C10 UNL     1      39.792  23.714   4.595  1.00  0.00     0.193 C 
BRANCH   2   3
HETATM    3  C9  UNL     1      40.951  22.926   5.198  1.00  0.00     0.193 C 
BRANCH   3   4
HETATM    4  O2  UNL     1      41.348  21.857   4.440  1.00  0.00    -0.387 OA
BRANCH   4   5
HETATM    5  C8  UNL     1      42.404  22.080   3.595  1.00  0.00     0.194 C 
BRANCH   5   6
HETATM    6  C7  UNL     1      43.262  20.864   3.352  1.00  0.00     0.201 C 
BRANCH   6   7
HETATM    7  O1  UNL     1      42.586  19.659   3.556  1.00  0.00    -0.349 OA
BRANCH   7   8
HETATM    8  C6  UNL     1      42.096  18.983   2.454  1.00  0.00     0.069 A 
HETATM    9  C5  UNL     1      42.868  18.803   1.307  1.00  0.00     0.046 A 
HETATM   10  C4  UNL     1      42.372  18.133   0.226  1.00  0.00    -0.027 A 
HETATM   11  C3  UNL     1      42.994  17.827  -1.081  1.00  0.00     0.060 C 
HETATM   12  C26 UNL     1      41.109  17.605   0.200  1.00  0.00     0.036 A 
HETATM   13  C2  UNL     1      41.850  17.413  -1.969  1.00  0.00     0.127 C 
HETATM   14  N1  UNL     1      40.834  16.961  -1.036  1.00  0.00    -0.384 N 
HETATM   15  C1  UNL     1      39.741  16.023  -1.320  1.00  0.00     0.149 C 
HETATM   16  C25 UNL     1      40.336  17.779   1.334  1.00  0.00     0.033 A 
HETATM   17  C24 UNL     1      40.825  18.454   2.434  1.00  0.00     0.039 A 
ENDBRANCH   7   8
ENDBRANCH   6   7
ENDBRANCH   5   6
ENDBRANCH   4   5
ENDBRANCH   3   4
ENDBRANCH   2   3
ENDBRANCH   1   2
BRANCH   1  18
HETATM   18  C11 UNL     1      39.875  24.849   2.613  1.00  0.00     0.193 C 
BRANCH  18  19
HETATM   19  C12 UNL     1      38.780  23.827   2.222  1.00  0.00     0.193 C 
BRANCH  19  20
HETATM   20  O4  UNL     1      37.800  24.435   1.521  1.00  0.00    -0.387 OA
BRANCH  20  21
HETATM   21  C13 UNL     1      37.644  25.761   1.649  1.00  0.00     0.193 C 
BRANCH  21  22
HETATM   22  C14 UNL     1      36.257  26.262   1.437  1.00  0.00     0.193 C 
BRANCH  22  23
HETATM   23  O5  UNL     1      35.716  25.832   0.288  1.00  0.00    -0.387 OA
BRANCH  23  24
HETATM   24  C15 UNL     1      36.158  26.435  -0.873  1.00  0.00     0.193 C 
BRANCH  24  25
HETATM   25  C16 UNL     1      36.543  25.512  -1.952  1.00  0.00     0.194 C 
BRANCH  25  26
HETATM   26  O6  UNL     1      37.786  24.972  -1.775  1.00  0.00    -0.385 OA
BRANCH  26  27
HETATM   27  C17 UNL     1      37.930  23.663  -2.149  1.00  0.00     0.206 C 
BRANCH  27  28
HETATM   28  C18 UNL     1      39.054  23.031  -1.409  1.00  0.00    -0.035 A 
HETATM   29  C19 UNL     1      40.249  23.678  -1.199  1.00  0.00     0.009 A 
HETATM   30  C20 UNL     1      41.261  23.037  -0.508  1.00  0.00     0.001 A 
HETATM   31  C21 UNL     1      41.104  21.764  -0.025  1.00  0.00     0.000 A 
HETATM   32  C22 UNL     1      39.896  21.135  -0.249  1.00  0.00     0.001 A 
HETATM   33  C23 UNL     1      38.868  21.746  -0.932  1.00  0.00     0.009 A 
ENDBRANCH  27  28
ENDBRANCH  26  27
ENDBRANCH  25  26
ENDBRANCH  24  25
ENDBRANCH  23  24
ENDBRANCH  22  23
ENDBRANCH  21  22
ENDBRANCH  20  21
ENDBRANCH  19  20
ENDBRANCH  18  19
ENDBRANCH   1  18
TORSDOF 18
ENDMDL
MODEL 3
REMARK VINA RESULT: -6.404951106      2.287      5.190
REMARK  18 active torsions:
REMARK  status: ('A' for Active; 'I' for Inactive)
REMARK    1  A    between atoms: C6_7  and  O1_8 
REMARK    2  A    between atoms: O1_8  and  C7_9 
REMARK    3  A    between atoms: C7_9  and  C8_10 
REMARK    4  A    between atoms: C8_10  and  O2_11 
REMARK    5  A    between atoms: O2_11  and  C9_12 
REMARK    6  A    between atoms: C9_12  and  C10_13 
REMARK    7  A    between atoms: C10_13  and  O3_14 
REMARK    8  A    between atoms: O3_14  and  C11_15 
REMARK    9  A    between atoms: C11_15  and  C12_16 
REMARK   10  A    between atoms: C12_16  and  O4_17 
REMARK   11  A    between atoms: O4_17  and  C13_18 
REMARK   12  A    between atoms: C13_18  and  C14_19 
REMARK   13  A    between atoms: C14_19  and  O5_20 
REMARK   14  A    between atoms: O5_20  and  C15_21 
REMARK   15  A    between atoms: C15_21  and  C16_22 
REMARK   16  A    between atoms: C16_22  and  O6_23 
REMARK   17  A    between atoms: O6_23  and  C17_24 
REMARK   18  A    between atoms: C17_24  and  C18_25 
ROOT
HETATM    1  O3  UNL     1      39.245  24.018   3.270  1.00  0.00    -0.387 OA
ENDROOT
BRANCH   1   2
HETATM    2  C10 UNL     1      40.336  24.007   4.090  1.00  0.00     0.193 C 
BRANCH   2   3
HETATM    3  C9  UNL     1      40.360  22.763   4.974  1.00  0.00     0.193 C 
BRANCH   3   4
HETATM    4  O2  UNL     1      41.117  21.740   4.468  1.00  0.00    -0.387 OA
BRANCH   4   5
HETATM    5  C8  UNL     1      42.366  22.083   4.020  1.00  0.00     0.194 C 
BRANCH   5   6
HETATM    6  C7  UNL     1      43.167  20.920   3.489  1.00  0.00     0.201 C 
BRANCH   6   7
HETATM    7  O1  UNL     1      42.475  19.707   3.525  1.00  0.00    -0.349 OA
BRANCH   7   8
HETATM    8  C6  UNL     1      42.112  19.120   2.328  1.00  0.00     0.069 A 
HETATM    9  C5  UNL     1      40.901  18.445   2.185  1.00  0.00     0.046 A 
HETATM   10  C4  UNL     1      40.555  17.869   0.996  1.00  0.00    -0.027 A 
HETATM   11  C3  UNL     1      39.343  17.111   0.614  1.00  0.00     0.060 C 
HETATM   12  C26 UNL     1      41.359  17.918  -0.110  1.00  0.00     0.036 A 
HETATM   13  C2  UNL     1      39.704  16.426  -0.678  1.00  0.00     0.127 C 
HETATM   14  N1  UNL     1      40.775  17.246  -1.217  1.00  0.00    -0.384 N 
HETATM   15  C1  UNL     1      41.169  17.352  -2.626  1.00  0.00     0.149 C 
HETATM   16  C25 UNL     1      42.564  18.587   0.022  1.00  0.00     0.033 A 
HETATM   17  C24 UNL     1      42.926  19.173   1.218  1.00  0.00     0.039 A 
ENDBRANCH   7   8
ENDBRANCH   6   7
ENDBRANCH   5   6
ENDBRANCH   4   5
ENDBRANCH   3   4
ENDBRANCH   2   3
ENDBRANCH   1   2
BRANCH   1  18
HETATM   18  C11 UNL     1      39.151  25.095   2.466  1.00  0.00     0.193 C 
BRANCH  18  19
HETATM   19  C12 UNL     1      38.016  25.009   1.416  1.00  0.00     0.193 C 
BRANCH  19  20
HETATM   20  O4  UNL     1      36.840  25.373   1.969  1.00  0.00    -0.387 OA
BRANCH  20  21
HETATM   21  C13 UNL     1      36.137  26.362   1.396  1.00  0.00     0.193 C 
BRANCH  21  22
HETATM   22  C14 UNL     1      36.105  26.339  -0.094  1.00  0.00     0.193 C 
BRANCH  22  23
HETATM   23  O5  UNL     1      34.983  25.790  -0.583  1.00  0.00    -0.387 OA
BRANCH  23  24
HETATM   24  C15 UNL     1      35.050  24.462  -0.954  1.00  0.00     0.193 C 
BRANCH  24  25
HETATM   25  C16 UNL     1      36.247  24.084  -1.720  1.00  0.00     0.194 C 
BRANCH  25  26
HETATM   26  O6  UNL     1      36.849  22.951  -1.248  1.00  0.00    -0.385 OA
BRANCH  26  27
HETATM   27  C17 UNL     1      37.948  22.521  -1.941  1.00  0.00     0.206 C 
BRANCH  27  28
HETATM   28  C18 UNL     1      39.173  22.658  -1.111  1.00  0.00    -0.035 A 
HETATM   29  C19 UNL     1      40.144  23.592  -1.385  1.00  0.00     0.009 A 
HETATM   30  C20 UNL     1      41.266  23.669  -0.582  1.00  0.00     0.001 A 
HETATM   31  C21 UNL     1      41.439  22.832   0.490  1.00  0.00     0.000 A 
HETATM   32  C22 UNL     1      40.452  21.902   0.744  1.00  0.00     0.001 A 
HETATM   33  C23 UNL     1      39.322  21.800  -0.036  1.00  0.00     0.009 A 
ENDBRANCH  27  28
ENDBRANCH  26  27
ENDBRANCH  25  26
ENDBRANCH  24  25
ENDBRANCH  23  24
ENDBRANCH  22  23
ENDBRANCH  21  22
ENDBRANCH  20  21
ENDBRANCH  19  20
ENDBRANCH  18  19
ENDBRANCH   1  18
TORSDOF 18
ENDMDL
MODEL 4
REMARK VINA RESULT: -6.201488765      3.062      7.682
REMARK  18 active torsions:
REMARK  status: ('A' for Active; 'I' for Inactive)
REMARK    1  A    between atoms: C6_7  and  O1_8 
REMARK    2  A    between atoms: O1_8  and  C7_9 
REMARK    3  A    between atoms: C7_9  and  C8_10 
REMARK    4  A    between atoms: C8_10  and  O2_11 
REMARK    5  A    between atoms: O2_11  and  C9_12 
REMARK    6  A    between atoms: C9_12  and  C10_13 
REMARK    7  A    between atoms: C10_13  and  O3_14 
REMARK    8  A    between atoms: O3_14  and  C11_15 
REMARK    9  A    between atoms: C11_15  and  C12_16 
REMARK   10  A    between atoms: C12_16  and  O4_17 
REMARK   11  A    between atoms: O4_17  and  C13_18 
REMARK   12  A    between atoms: C13_18  and  C14_19 
REMARK   13  A    between atoms: C14_19  and  O5_20 
REMARK   14  A    between atoms: O5_20  and  C15_21 
REMARK   15  A    between atoms: C15_21  and  C16_22 
REMARK   16  A    between atoms: C16_22  and  O6_23 
REMARK   17  A    between atoms: O6_23  and  C17_24 
REMARK   18  A    between atoms: C17_24  and  C18_25 
ROOT
HETATM    1  O3  UNL     1      44.468  22.648   1.868  1.00  0.00    -0.387 OA
ENDROOT
BRANCH   1   2
HETATM    2  C10 UNL     1      43.202  22.466   2.345  1.00  0.00     0.193 C 
BRANCH   2   3
HETATM    3  C9  UNL     1      43.208  21.752   3.694  1.00  0.00     0.193 C 
BRANCH   3   4
HETATM    4  O2  UNL     1      41.980  21.702   4.299  1.00  0.00    -0.387 OA
BRANCH   4   5
HETATM    5  C8  UNL     1      41.691  22.734   5.153  1.00  0.00     0.194 C 
BRANCH   5   6
HETATM    6  C7  UNL     1      40.281  23.256   5.028  1.00  0.00     0.201 C 
BRANCH   6   7
HETATM    7  O1  UNL     1      40.180  24.395   4.225  1.00  0.00    -0.349 OA
BRANCH   7   8
HETATM    8  C6  UNL     1      39.437  24.316   3.062  1.00  0.00     0.069 A 
HETATM    9  C5  UNL     1      38.332  25.137   2.846  1.00  0.00     0.046 A 
HETATM   10  C4  UNL     1      37.607  25.049   1.692  1.00  0.00    -0.027 A 
HETATM   11  C3  UNL     1      36.413  25.802   1.250  1.00  0.00     0.060 C 
HETATM   12  C26 UNL     1      37.915  24.167   0.693  1.00  0.00     0.036 A 
HETATM   13  C2  UNL     1      35.863  25.012   0.091  1.00  0.00     0.127 C 
HETATM   14  N1  UNL     1      37.011  24.271  -0.398  1.00  0.00    -0.384 N 
HETATM   15  C1  UNL     1      37.194  23.737  -1.753  1.00  0.00     0.149 C 
HETATM   16  C25 UNL     1      39.011  23.348   0.898  1.00  0.00     0.033 A 
HETATM   17  C24 UNL     1      39.752  23.426   2.059  1.00  0.00     0.039 A 
ENDBRANCH   7   8
ENDBRANCH   6   7
ENDBRANCH   5   6
ENDBRANCH   4   5
ENDBRANCH   3   4
ENDBRANCH   2   3
ENDBRANCH   1   2
BRANCH   1  18
HETATM   18  C11 UNL     1      45.112  21.515   1.525  1.00  0.00     0.193 C 
BRANCH  18  19
HETATM   19  C12 UNL     1      44.842  21.044   0.075  1.00  0.00     0.193 C 
BRANCH  19  20
HETATM   20  O4  UNL     1      44.009  19.981   0.076  1.00  0.00    -0.387 OA
BRANCH  20  21
HETATM   21  C13 UNL     1      43.721  19.387  -1.091  1.00  0.00     0.193 C 
BRANCH  21  22
HETATM   22  C14 UNL     1      44.158  20.128  -2.308  1.00  0.00     0.193 C 
BRANCH  22  23
HETATM   23  O5  UNL     1      43.133  20.656  -2.993  1.00  0.00    -0.387 OA
BRANCH  23  24
HETATM   24  C15 UNL     1      42.179  19.777  -3.464  1.00  0.00     0.193 C 
BRANCH  24  25
HETATM   25  C16 UNL     1      40.787  20.237  -3.340  1.00  0.00     0.194 C 
BRANCH  25  26
HETATM   26  O6  UNL     1      40.545  20.898  -2.168  1.00  0.00    -0.385 OA
BRANCH  26  27
HETATM   27  C17 UNL     1      39.458  20.474  -1.453  1.00  0.00     0.206 C 
BRANCH  27  28
HETATM   28  C18 UNL     1      39.886  19.647  -0.295  1.00  0.00    -0.035 A 
HETATM   29  C19 UNL     1      40.614  20.168   0.749  1.00  0.00     0.009 A 
HETATM   30  C20 UNL     1      40.990  19.349   1.797  1.00  0.00     0.001 A 
HETATM   31  C21 UNL     1      40.655  18.020   1.824  1.00  0.00     0.000 A 
HETATM   32  C22 UNL     1      39.926  17.520   0.765  1.00  0.00     0.001 A 
HETATM   33  C23 UNL     1      39.534  18.309  -0.294  1.00  0.00     0.009 A 
ENDBRANCH  27  28
ENDBRANCH  26  27
ENDBRANCH  25  26
ENDBRANCH  24  25
ENDBRANCH  23  24
ENDBRANCH  22  23
ENDBRANCH  21  22
ENDBRANCH  20  21
ENDBRANCH  19  20
ENDBRANCH  18  19
ENDBRANCH   1  18
TORSDOF 18
ENDMDL
MODEL 5
REMARK VINA RESULT: -6.139156594      1.599      5.551
REMARK  18 active torsions:
REMARK  status: ('A' for Active; 'I' for Inactive)
REMARK    1  A    between atoms: C6_7  and  O1_8 
REMARK    2  A    between atoms: O1_8  and  C7_9 
REMARK    3  A    between atoms: C7_9  and  C8_10 
REMARK    4  A    between atoms: C8_10  and  O2_11 
REMARK    5  A    between atoms: O2_11  and  C9_12 
REMARK    6  A    between atoms: C9_12  and  C10_13 
REMARK    7  A    between atoms: C10_13  and  O3_14 
REMARK    8  A    between atoms: O3_14  and  C11_15 
REMARK    9  A    between atoms: C11_15  and  C12_16 
REMARK   10  A    between atoms: C12_16  and  O4_17 
REMARK   11  A    between atoms: O4_17  and  C13_18 
REMARK   12  A    between atoms: C13_18  and  C14_19 
REMARK   13  A    between atoms: C14_19  and  O5_20 
REMARK   14  A    between atoms: O5_20  and  C15_21 
REMARK   15  A    between atoms: C15_21  and  C16_22 
REMARK   16  A    between atoms: C16_22  and  O6_23 
REMARK   17  A    between atoms: O6_23  and  C17_24 
REMARK   18  A    between atoms: C17_24  and  C18_25 
ROOT
HETATM    1  O3  UNL     1      38.040  24.869   1.040  1.00  0.00    -0.387 OA
ENDROOT
BRANCH   1   2
HETATM    2  C10 UNL     1      38.801  24.061   1.835  1.00  0.00     0.193 C 
BRANCH   2   3
HETATM    3  C9  UNL     1      39.958  24.828   2.470  1.00  0.00     0.193 C 
BRANCH   3   4
HETATM    4  O2  UNL     1      39.871  24.931   3.833  1.00  0.00    -0.387 OA
BRANCH   4   5
HETATM    5  C8  UNL     1      39.297  23.867   4.479  1.00  0.00     0.194 C 
BRANCH   5   6
HETATM    6  C7  UNL     1      40.291  22.878   5.034  1.00  0.00     0.201 C 
BRANCH   6   7
HETATM    7  O1  UNL     1      40.317  21.667   4.338  1.00  0.00    -0.349 OA
BRANCH   7   8
HETATM    8  C6  UNL     1      41.270  21.495   3.351  1.00  0.00     0.069 A 
HETATM    9  C5  UNL     1      42.615  21.777   3.580  1.00  0.00     0.046 A 
HETATM   10  C4  UNL     1      43.545  21.603   2.595  1.00  0.00    -0.027 A 
HETATM   11  C3  UNL     1      45.006  21.835   2.605  1.00  0.00     0.060 C 
HETATM   12  C26 UNL     1      43.222  21.146   1.346  1.00  0.00     0.036 A 
HETATM   13  C2  UNL     1      45.411  21.826   1.153  1.00  0.00     0.127 C 
HETATM   14  N1  UNL     1      44.365  21.053   0.508  1.00  0.00    -0.384 N 
HETATM   15  C1  UNL     1      44.475  20.322  -0.760  1.00  0.00     0.149 C 
HETATM   16  C25 UNL     1      41.888  20.863   1.111  1.00  0.00     0.033 A 
HETATM   17  C24 UNL     1      40.938  21.035   2.096  1.00  0.00     0.039 A 
ENDBRANCH   7   8
ENDBRANCH   6   7
ENDBRANCH   5   6
ENDBRANCH   4   5
ENDBRANCH   3   4
ENDBRANCH   2   3
ENDBRANCH   1   2
BRANCH   1  18
HETATM   18  C11 UNL     1      36.989  25.444   1.657  1.00  0.00     0.193 C 
BRANCH  18  19
HETATM   19  C12 UNL     1      36.081  26.279   0.722  1.00  0.00     0.193 C 
BRANCH  19  20
HETATM   20  O4  UNL     1      35.309  25.465  -0.029  1.00  0.00    -0.387 OA
BRANCH  20  21
HETATM   21  C13 UNL     1      35.343  25.596  -1.364  1.00  0.00     0.193 C 
BRANCH  21  22
HETATM   22  C14 UNL     1      35.889  24.425  -2.105  1.00  0.00     0.193 C 
BRANCH  22  23
HETATM   23  O5  UNL     1      36.122  23.368  -1.312  1.00  0.00    -0.387 OA
BRANCH  23  24
HETATM   24  C15 UNL     1      37.075  22.466  -1.740  1.00  0.00     0.193 C 
BRANCH  24  25
HETATM   25  C16 UNL     1      36.590  21.436  -2.671  1.00  0.00     0.194 C 
BRANCH  25  26
HETATM   26  O6  UNL     1      37.444  20.374  -2.786  1.00  0.00    -0.385 OA
BRANCH  26  27
HETATM   27  C17 UNL     1      38.421  20.284  -1.832  1.00  0.00     0.206 C 
BRANCH  27  28
HETATM   28  C18 UNL     1      38.358  18.969  -1.142  1.00  0.00    -0.035 A 
HETATM   29  C19 UNL     1      37.228  18.185  -1.162  1.00  0.00     0.009 A 
HETATM   30  C20 UNL     1      37.225  16.973  -0.497  1.00  0.00     0.001 A 
HETATM   31  C21 UNL     1      38.327  16.528   0.187  1.00  0.00     0.000 A 
HETATM   32  C22 UNL     1      39.447  17.333   0.193  1.00  0.00     0.001 A 
HETATM   33  C23 UNL     1      39.483  18.545  -0.460  1.00  0.00     0.009 A 
ENDBRANCH  27  28
ENDBRANCH  26  27
ENDBRANCH  25  26
ENDBRANCH  24  25
ENDBRANCH  23  24
ENDBRANCH  22  23
ENDBRANCH  21  22
ENDBRANCH  20  21
ENDBRANCH  19  20
ENDBRANCH  18  19
ENDBRANCH   1  18
TORSDOF 18
ENDMDL
