MODEL 1
REMARK VINA RESULT: -6.293779998      0.000      0.000
REMARK  18 active torsions:
REMARK  status: ('A' for Active; 'I' for Inactive)
REMARK    1  A    between atoms: C4_4  and  O1_5 
REMARK    2  A    between atoms: O1_5  and  C5_6 
REMARK    3  A    between atoms: C5_6  and  C6_7 
REMARK    4  A    between atoms: C6_7  and  O2_8 
REMARK    5  A    between atoms: O2_8  and  C7_9 
REMARK    6  A    between atoms: C7_9  and  C8_10 
REMARK    7  A    between atoms: C8_10  and  O3_11 
REMARK    8  A    between atoms: O3_11  and  C9_12 
REMARK    9  A    between atoms: C9_12  and  C10_13 
REMARK   10  A    between atoms: C10_13  and  O4_14 
REMARK   11  A    between atoms: O4_14  and  C11_15 
REMARK   12  A    between atoms: C11_15  and  C12_16 
REMARK   13  A    between atoms: C12_16  and  O5_17 
REMARK   14  A    between atoms: O5_17  and  C13_18 
REMARK   15  A    between atoms: C16_21  and  O6_22 
REMARK   16  A    between atoms: O6_22  and  C17_23 
REMARK   17  A    between atoms: C17_23  and  C18_24 
REMARK   18  A    between atoms: C18_24  and  N1_25 
ROOT
HETATM    1  O4  UNL     1      35.665  24.848   0.153  1.00  0.00    -0.387 OA
ENDROOT
BRANCH   1   2
HETATM    2  C10 UNL     1      34.978  24.523  -0.999  1.00  0.00     0.193 C 
BRANCH   2   3
HETATM    3  C9  UNL     1      35.587  25.208  -2.173  1.00  0.00     0.193 C 
BRANCH   3   4
HETATM    4  O3  UNL     1      36.320  24.343  -2.986  1.00  0.00    -0.387 OA
BRANCH   4   5
HETATM    5  C8  UNL     1      37.676  24.604  -3.004  1.00  0.00     0.193 C 
BRANCH   5   6
HETATM    6  C7  UNL     1      38.389  23.591  -2.179  1.00  0.00     0.193 C 
BRANCH   6   7
HETATM    7  O2  UNL     1      39.558  24.058  -1.602  1.00  0.00    -0.387 OA
BRANCH   7   8
HETATM    8  C6  UNL     1      40.630  23.208  -1.681  1.00  0.00     0.194 C 
BRANCH   8   9
HETATM    9  C5  UNL     1      40.115  21.804  -1.439  1.00  0.00     0.201 C 
BRANCH   9  10
HETATM   10  O1  UNL     1      40.988  21.012  -0.692  1.00  0.00    -0.349 OA
BRANCH  10  11
HETATM   11  C4  UNL     1      40.526  19.796  -0.219  1.00  0.00     0.068 A 
HETATM   12  C3  UNL     1      39.582  19.085  -0.915  1.00  0.00     0.037 A 
HETATM   13  C2  UNL     1      39.104  17.859  -0.455  1.00  0.00     0.003 A 
HETATM   14  C1  UNL     1      39.579  17.327   0.728  1.00  0.00     0.000 A 
HETATM   15  C25 UNL     1      40.521  18.033   1.426  1.00  0.00     0.003 A 
HETATM   16  C24 UNL     1      40.984  19.242   0.960  1.00  0.00     0.037 A 
ENDBRANCH  10  11
ENDBRANCH   9  10
ENDBRANCH   8   9
ENDBRANCH   7   8
ENDBRANCH   6   7
ENDBRANCH   5   6
ENDBRANCH   4   5
ENDBRANCH   3   4
ENDBRANCH   2   3
ENDBRANCH   1   2
BRANCH   1  17
HETATM   17  C11 UNL     1      36.240  26.111   0.155  1.00  0.00     0.194 C 
BRANCH  17  18
HETATM   18  C12 UNL     1      37.589  25.966   0.814  1.00  0.00     0.201 C 
BRANCH  18  19
HETATM   19  O5  UNL     1      37.532  25.327   2.012  1.00  0.00    -0.349 OA
BRANCH  19  20
HETATM   20  C13 UNL     1      38.386  24.463   2.568  1.00  0.00     0.069 A 
HETATM   21  C14 UNL     1      38.965  23.485   1.737  1.00  0.00     0.039 A 
HETATM   22  C15 UNL     1      39.851  22.569   2.239  1.00  0.00     0.039 A 
HETATM   23  C16 UNL     1      40.219  22.557   3.573  1.00  0.00     0.069 A 
HETATM   24  C22 UNL     1      39.652  23.516   4.383  1.00  0.00     0.039 A 
HETATM   25  C23 UNL     1      38.741  24.465   3.889  1.00  0.00     0.039 A 
BRANCH  23  26
HETATM   26  O6  UNL     1      41.112  21.644   4.111  1.00  0.00    -0.349 OA
BRANCH  26  27
HETATM   27  C17 UNL     1      42.487  22.011   4.207  1.00  0.00     0.206 C 
BRANCH  27  28
HETATM   28  C18 UNL     1      43.334  21.174   3.271  1.00  0.00     0.299 C 
BRANCH  28  29
HETATM   29  N1  UNL     1      44.170  22.113   2.523  1.00  0.00     0.090 N 
HETATM   30  C19 UNL     1      45.238  21.376   1.863  1.00  0.00     0.274 C 
HETATM   31  C20 UNL     1      44.327  21.303   0.640  1.00  0.00     0.060 C 
HETATM   32  C21 UNL     1      43.490  22.424   1.260  1.00  0.00     0.274 C 
ENDBRANCH  28  29
ENDBRANCH  27  28
ENDBRANCH  26  27
ENDBRANCH  23  26
ENDBRANCH  19  20
ENDBRANCH  18  19
ENDBRANCH  17  18
ENDBRANCH   1  17
TORSDOF 18
ENDMDL
MODEL 2
REMARK VINA RESULT: -6.219192481      2.411      6.536
REMARK  18 active torsions:
REMARK  status: ('A' for Active; 'I' for Inactive)
REMARK    1  A    between atoms: C4_4  and  O1_5 
REMARK    2  A    between atoms: O1_5  and  C5_6 
REMARK    3  A    between atoms: C5_6  and  C6_7 
REMARK    4  A    between atoms: C6_7  and  O2_8 
REMARK    5  A    between atoms: O2_8  and  C7_9 
REMARK    6  A    between atoms: C7_9  and  C8_10 
REMARK    7  A    between atoms: C8_10  and  O3_11 
REMARK    8  A    between atoms: O3_11  and  C9_12 
REMARK    9  A    between atoms: C9_12  and  C10_13 
REMARK   10  A    between atoms: C10_13  and  O4_14 
REMARK   11  A    between atoms: O4_14  and  C11_15 
REMARK   12  A    between atoms: C11_15  and  C12_16 
REMARK   13  A    between atoms: C12_16  and  O5_17 
REMARK   14  A    between atoms: O5_17  and  C13_18 
REMARK   15  A    between atoms: C16_21  and  O6_22 
REMARK   16  A    between atoms: O6_22  and  C17_23 
REMARK   17  A    between atoms: C17_23  and  C18_24 
REMARK   18  A    between atoms: C18_24  and  N1_25 
ROOT
HETATM    1  O4  UNL     1      44.057  22.453   2.329  1.00  0.00    -0.387 OA
ENDROOT
BRANCH   1   2
HETATM    2  C10 UNL     1      44.992  22.304   1.323  1.00  0.00     0.193 C 
BRANCH   2   3
HETATM    3  C9  UNL     1      44.683  21.097   0.508  1.00  0.00     0.193 C 
BRANCH   3   4
HETATM    4  O3  UNL     1      43.531  21.246  -0.266  1.00  0.00    -0.387 OA
BRANCH   4   5
HETATM    5  C8  UNL     1      42.646  20.189  -0.163  1.00  0.00     0.193 C 
BRANCH   5   6
HETATM    6  C7  UNL     1      43.391  18.950   0.192  1.00  0.00     0.193 C 
BRANCH   6   7
HETATM    7  O2  UNL     1      42.664  18.061   0.965  1.00  0.00    -0.387 OA
BRANCH   7   8
HETATM    8  C6  UNL     1      42.007  18.616   2.032  1.00  0.00     0.194 C 
BRANCH   8   9
HETATM    9  C5  UNL     1      40.579  18.111   1.999  1.00  0.00     0.201 C 
BRANCH   9  10
HETATM   10  O1  UNL     1      40.290  17.330   0.880  1.00  0.00    -0.349 OA
BRANCH  10  11
HETATM   11  C4  UNL     1      39.211  17.689   0.093  1.00  0.00     0.068 A 
HETATM   12  C3  UNL     1      38.065  16.935   0.083  1.00  0.00     0.037 A 
HETATM   13  C2  UNL     1      36.968  17.281  -0.703  1.00  0.00     0.003 A 
HETATM   14  C1  UNL     1      37.011  18.408  -1.500  1.00  0.00     0.000 A 
HETATM   15  C25 UNL     1      38.151  19.164  -1.494  1.00  0.00     0.003 A 
HETATM   16  C24 UNL     1      39.228  18.811  -0.713  1.00  0.00     0.037 A 
ENDBRANCH  10  11
ENDBRANCH   9  10
ENDBRANCH   8   9
ENDBRANCH   7   8
ENDBRANCH   6   7
ENDBRANCH   5   6
ENDBRANCH   4   5
ENDBRANCH   3   4
ENDBRANCH   2   3
ENDBRANCH   1   2
BRANCH   1  17
HETATM   17  C11 UNL     1      44.003  21.406   3.238  1.00  0.00     0.194 C 
BRANCH  17  18
HETATM   18  C12 UNL     1      42.950  21.774   4.252  1.00  0.00     0.201 C 
BRANCH  18  19
HETATM   19  O5  UNL     1      41.687  21.498   3.836  1.00  0.00    -0.349 OA
BRANCH  19  20
HETATM   20  C13 UNL     1      40.713  22.320   3.434  1.00  0.00     0.069 A 
HETATM   21  C14 UNL     1      40.217  23.253   4.365  1.00  0.00     0.039 A 
HETATM   22  C15 UNL     1      39.221  24.129   4.021  1.00  0.00     0.039 A 
HETATM   23  C16 UNL     1      38.658  24.142   2.757  1.00  0.00     0.069 A 
HETATM   24  C22 UNL     1      39.147  23.229   1.850  1.00  0.00     0.039 A 
HETATM   25  C23 UNL     1      40.168  22.322   2.180  1.00  0.00     0.039 A 
BRANCH  23  26
HETATM   26  O6  UNL     1      37.650  25.015   2.379  1.00  0.00    -0.349 OA
BRANCH  26  27
HETATM   27  C17 UNL     1      37.926  25.974   1.361  1.00  0.00     0.206 C 
BRANCH  27  28
HETATM   28  C18 UNL     1      36.725  26.160   0.457  1.00  0.00     0.299 C 
BRANCH  28  29
HETATM   29  N1  UNL     1      36.414  24.839  -0.090  1.00  0.00     0.090 N 
HETATM   30  C19 UNL     1      35.258  24.949  -0.968  1.00  0.00     0.274 C 
HETATM   31  C20 UNL     1      36.246  25.129  -2.118  1.00  0.00     0.060 C 
HETATM   32  C21 UNL     1      37.338  24.575  -1.200  1.00  0.00     0.274 C 
ENDBRANCH  28  29
ENDBRANCH  27  28
ENDBRANCH  26  27
ENDBRANCH  23  26
ENDBRANCH  19  20
ENDBRANCH  18  19
ENDBRANCH  17  18
ENDBRANCH   1  17
TORSDOF 18
ENDMDL
MODEL 3
REMARK VINA RESULT: -6.215475625      2.480      6.609
REMARK  18 active torsions:
REMARK  status: ('A' for Active; 'I' for Inactive)
REMARK    1  A    between atoms: C4_4  and  O1_5 
REMARK    2  A    between atoms: O1_5  and  C5_6 
REMARK    3  A    between atoms: C5_6  and  C6_7 
REMARK    4  A    between atoms: C6_7  and  O2_8 
REMARK    5  A    between atoms: O2_8  and  C7_9 
REMARK    6  A    between atoms: C7_9  and  C8_10 
REMARK    7  A    between atoms: C8_10  and  O3_11 
REMARK    8  A    between atoms: O3_11  and  C9_12 
REMARK    9  A    between atoms: C9_12  and  C10_13 
REMARK   10  A    between atoms: C10_13  and  O4_14 
REMARK   11  A    between atoms: O4_14  and  C11_15 
REMARK   12  A    between atoms: C11_15  and  C12_16 
REMARK   13  A    between atoms: C12_16  and  O5_17 
REMARK   14  A    between atoms: O5_17  and  C13_18 
REMARK   15  A    between atoms: C16_21  and  O6_22 
REMARK   16  A    between atoms: O6_22  and  C17_23 
REMARK   17  A    between atoms: C17_23  and  C18_24 
REMARK   18  A    between atoms: C18_24  and  N1_25 
ROOT
HETATM    1  O4  UNL     1      44.412  21.410   3.400  1.00  0.00    -0.387 OA
ENDROOT
BRANCH   1   2
HETATM    2  C10 UNL     1      45.503  21.963   2.759  1.00  0.00     0.193 C 
BRANCH   2   3
HETATM    3  C9  UNL     1      45.085  22.579   1.469  1.00  0.00     0.193 C 
BRANCH   3   4
HETATM    4  O3  UNL     1      45.829  22.119   0.382  1.00  0.00    -0.387 OA
BRANCH   4   5
HETATM    5  C8  UNL     1      45.205  21.122  -0.343  1.00  0.00     0.193 C 
BRANCH   5   6
HETATM    6  C7  UNL     1      43.764  21.457  -0.511  1.00  0.00     0.193 C 
BRANCH   6   7
HETATM    7  O2  UNL     1      42.927  20.354  -0.497  1.00  0.00    -0.387 OA
BRANCH   7   8
HETATM    8  C6  UNL     1      43.169  19.449   0.503  1.00  0.00     0.194 C 
BRANCH   8   9
HETATM    9  C5  UNL     1      41.841  19.134   1.162  1.00  0.00     0.201 C 
BRANCH   9  10
HETATM   10  O1  UNL     1      41.299  17.911   0.765  1.00  0.00    -0.349 OA
BRANCH  10  11
HETATM   11  C4  UNL     1      40.037  17.909   0.198  1.00  0.00     0.068 A 
HETATM   12  C3  UNL     1      39.636  18.928  -0.629  1.00  0.00     0.037 A 
HETATM   13  C2  UNL     1      38.369  18.943  -1.209  1.00  0.00     0.003 A 
HETATM   14  C1  UNL     1      37.477  17.917  -0.961  1.00  0.00     0.000 A 
HETATM   15  C25 UNL     1      37.872  16.899  -0.138  1.00  0.00     0.003 A 
HETATM   16  C24 UNL     1      39.127  16.896   0.429  1.00  0.00     0.037 A 
ENDBRANCH  10  11
ENDBRANCH   9  10
ENDBRANCH   8   9
ENDBRANCH   7   8
ENDBRANCH   6   7
ENDBRANCH   5   6
ENDBRANCH   4   5
ENDBRANCH   3   4
ENDBRANCH   2   3
ENDBRANCH   1   2
BRANCH   1  17
HETATM   17  C11 UNL     1      43.197  22.020   3.119  1.00  0.00     0.194 C 
BRANCH  17  18
HETATM   18  C12 UNL     1      42.260  21.644   4.238  1.00  0.00     0.201 C 
BRANCH  18  19
HETATM   19  O5  UNL     1      40.954  21.647   3.866  1.00  0.00    -0.349 OA
BRANCH  19  20
HETATM   20  C13 UNL     1      40.183  22.652   3.437  1.00  0.00     0.069 A 
HETATM   21  C14 UNL     1      39.762  22.628   2.094  1.00  0.00     0.039 A 
HETATM   22  C15 UNL     1      38.968  23.624   1.587  1.00  0.00     0.039 A 
HETATM   23  C16 UNL     1      38.543  24.690   2.360  1.00  0.00     0.069 A 
HETATM   24  C22 UNL     1      38.956  24.708   3.674  1.00  0.00     0.039 A 
HETATM   25  C23 UNL     1      39.771  23.699   4.214  1.00  0.00     0.039 A 
BRANCH  23  26
HETATM   26  O6  UNL     1      37.740  25.711   1.877  1.00  0.00    -0.349 OA
BRANCH  26  27
HETATM   27  C17 UNL     1      36.366  25.433   1.619  1.00  0.00     0.206 C 
BRANCH  27  28
HETATM   28  C18 UNL     1      36.040  25.646   0.155  1.00  0.00     0.299 C 
BRANCH  28  29
HETATM   29  N1  UNL     1      35.421  24.406  -0.312  1.00  0.00     0.090 N 
HETATM   30  C19 UNL     1      34.589  24.697  -1.471  1.00  0.00     0.274 C 
HETATM   31  C20 UNL     1      35.801  24.349  -2.331  1.00  0.00     0.060 C 
HETATM   32  C21 UNL     1      36.413  23.670  -1.105  1.00  0.00     0.274 C 
ENDBRANCH  28  29
ENDBRANCH  27  28
ENDBRANCH  26  27
ENDBRANCH  23  26
ENDBRANCH  19  20
ENDBRANCH  18  19
ENDBRANCH  17  18
ENDBRANCH   1  17
TORSDOF 18
ENDMDL
MODEL 4
REMARK VINA RESULT: -6.085572204      2.376      6.812
REMARK  18 active torsions:
REMARK  status: ('A' for Active; 'I' for Inactive)
REMARK    1  A    between atoms: C4_4  and  O1_5 
REMARK    2  A    between atoms: O1_5  and  C5_6 
REMARK    3  A    between atoms: C5_6  and  C6_7 
REMARK    4  A    between atoms: C6_7  and  O2_8 
REMARK    5  A    between atoms: O2_8  and  C7_9 
REMARK    6  A    between atoms: C7_9  and  C8_10 
REMARK    7  A    between atoms: C8_10  and  O3_11 
REMARK    8  A    between atoms: O3_11  and  C9_12 
REMARK    9  A    between atoms: C9_12  and  C10_13 
REMARK   10  A    between atoms: C10_13  and  O4_14 
REMARK   11  A    between atoms: O4_14  and  C11_15 
REMARK   12  A    between atoms: C11_15  and  C12_16 
REMARK   13  A    between atoms: C12_16  and  O5_17 
REMARK   14  A    between atoms: O5_17  and  C13_18 
REMARK   15  A    between atoms: C16_21  and  O6_22 
REMARK   16  A    between atoms: O6_22  and  C17_23 
REMARK   17  A    between atoms: C17_23  and  C18_24 
REMARK   18  A    between atoms: C18_24  and  N1_25 
ROOT
HETATM    1  O4  UNL     1      41.966  21.802   4.833  1.00  0.00    -0.387 OA
ENDROOT
BRANCH   1   2
HETATM    2  C10 UNL     1      42.940  21.896   3.860  1.00  0.00     0.193 C 
BRANCH   2   3
HETATM    3  C9  UNL     1      42.664  20.931   2.760  1.00  0.00     0.193 C 
BRANCH   3   4
HETATM    4  O3  UNL     1      41.681  19.998   3.091  1.00  0.00    -0.387 OA
BRANCH   4   5
HETATM    5  C8  UNL     1      41.957  18.716   2.656  1.00  0.00     0.193 C 
BRANCH   5   6
HETATM    6  C7  UNL     1      40.711  18.091   2.131  1.00  0.00     0.193 C 
BRANCH   6   7
HETATM    7  O2  UNL     1      40.788  17.720   0.799  1.00  0.00    -0.387 OA
BRANCH   7   8
HETATM    8  C6  UNL     1      39.584  17.570   0.163  1.00  0.00     0.194 C 
BRANCH   8   9
HETATM    9  C5  UNL     1      39.619  18.428  -1.085  1.00  0.00     0.201 C 
BRANCH   9  10
HETATM   10  O1  UNL     1      38.985  19.661  -0.930  1.00  0.00    -0.349 OA
BRANCH  10  11
HETATM   11  C4  UNL     1      39.723  20.809  -1.163  1.00  0.00     0.068 A 
HETATM   12  C3  UNL     1      40.946  20.991  -0.569  1.00  0.00     0.037 A 
HETATM   13  C2  UNL     1      41.703  22.140  -0.791  1.00  0.00     0.003 A 
HETATM   14  C1  UNL     1      41.231  23.134  -1.626  1.00  0.00     0.000 A 
HETATM   15  C25 UNL     1      40.012  22.957  -2.221  1.00  0.00     0.003 A 
HETATM   16  C24 UNL     1      39.274  21.817  -1.993  1.00  0.00     0.037 A 
ENDBRANCH  10  11
ENDBRANCH   9  10
ENDBRANCH   8   9
ENDBRANCH   7   8
ENDBRANCH   6   7
ENDBRANCH   5   6
ENDBRANCH   4   5
ENDBRANCH   3   4
ENDBRANCH   2   3
ENDBRANCH   1   2
BRANCH   1  17
HETATM   17  C11 UNL     1      41.713  22.980   5.523  1.00  0.00     0.194 C 
BRANCH  17  18
HETATM   18  C12 UNL     1      40.214  23.123   5.589  1.00  0.00     0.201 C 
BRANCH  18  19
HETATM   19  O5  UNL     1      39.601  22.874   4.402  1.00  0.00    -0.349 OA
BRANCH  19  20
HETATM   20  C13 UNL     1      39.313  23.700   3.392  1.00  0.00     0.069 A 
HETATM   21  C14 UNL     1      39.115  23.133   2.118  1.00  0.00     0.039 A 
HETATM   22  C15 UNL     1      38.814  23.920   1.037  1.00  0.00     0.039 A 
HETATM   23  C16 UNL     1      38.688  25.294   1.139  1.00  0.00     0.069 A 
HETATM   24  C22 UNL     1      38.881  25.844   2.387  1.00  0.00     0.039 A 
HETATM   25  C23 UNL     1      39.191  25.057   3.510  1.00  0.00     0.039 A 
BRANCH  23  26
HETATM   26  O6  UNL     1      38.385  26.115   0.065  1.00  0.00    -0.349 OA
BRANCH  26  27
HETATM   27  C17 UNL     1      37.015  26.303  -0.282  1.00  0.00     0.206 C 
BRANCH  27  28
HETATM   28  C18 UNL     1      36.772  25.939  -1.732  1.00  0.00     0.299 C 
BRANCH  28  29
HETATM   29  N1  UNL     1      36.244  24.575  -1.730  1.00  0.00     0.090 N 
HETATM   30  C19 UNL     1      35.236  24.458  -0.686  1.00  0.00     0.274 C 
HETATM   31  C20 UNL     1      34.200  24.796  -1.754  1.00  0.00     0.060 C 
HETATM   32  C21 UNL     1      35.256  24.466  -2.812  1.00  0.00     0.274 C 
ENDBRANCH  28  29
ENDBRANCH  27  28
ENDBRANCH  26  27
ENDBRANCH  23  26
ENDBRANCH  19  20
ENDBRANCH  18  19
ENDBRANCH  17  18
ENDBRANCH   1  17
TORSDOF 18
ENDMDL
MODEL 5
REMARK VINA RESULT: -6.073796584      2.642      6.866
REMARK  18 active torsions:
REMARK  status: ('A' for Active; 'I' for Inactive)
REMARK    1  A    between atoms: C4_4  and  O1_5 
REMARK    2  A    between atoms: O1_5  and  C5_6 
REMARK    3  A    between atoms: C5_6  and  C6_7 
REMARK    4  A    between atoms: C6_7  and  O2_8 
REMARK    5  A    between atoms: O2_8  and  C7_9 
REMARK    6  A    between atoms: C7_9  and  C8_10 
REMARK    7  A    between atoms: C8_10  and  O3_11 
REMARK    8  A    between atoms: O3_11  and  C9_12 
REMARK    9  A    between atoms: C9_12  and  C10_13 
REMARK   10  A    between atoms: C10_13  and  O4_14 
REMARK   11  A    between atoms: O4_14  and  C11_15 
REMARK   12  A    between atoms: C11_15  and  C12_16 
REMARK   13  A    between atoms: C12_16  and  O5_17 
REMARK   14  A    between atoms: O5_17  and  C13_18 
REMARK   15  A    between atoms: C16_21  and  O6_22 
REMARK   16  A    between atoms: O6_22  and  C17_23 
REMARK   17  A    between atoms: C17_23  and  C18_24 
REMARK   18  A    between atoms: C18_24  and  N1_25 
ROOT
HETATM    1  O4  UNL     1      44.419  21.309   3.211  1.00  0.00    -0.387 OA
ENDROOT
BRANCH   1   2
HETATM    2  C10 UNL     1      45.592  21.875   2.754  1.00  0.00     0.193 C 
BRANCH   2   3
HETATM    3  C9  UNL     1      45.328  22.711   1.552  1.00  0.00     0.193 C 
BRANCH   3   4
HETATM    4  O3  UNL     1      45.840  22.154   0.379  1.00  0.00    -0.387 OA
BRANCH   4   5
HETATM    5  C8  UNL     1      44.927  21.391  -0.324  1.00  0.00     0.193 C 
BRANCH   5   6
HETATM    6  C7  UNL     1      45.637  20.614  -1.377  1.00  0.00     0.193 C 
BRANCH   6   7
HETATM    7  O2  UNL     1      44.810  19.783  -2.114  1.00  0.00    -0.387 OA
BRANCH   7   8
HETATM    8  C6  UNL     1      45.168  18.461  -2.125  1.00  0.00     0.194 C 
BRANCH   8   9
HETATM    9  C5  UNL     1      44.030  17.675  -1.507  1.00  0.00     0.201 C 
BRANCH   9  10
HETATM   10  O1  UNL     1      42.854  18.413  -1.371  1.00  0.00    -0.349 OA
BRANCH  10  11
HETATM   11  C4  UNL     1      42.189  18.366  -0.158  1.00  0.00     0.068 A 
HETATM   12  C3  UNL     1      42.824  18.721   1.005  1.00  0.00     0.037 A 
HETATM   13  C2  UNL     1      42.171  18.680   2.236  1.00  0.00     0.003 A 
HETATM   14  C1  UNL     1      40.852  18.276   2.311  1.00  0.00     0.000 A 
HETATM   15  C25 UNL     1      40.216  17.921   1.154  1.00  0.00     0.003 A 
HETATM   16  C24 UNL     1      40.872  17.966  -0.055  1.00  0.00     0.037 A 
ENDBRANCH  10  11
ENDBRANCH   9  10
ENDBRANCH   8   9
ENDBRANCH   7   8
ENDBRANCH   6   7
ENDBRANCH   5   6
ENDBRANCH   4   5
ENDBRANCH   3   4
ENDBRANCH   2   3
ENDBRANCH   1   2
BRANCH   1  17
HETATM   17  C11 UNL     1      43.291  22.107   3.071  1.00  0.00     0.194 C 
BRANCH  17  18
HETATM   18  C12 UNL     1      42.408  21.811   4.256  1.00  0.00     0.201 C 
BRANCH  18  19
HETATM   19  O5  UNL     1      41.089  21.754   3.938  1.00  0.00    -0.349 OA
BRANCH  19  20
HETATM   20  C13 UNL     1      40.296  22.676   3.384  1.00  0.00     0.069 A 
HETATM   21  C14 UNL     1      39.926  23.782   4.173  1.00  0.00     0.039 A 
HETATM   22  C15 UNL     1      39.117  24.768   3.669  1.00  0.00     0.039 A 
HETATM   23  C16 UNL     1      38.629  24.728   2.375  1.00  0.00     0.069 A 
HETATM   24  C22 UNL     1      38.994  23.645   1.607  1.00  0.00     0.039 A 
HETATM   25  C23 UNL     1      39.822  22.623   2.102  1.00  0.00     0.039 A 
BRANCH  23  26
HETATM   26  O6  UNL     1      37.810  25.708   1.837  1.00  0.00    -0.349 OA
BRANCH  26  27
HETATM   27  C17 UNL     1      36.435  25.401   1.619  1.00  0.00     0.206 C 
BRANCH  27  28
HETATM   28  C18 UNL     1      36.054  25.640   0.172  1.00  0.00     0.299 C 
BRANCH  28  29
HETATM   29  N1  UNL     1      35.445  24.398  -0.302  1.00  0.00     0.090 N 
HETATM   30  C19 UNL     1      34.583  24.695  -1.437  1.00  0.00     0.274 C 
HETATM   31  C20 UNL     1      35.780  24.382  -2.330  1.00  0.00     0.060 C 
HETATM   32  C21 UNL     1      36.432  23.692  -1.129  1.00  0.00     0.274 C 
ENDBRANCH  28  29
ENDBRANCH  27  28
ENDBRANCH  26  27
ENDBRANCH  23  26
ENDBRANCH  19  20
ENDBRANCH  18  19
ENDBRANCH  17  18
ENDBRANCH   1  17
TORSDOF 18
ENDMDL
