MODEL 1
REMARK VINA RESULT: -7.393786672      0.000      0.000
REMARK  7 active torsions:
REMARK  status: ('A' for Active; 'I' for Inactive)
REMARK    1  A    between atoms: N1_2  and  C2_4 
REMARK    2  A    between atoms: C4_9  and  C5_10 
REMARK    3  A    between atoms: C7_16  and  N6_17 
REMARK    4  A    between atoms: N7_20  and  N8_21 
REMARK    5  A    between atoms: N8_21  and  C10_23 
REMARK    6  A    between atoms: C10_23  and  C12_26 
REMARK    7  A    between atoms: C12_26  and  O1_27 
ROOT
HETATM    1  C10 UNL     1      34.344  44.009  41.525  1.00  0.00     0.230 C 
HETATM    2  C11 UNL     1      35.838  43.965  41.542  1.00  0.00     0.088 C 
HETATM    3  N9  UNL     1      36.992  43.941  41.572  1.00  0.00    -0.195 NA
ENDROOT
BRANCH   1   4
HETATM    4  N8  UNL     1      33.909  42.657  41.650  1.00  0.00    -0.293 N 
ATOM      5  H8  UNL     1      32.913  42.551  41.843  1.00  0.00     0.183 HD
BRANCH   4   6
HETATM    6  N7  UNL     1      34.601  41.466  41.556  1.00  0.00    -0.069 N 
HETATM    7  C7  UNL     1      35.213  40.915  40.509  1.00  0.00     0.704 A 
HETATM    8  N5  UNL     1      35.692  39.696  40.942  1.00  0.00    -0.171 N 
HETATM    9  C6  UNL     1      35.370  39.532  42.223  1.00  0.00     0.169 A 
ATOM     10  H5  UNL     1      36.210  39.028  40.371  1.00  0.00     0.186 HD
HETATM   11  N4  UNL     1      35.447  38.709  43.302  1.00  0.00    -0.324 N 
HETATM   12  C14 UNL     1      34.677  40.630  42.657  1.00  0.00     0.191 A 
HETATM   13  C5  UNL     1      34.828  39.269  44.369  1.00  0.00     0.128 A 
ATOM     14  H4  UNL     1      35.907  37.799  43.307  1.00  0.00     0.169 HD
HETATM   15  N10 UNL     1      34.364  40.442  43.955  1.00  0.00    -0.323 N 
ATOM     16  H10 UNL     1      33.846  41.103  44.533  1.00  0.00     0.169 HD
BRANCH   7  17
HETATM   17  N6  UNL     1      35.458  41.383  39.175  1.00  0.00    -0.225 N 
HETATM   18  C8  UNL     1      36.843  41.603  38.761  1.00  0.00     0.168 C 
HETATM   19  C9  UNL     1      34.408  41.591  38.204  1.00  0.00     0.168 C 
ENDBRANCH   7  17
BRANCH  13  20
HETATM   20  C4  UNL     1      34.772  38.590  45.655  1.00  0.00     0.118 A 
HETATM   21  C3  UNL     1      33.668  38.504  46.454  1.00  0.00     0.151 A 
HETATM   22  N2  UNL     1      33.707  37.850  47.644  1.00  0.00    -0.178 N 
HETATM   23  N3  UNL     1      32.452  39.081  46.087  1.00  0.00    -0.081 NA
HETATM   24  C2  UNL     1      34.822  37.261  48.091  1.00  0.00     0.681 A 
ATOM     25  H2  UNL     1      32.862  37.806  48.212  1.00  0.00     0.185 HD
HETATM   26  N11 UNL     1      35.916  37.328  47.335  1.00  0.00    -0.155 N 
HETATM   27  C15 UNL     1      35.913  37.965  46.154  1.00  0.00     0.277 A 
ATOM     28  H11 UNL     1      36.775  36.885  47.661  1.00  0.00     0.187 HD
HETATM   29  O2  UNL     1      36.990  37.981  45.501  1.00  0.00    -0.267 OA
BRANCH  24  30
HETATM   30  N1  UNL     1      34.769  36.659  49.238  1.00  0.00    -0.230 N 
HETATM   31  C1  UNL     1      35.128  35.266  49.412  1.00  0.00     0.165 C 
ATOM     32  H1  UNL     1      34.461  37.189  50.053  1.00  0.00     0.177 HD
ENDBRANCH  24  30
ENDBRANCH  13  20
ENDBRANCH   4   6
ENDBRANCH   1   4
BRANCH   1  33
HETATM   33  C12 UNL     1      33.945  44.527  40.144  1.00  0.00     0.208 C 
BRANCH  33  34
HETATM   34  O1  UNL     1      32.658  44.982  40.076  1.00  0.00    -0.393 OA
HETATM   35  C13 UNL     1      32.042  44.516  38.937  1.00  0.00     0.201 C 
ENDBRANCH  33  34
ENDBRANCH   1  33
TORSDOF 7
ENDMDL
MODEL 2
REMARK VINA RESULT: -7.216791064      2.192      3.527
REMARK  7 active torsions:
REMARK  status: ('A' for Active; 'I' for Inactive)
REMARK    1  A    between atoms: N1_2  and  C2_4 
REMARK    2  A    between atoms: C4_9  and  C5_10 
REMARK    3  A    between atoms: C7_16  and  N6_17 
REMARK    4  A    between atoms: N7_20  and  N8_21 
REMARK    5  A    between atoms: N8_21  and  C10_23 
REMARK    6  A    between atoms: C10_23  and  C12_26 
REMARK    7  A    between atoms: C12_26  and  O1_27 
ROOT
HETATM    1  C10 UNL     1      36.797  40.414  39.299  1.00  0.00     0.230 C 
HETATM    2  C11 UNL     1      37.894  40.957  38.441  1.00  0.00     0.088 C 
HETATM    3  N9  UNL     1      38.729  41.377  37.763  1.00  0.00    -0.195 NA
ENDROOT
BRANCH   1   4
HETATM    4  N8  UNL     1      36.544  41.409  40.289  1.00  0.00    -0.293 N 
ATOM      5  H8  UNL     1      37.339  42.019  40.485  1.00  0.00     0.183 HD
BRANCH   4   6
HETATM    6  N7  UNL     1      35.413  41.692  41.028  1.00  0.00    -0.069 N 
HETATM    7  C7  UNL     1      34.502  42.650  40.861  1.00  0.00     0.704 A 
HETATM    8  N5  UNL     1      33.616  42.525  41.911  1.00  0.00    -0.171 N 
HETATM    9  C6  UNL     1      33.998  41.509  42.683  1.00  0.00     0.169 A 
ATOM     10  H5  UNL     1      32.800  43.115  42.069  1.00  0.00     0.186 HD
HETATM   11  N4  UNL     1      33.719  40.782  43.796  1.00  0.00    -0.324 N 
HETATM   12  C14 UNL     1      35.133  40.950  42.162  1.00  0.00     0.191 A 
HETATM   13  C5  UNL     1      34.643  39.805  43.967  1.00  0.00     0.128 A 
ATOM     14  H4  UNL     1      32.926  40.947  44.416  1.00  0.00     0.169 HD
HETATM   15  N10 UNL     1      35.499  39.925  42.959  1.00  0.00    -0.323 N 
ATOM     16  H10 UNL     1      36.313  39.330  42.809  1.00  0.00     0.169 HD
BRANCH   7  17
HETATM   17  N6  UNL     1      34.311  43.634  39.835  1.00  0.00    -0.225 N 
HETATM   18  C8  UNL     1      35.491  44.301  39.284  1.00  0.00     0.168 C 
HETATM   19  C9  UNL     1      33.016  43.955  39.277  1.00  0.00     0.168 C 
ENDBRANCH   7  17
BRANCH  13  20
HETATM   20  C4  UNL     1      34.571  38.881  45.088  1.00  0.00     0.118 A 
HETATM   21  C3  UNL     1      34.753  37.530  45.010  1.00  0.00     0.151 A 
HETATM   22  N2  UNL     1      34.665  36.741  46.112  1.00  0.00    -0.178 N 
HETATM   23  N3  UNL     1      35.039  36.899  43.798  1.00  0.00    -0.081 NA
HETATM   24  C2  UNL     1      34.396  37.242  47.322  1.00  0.00     0.681 A 
ATOM     25  H2  UNL     1      34.808  35.736  46.013  1.00  0.00     0.185 HD
HETATM   26  N11 UNL     1      34.212  38.557  47.432  1.00  0.00    -0.155 N 
HETATM   27  C15 UNL     1      34.293  39.367  46.365  1.00  0.00     0.277 A 
ATOM     28  H11 UNL     1      34.006  38.957  48.347  1.00  0.00     0.187 HD
HETATM   29  O2  UNL     1      34.106  40.598  46.555  1.00  0.00    -0.267 OA
BRANCH  24  30
HETATM   30  N1  UNL     1      34.330  36.416  48.318  1.00  0.00    -0.230 N 
HETATM   31  C1  UNL     1      35.459  36.133  49.182  1.00  0.00     0.165 C 
ATOM     32  H1  UNL     1      33.445  35.944  48.502  1.00  0.00     0.177 HD
ENDBRANCH  24  30
ENDBRANCH  13  20
ENDBRANCH   4   6
ENDBRANCH   1   4
BRANCH   1  33
HETATM   33  C12 UNL     1      37.363  39.172  39.985  1.00  0.00     0.208 C 
BRANCH  33  34
HETATM   34  O1  UNL     1      36.406  38.307  40.438  1.00  0.00    -0.393 OA
HETATM   35  C13 UNL     1      35.489  38.044  39.447  1.00  0.00     0.201 C 
ENDBRANCH  33  34
ENDBRANCH   1  33
TORSDOF 7
ENDMDL
MODEL 3
REMARK VINA RESULT: -7.215353642      2.218      3.718
REMARK  7 active torsions:
REMARK  status: ('A' for Active; 'I' for Inactive)
REMARK    1  A    between atoms: N1_2  and  C2_4 
REMARK    2  A    between atoms: C4_9  and  C5_10 
REMARK    3  A    between atoms: C7_16  and  N6_17 
REMARK    4  A    between atoms: N7_20  and  N8_21 
REMARK    5  A    between atoms: N8_21  and  C10_23 
REMARK    6  A    between atoms: C10_23  and  C12_26 
REMARK    7  A    between atoms: C12_26  and  O1_27 
ROOT
HETATM    1  C10 UNL     1      37.438  39.684  39.730  1.00  0.00     0.230 C 
HETATM    2  C11 UNL     1      37.097  38.245  39.513  1.00  0.00     0.088 C 
HETATM    3  N9  UNL     1      36.838  37.130  39.366  1.00  0.00    -0.195 NA
ENDROOT
BRANCH   1   4
HETATM    4  N8  UNL     1      36.215  40.403  39.588  1.00  0.00    -0.293 N 
ATOM      5  H8  UNL     1      35.850  40.429  38.635  1.00  0.00     0.183 HD
BRANCH   4   6
HETATM    6  N7  UNL     1      35.438  41.071  40.514  1.00  0.00    -0.069 N 
HETATM    7  C7  UNL     1      34.859  42.268  40.437  1.00  0.00     0.704 A 
HETATM    8  N5  UNL     1      34.254  42.481  41.658  1.00  0.00    -0.171 N 
HETATM    9  C6  UNL     1      34.471  41.426  42.441  1.00  0.00     0.169 A 
ATOM     10  H5  UNL     1      33.725  43.313  41.919  1.00  0.00     0.186 HD
HETATM   11  N4  UNL     1      34.252  40.873  43.663  1.00  0.00    -0.324 N 
HETATM   12  C14 UNL     1      35.218  40.505  41.757  1.00  0.00     0.191 A 
HETATM   13  C5  UNL     1      34.839  39.654  43.742  1.00  0.00     0.128 A 
ATOM     14  H4  UNL     1      33.722  41.314  44.414  1.00  0.00     0.169 HD
HETATM   15  N10 UNL     1      35.424  39.447  42.569  1.00  0.00    -0.323 N 
ATOM     16  H10 UNL     1      35.952  38.612  42.317  1.00  0.00     0.169 HD
BRANCH   7  17
HETATM   17  N6  UNL     1      34.746  43.221  39.371  1.00  0.00    -0.225 N 
HETATM   18  C8  UNL     1      35.774  44.255  39.253  1.00  0.00     0.168 C 
HETATM   19  C9  UNL     1      33.702  43.174  38.373  1.00  0.00     0.168 C 
ENDBRANCH   7  17
BRANCH  13  20
HETATM   20  C4  UNL     1      34.750  38.847  44.950  1.00  0.00     0.118 A 
HETATM   21  C3  UNL     1      34.880  37.489  45.002  1.00  0.00     0.151 A 
HETATM   22  N2  UNL     1      34.780  36.816  46.178  1.00  0.00    -0.178 N 
HETATM   23  N3  UNL     1      35.121  36.732  43.856  1.00  0.00    -0.081 NA
HETATM   24  C2  UNL     1      34.550  37.444  47.337  1.00  0.00     0.681 A 
ATOM     25  H2  UNL     1      34.883  35.801  46.177  1.00  0.00     0.185 HD
HETATM   26  N11 UNL     1      34.418  38.769  47.318  1.00  0.00    -0.155 N 
HETATM   27  C15 UNL     1      34.512  39.467  46.175  1.00  0.00     0.277 A 
ATOM     28  H11 UNL     1      34.243  39.264  48.192  1.00  0.00     0.187 HD
HETATM   29  O2  UNL     1      34.376  40.717  46.246  1.00  0.00    -0.267 OA
BRANCH  24  30
HETATM   30  N1  UNL     1      34.469  36.722  48.410  1.00  0.00    -0.230 N 
HETATM   31  C1  UNL     1      35.572  36.564  49.336  1.00  0.00     0.165 C 
ATOM     32  H1  UNL     1      33.591  36.245  48.611  1.00  0.00     0.177 HD
ENDBRANCH  24  30
ENDBRANCH  13  20
ENDBRANCH   4   6
ENDBRANCH   1   4
BRANCH   1  33
HETATM   33  C12 UNL     1      38.375  40.079  38.589  1.00  0.00     0.208 C 
BRANCH  33  34
HETATM   34  O1  UNL     1      38.185  41.355  38.136  1.00  0.00    -0.393 OA
HETATM   35  C13 UNL     1      39.245  41.750  37.352  1.00  0.00     0.201 C 
ENDBRANCH  33  34
ENDBRANCH   1  33
TORSDOF 7
ENDMDL
MODEL 4
REMARK VINA RESULT: -7.075198025      2.156      3.556
REMARK  7 active torsions:
REMARK  status: ('A' for Active; 'I' for Inactive)
REMARK    1  A    between atoms: N1_2  and  C2_4 
REMARK    2  A    between atoms: C4_9  and  C5_10 
REMARK    3  A    between atoms: C7_16  and  N6_17 
REMARK    4  A    between atoms: N7_20  and  N8_21 
REMARK    5  A    between atoms: N8_21  and  C10_23 
REMARK    6  A    between atoms: C10_23  and  C12_26 
REMARK    7  A    between atoms: C12_26  and  O1_27 
ROOT
HETATM    1  C10 UNL     1      37.516  39.811  39.763  1.00  0.00     0.230 C 
HETATM    2  C11 UNL     1      37.276  38.338  39.676  1.00  0.00     0.088 C 
HETATM    3  N9  UNL     1      37.096  37.199  39.627  1.00  0.00    -0.195 NA
ENDROOT
BRANCH   1   4
HETATM    4  N8  UNL     1      36.238  40.427  39.621  1.00  0.00    -0.293 N 
ATOM      5  H8  UNL     1      35.844  40.366  38.681  1.00  0.00     0.183 HD
BRANCH   4   6
HETATM    6  N7  UNL     1      35.440  41.090  40.531  1.00  0.00    -0.069 N 
HETATM    7  C7  UNL     1      34.847  42.280  40.439  1.00  0.00     0.704 A 
HETATM    8  N5  UNL     1      34.222  42.492  41.650  1.00  0.00    -0.171 N 
HETATM    9  C6  UNL     1      34.441  41.445  42.442  1.00  0.00     0.169 A 
ATOM     10  H5  UNL     1      33.680  43.319  41.898  1.00  0.00     0.186 HD
HETATM   11  N4  UNL     1      34.211  40.896  43.664  1.00  0.00    -0.324 N 
HETATM   12  C14 UNL     1      35.208  40.529  41.775  1.00  0.00     0.191 A 
HETATM   13  C5  UNL     1      34.811  39.685  43.759  1.00  0.00     0.128 A 
ATOM     14  H4  UNL     1      33.664  41.335  44.405  1.00  0.00     0.169 HD
HETATM   15  N10 UNL     1      35.415  39.478  42.596  1.00  0.00    -0.323 N 
ATOM     16  H10 UNL     1      35.957  38.648  42.357  1.00  0.00     0.169 HD
BRANCH   7  17
HETATM   17  N6  UNL     1      34.739  43.225  39.366  1.00  0.00    -0.225 N 
HETATM   18  C8  UNL     1      35.712  44.315  39.300  1.00  0.00     0.168 C 
HETATM   19  C9  UNL     1      33.753  43.119  38.314  1.00  0.00     0.168 C 
ENDBRANCH   7  17
BRANCH  13  20
HETATM   20  C4  UNL     1      34.714  38.884  44.970  1.00  0.00     0.118 A 
HETATM   21  C3  UNL     1      34.450  39.371  46.218  1.00  0.00     0.151 A 
HETATM   22  N2  UNL     1      34.380  38.547  47.296  1.00  0.00    -0.178 N 
HETATM   23  N3  UNL     1      34.239  40.731  46.444  1.00  0.00    -0.081 NA
HETATM   24  C2  UNL     1      34.565  37.227  47.192  1.00  0.00     0.681 A 
ATOM     25  H2  UNL     1      34.179  38.948  48.212  1.00  0.00     0.185 HD
HETATM   26  N11 UNL     1      34.826  36.721  45.988  1.00  0.00    -0.155 N 
HETATM   27  C15 UNL     1      34.902  37.505  44.901  1.00  0.00     0.277 A 
ATOM     28  H11 UNL     1      34.970  35.716  45.890  1.00  0.00     0.187 HD
HETATM   29  O2  UNL     1      35.151  36.947  43.799  1.00  0.00    -0.267 OA
BRANCH  24  30
HETATM   30  N1  UNL     1      34.481  36.517  48.273  1.00  0.00    -0.230 N 
HETATM   31  C1  UNL     1      35.525  36.488  49.278  1.00  0.00     0.165 C 
ATOM     32  H1  UNL     1      33.644  35.954  48.423  1.00  0.00     0.177 HD
ENDBRANCH  24  30
ENDBRANCH  13  20
ENDBRANCH   4   6
ENDBRANCH   1   4
BRANCH   1  33
HETATM   33  C12 UNL     1      38.375  40.178  38.554  1.00  0.00     0.208 C 
BRANCH  33  34
HETATM   34  O1  UNL     1      38.193  41.461  38.118  1.00  0.00    -0.393 OA
HETATM   35  C13 UNL     1      39.256  41.860  37.340  1.00  0.00     0.201 C 
ENDBRANCH  33  34
ENDBRANCH   1  33
TORSDOF 7
ENDMDL
MODEL 5
REMARK VINA RESULT: -6.994133604      2.357      7.938
REMARK  7 active torsions:
REMARK  status: ('A' for Active; 'I' for Inactive)
REMARK    1  A    between atoms: N1_2  and  C2_4 
REMARK    2  A    between atoms: C4_9  and  C5_10 
REMARK    3  A    between atoms: C7_16  and  N6_17 
REMARK    4  A    between atoms: N7_20  and  N8_21 
REMARK    5  A    between atoms: N8_21  and  C10_23 
REMARK    6  A    between atoms: C10_23  and  C12_26 
REMARK    7  A    between atoms: C12_26  and  O1_27 
ROOT
HETATM    1  C10 UNL     1      34.457  37.997  46.422  1.00  0.00     0.230 C 
HETATM    2  C11 UNL     1      34.441  39.457  46.102  1.00  0.00     0.088 C 
HETATM    3  N9  UNL     1      34.446  40.587  45.862  1.00  0.00    -0.195 NA
ENDROOT
BRANCH   1   4
HETATM    4  N8  UNL     1      34.480  37.320  45.167  1.00  0.00    -0.293 N 
ATOM      5  H8  UNL     1      33.656  36.747  44.983  1.00  0.00     0.183 HD
BRANCH   4   6
HETATM    6  N7  UNL     1      35.421  37.304  44.157  1.00  0.00    -0.069 N 
HETATM    7  C7  UNL     1      36.468  36.499  43.979  1.00  0.00     0.704 A 
HETATM    8  N5  UNL     1      37.114  36.954  42.849  1.00  0.00    -0.171 N 
HETATM    9  C6  UNL     1      36.458  38.008  42.367  1.00  0.00     0.169 A 
ATOM     10  H5  UNL     1      37.958  36.547  42.446  1.00  0.00     0.186 HD
HETATM   11  N4  UNL     1      36.416  38.951  41.390  1.00  0.00    -0.324 N 
HETATM   12  C14 UNL     1      35.376  38.267  43.164  1.00  0.00     0.191 A 
HETATM   13  C5  UNL     1      35.351  39.770  41.568  1.00  0.00     0.128 A 
ATOM     14  H4  UNL     1      37.091  39.032  40.630  1.00  0.00     0.169 HD
HETATM   15  N10 UNL     1      34.728  39.336  42.657  1.00  0.00    -0.323 N 
ATOM     16  H10 UNL     1      33.885  39.750  43.053  1.00  0.00     0.169 HD
BRANCH   7  17
HETATM   17  N6  UNL     1      36.924  35.336  44.684  1.00  0.00    -0.225 N 
HETATM   18  C8  UNL     1      37.599  35.523  45.968  1.00  0.00     0.168 C 
HETATM   19  C9  UNL     1      36.697  33.987  44.216  1.00  0.00     0.168 C 
ENDBRANCH   7  17
BRANCH  13  20
HETATM   20  C4  UNL     1      35.076  40.866  40.652  1.00  0.00     0.118 A 
HETATM   21  C3  UNL     1      35.191  40.806  39.293  1.00  0.00     0.151 A 
HETATM   22  N2  UNL     1      34.915  41.883  38.513  1.00  0.00    -0.178 N 
HETATM   23  N3  UNL     1      35.596  39.639  38.643  1.00  0.00    -0.081 NA
HETATM   24  C2  UNL     1      34.519  43.051  39.032  1.00  0.00     0.681 A 
ATOM     25  H2  UNL     1      35.012  41.799  37.501  1.00  0.00     0.185 HD
HETATM   26  N11 UNL     1      34.397  43.142  40.355  1.00  0.00    -0.155 N 
HETATM   27  C15 UNL     1      34.661  42.098  41.156  1.00  0.00     0.277 A 
ATOM     28  H11 UNL     1      34.096  44.024  40.768  1.00  0.00     0.187 HD
HETATM   29  O2  UNL     1      34.520  42.268  42.396  1.00  0.00    -0.267 OA
BRANCH  24  30
HETATM   30  N1  UNL     1      34.277  44.026  38.213  1.00  0.00    -0.230 N 
HETATM   31  C1  UNL     1      33.069  44.102  37.416  1.00  0.00     0.165 C 
ATOM     32  H1  UNL     1      34.967  44.771  38.126  1.00  0.00     0.177 HD
ENDBRANCH  24  30
ENDBRANCH  13  20
ENDBRANCH   4   6
ENDBRANCH   1   4
BRANCH   1  33
HETATM   33  C12 UNL     1      33.131  37.695  47.118  1.00  0.00     0.208 C 
BRANCH  33  34
HETATM   34  O1  UNL     1      32.045  38.250  46.501  1.00  0.00    -0.393 OA
HETATM   35  C13 UNL     1      30.984  37.374  46.516  1.00  0.00     0.201 C 
ENDBRANCH  33  34
ENDBRANCH   1  33
TORSDOF 7
ENDMDL
