MODEL 1
REMARK VINA RESULT: -6.854665994      0.000      0.000
REMARK  9 active torsions:
REMARK  status: ('A' for Active; 'I' for Inactive)
REMARK    1  A    between atoms: N1_2  and  N2_4 
REMARK    2  A    between atoms: C2_5  and  C3_6 
REMARK    3  A    between atoms: N3_7  and  N4_9 
REMARK       I    between atoms: N4_9  and  C4_11 
REMARK    4  A    between atoms: C4_11  and  C5_13 
REMARK    5  A    between atoms: C5_13  and  O2_14 
REMARK    6  A    between atoms: O2_14  and  C6_15 
REMARK    7  A    between atoms: N6_17  and  O3_19 
REMARK    8  A    between atoms: C7_21  and  C8_22 
REMARK    9  A    between atoms: N9_29  and  C11_30 
ROOT
HETATM    1  C8  UNL     1      34.863  39.123  42.967  1.00  0.00     0.119 C 
HETATM    2  N7  UNL     1      35.267  39.147  44.153  1.00  0.00    -0.303 N 
ATOM      3  H7  UNL     1      36.003  38.484  44.398  1.00  0.00     0.177 HD
HETATM    4  C9  UNL     1      34.823  39.972  45.160  1.00  0.00     0.181 C 
HETATM    5  N8  UNL     1      34.453  40.679  45.997  1.00  0.00    -0.172 NA
ENDROOT
BRANCH   1   6
HETATM    6  C7  UNL     1      35.322  38.263  41.904  1.00  0.00     0.082 A 
HETATM    7  C2  UNL     1      35.753  38.606  40.625  1.00  0.00     0.109 A 
HETATM    8  N2  UNL     1      36.094  37.431  39.969  1.00  0.00    -0.189 N 
HETATM    9  N9  UNL     1      35.896  36.409  40.763  1.00  0.00    -0.197 N 
HETATM   10  C10 UNL     1      35.424  36.885  41.960  1.00  0.00     0.282 A 
HETATM   11  O4  UNL     1      35.121  36.189  42.968  1.00  0.00    -0.265 OA
BRANCH   7  12
HETATM   12  C3  UNL     1      35.821  39.954  40.106  1.00  0.00     0.141 C 
HETATM   13  N3  UNL     1      36.755  40.786  40.292  1.00  0.00    -0.307 N 
ATOM     14  H3  UNL     1      37.549  40.496  40.864  1.00  0.00     0.186 HD
BRANCH  13  15
HETATM   15  N4  UNL     1      36.763  42.060  39.771  1.00  0.00    -0.269 N 
HETATM   16  C4  UNL     1      36.446  43.213  40.524  1.00  0.00     0.260 C 
HETATM   17  O1  UNL     1      36.143  43.084  41.717  1.00  0.00    -0.269 OA
ATOM     18  H4  UNL     1      37.011  42.178  38.788  1.00  0.00     0.190 HD
BRANCH  16  19
HETATM   19  C5  UNL     1      36.468  44.599  39.909  1.00  0.00     0.283 C 
BRANCH  19  20
HETATM   20  O2  UNL     1      35.177  45.059  39.947  1.00  0.00    -0.314 OA
BRANCH  20  21
HETATM   21  C6  UNL     1      34.026  44.362  39.677  1.00  0.00     0.252 C 
HETATM   22  N5  UNL     1      33.733  43.938  38.324  1.00  0.00    -0.054 NA
HETATM   23  N6  UNL     1      33.209  44.087  40.623  1.00  0.00    -0.235 N 
ATOM     24  H6  UNL     1      32.358  43.568  40.403  1.00  0.00     0.197 HD
BRANCH  23  25
HETATM   25  O3  UNL     1      33.435  44.458  41.899  1.00  0.00    -0.287 OA
ATOM     26  H3  UNL     1      34.025  45.168  42.123  1.00  0.00     0.244 HD
ENDBRANCH  23  25
ENDBRANCH  20  21
ENDBRANCH  19  20
ENDBRANCH  16  19
ENDBRANCH  13  15
ENDBRANCH   7  12
BRANCH   8  27
HETATM   27  N1  UNL     1      36.577  37.376  38.657  1.00  0.00    -0.319 N 
HETATM   28  C1  UNL     1      37.938  37.451  38.240  1.00  0.00     0.169 C 
ATOM     29  H1  UNL     1      35.881  37.272  37.920  1.00  0.00     0.181 HD
ENDBRANCH   8  27
BRANCH   9  30
HETATM   30  C11 UNL     1      36.091  35.010  40.568  1.00  0.00     0.078 A 
HETATM   31  C12 UNL     1      37.304  34.321  40.748  1.00  0.00     0.050 A 
HETATM   32  C13 UNL     1      37.140  33.001  40.423  1.00  0.00     0.090 A 
HETATM   33  N10 UNL     1      35.861  32.850  40.045  1.00  0.00    -0.373 N 
HETATM   34  C14 UNL     1      35.227  34.033  40.125  1.00  0.00     0.119 A 
ATOM     35  H10 UNL     1      35.437  31.974  39.743  1.00  0.00     0.164 HD
ENDBRANCH   9  30
ENDBRANCH   1   6
TORSDOF 9
ENDMDL
MODEL 2
REMARK VINA RESULT: -6.807481853      2.842      6.549
REMARK  9 active torsions:
REMARK  status: ('A' for Active; 'I' for Inactive)
REMARK    1  A    between atoms: N1_2  and  N2_4 
REMARK    2  A    between atoms: C2_5  and  C3_6 
REMARK    3  A    between atoms: N3_7  and  N4_9 
REMARK       I    between atoms: N4_9  and  C4_11 
REMARK    4  A    between atoms: C4_11  and  C5_13 
REMARK    5  A    between atoms: C5_13  and  O2_14 
REMARK    6  A    between atoms: O2_14  and  C6_15 
REMARK    7  A    between atoms: N6_17  and  O3_19 
REMARK    8  A    between atoms: C7_21  and  C8_22 
REMARK    9  A    between atoms: N9_29  and  C11_30 
ROOT
HETATM    1  C8  UNL     1      34.912  42.519  40.950  1.00  0.00     0.119 C 
HETATM    2  N7  UNL     1      34.867  43.663  40.440  1.00  0.00    -0.303 N 
ATOM      3  H7  UNL     1      35.506  43.842  39.666  1.00  0.00     0.177 HD
HETATM    4  C9  UNL     1      34.047  44.703  40.814  1.00  0.00     0.181 C 
HETATM    5  N8  UNL     1      33.344  45.566  41.126  1.00  0.00    -0.172 NA
ENDROOT
BRANCH   1   6
HETATM    6  C7  UNL     1      35.767  41.423  40.566  1.00  0.00     0.082 A 
HETATM    7  C2  UNL     1      35.852  40.146  41.115  1.00  0.00     0.109 A 
HETATM    8  N2  UNL     1      36.821  39.449  40.404  1.00  0.00    -0.189 N 
HETATM    9  N9  UNL     1      37.321  40.218  39.470  1.00  0.00    -0.197 N 
HETATM   10  C10 UNL     1      36.695  41.437  39.541  1.00  0.00     0.282 A 
HETATM   11  O4  UNL     1      36.918  42.431  38.796  1.00  0.00    -0.265 OA
BRANCH   7  12
HETATM   12  C3  UNL     1      35.062  39.666  42.226  1.00  0.00     0.141 C 
HETATM   13  N3  UNL     1      35.191  39.996  43.439  1.00  0.00    -0.307 N 
ATOM     14  H3  UNL     1      35.921  40.668  43.679  1.00  0.00     0.186 HD
BRANCH  13  15
HETATM   15  N4  UNL     1      34.406  39.504  44.457  1.00  0.00    -0.269 N 
HETATM   16  C4  UNL     1      34.876  39.296  45.774  1.00  0.00     0.260 C 
HETATM   17  O1  UNL     1      36.054  39.567  46.039  1.00  0.00    -0.269 OA
ATOM     18  H4  UNL     1      33.433  39.276  44.249  1.00  0.00     0.190 HD
BRANCH  16  19
HETATM   19  C5  UNL     1      33.975  38.751  46.865  1.00  0.00     0.283 C 
BRANCH  19  20
HETATM   20  O2  UNL     1      33.191  37.792  46.276  1.00  0.00    -0.314 OA
BRANCH  20  21
HETATM   21  C6  UNL     1      31.855  37.554  46.482  1.00  0.00     0.252 C 
HETATM   22  N5  UNL     1      31.431  36.393  47.237  1.00  0.00    -0.054 NA
HETATM   23  N6  UNL     1      30.981  38.358  46.005  1.00  0.00    -0.235 N 
ATOM     24  H6  UNL     1      29.993  38.164  46.167  1.00  0.00     0.197 HD
BRANCH  23  25
HETATM   25  O3  UNL     1      31.323  39.452  45.295  1.00  0.00    -0.287 OA
ATOM     26  H3  UNL     1      31.994  40.057  45.589  1.00  0.00     0.244 HD
ENDBRANCH  23  25
ENDBRANCH  20  21
ENDBRANCH  19  20
ENDBRANCH  16  19
ENDBRANCH  13  15
ENDBRANCH   7  12
BRANCH   8  27
HETATM   27  N1  UNL     1      37.184  38.124  40.665  1.00  0.00    -0.319 N 
HETATM   28  C1  UNL     1      36.476  36.948  40.281  1.00  0.00     0.169 C 
ATOM     29  H1  UNL     1      38.048  37.984  41.188  1.00  0.00     0.181 HD
ENDBRANCH   8  27
BRANCH   9  30
HETATM   30  C11 UNL     1      38.326  39.978  38.487  1.00  0.00     0.078 A 
HETATM   31  C12 UNL     1      38.592  38.738  37.877  1.00  0.00     0.050 A 
HETATM   32  C13 UNL     1      39.656  38.861  37.023  1.00  0.00     0.090 A 
HETATM   33  N10 UNL     1      40.057  40.140  37.085  1.00  0.00    -0.373 N 
HETATM   34  C14 UNL     1      39.279  40.815  37.949  1.00  0.00     0.119 A 
ATOM     35  H10 UNL     1      40.833  40.539  36.557  1.00  0.00     0.164 HD
ENDBRANCH   9  30
ENDBRANCH   1   6
TORSDOF 9
ENDMDL
MODEL 3
REMARK VINA RESULT: -6.805152861      2.829      4.730
REMARK  9 active torsions:
REMARK  status: ('A' for Active; 'I' for Inactive)
REMARK    1  A    between atoms: N1_2  and  N2_4 
REMARK    2  A    between atoms: C2_5  and  C3_6 
REMARK    3  A    between atoms: N3_7  and  N4_9 
REMARK       I    between atoms: N4_9  and  C4_11 
REMARK    4  A    between atoms: C4_11  and  C5_13 
REMARK    5  A    between atoms: C5_13  and  O2_14 
REMARK    6  A    between atoms: O2_14  and  C6_15 
REMARK    7  A    between atoms: N6_17  and  O3_19 
REMARK    8  A    between atoms: C7_21  and  C8_22 
REMARK    9  A    between atoms: N9_29  and  C11_30 
ROOT
HETATM    1  C8  UNL     1      36.305  39.329  40.692  1.00  0.00     0.119 C 
HETATM    2  N7  UNL     1      37.507  39.553  40.415  1.00  0.00    -0.303 N 
ATOM      3  H7  UNL     1      38.173  39.485  41.184  1.00  0.00     0.177 HD
HETATM    4  C9  UNL     1      38.022  39.880  39.181  1.00  0.00     0.181 C 
HETATM    5  N8  UNL     1      38.449  40.140  38.139  1.00  0.00    -0.172 NA
ENDROOT
BRANCH   1   6
HETATM    6  C7  UNL     1      35.754  38.985  41.980  1.00  0.00     0.082 A 
HETATM    7  C2  UNL     1      34.805  39.668  42.737  1.00  0.00     0.109 A 
HETATM    8  N2  UNL     1      34.599  38.942  43.902  1.00  0.00    -0.189 N 
HETATM    9  N9  UNL     1      35.356  37.874  43.897  1.00  0.00    -0.197 N 
HETATM   10  C10 UNL     1      36.078  37.869  42.730  1.00  0.00     0.282 A 
HETATM   11  O4  UNL     1      36.915  36.993  42.378  1.00  0.00    -0.265 OA
BRANCH   7  12
HETATM   12  C3  UNL     1      34.171  40.908  42.349  1.00  0.00     0.141 C 
HETATM   13  N3  UNL     1      34.719  42.046  42.292  1.00  0.00    -0.307 N 
ATOM     14  H3  UNL     1      35.705  42.118  42.541  1.00  0.00     0.186 HD
BRANCH  13  15
HETATM   15  N4  UNL     1      34.061  43.196  41.915  1.00  0.00    -0.269 N 
HETATM   16  C4  UNL     1      33.992  43.651  40.578  1.00  0.00     0.260 C 
HETATM   17  O1  UNL     1      34.547  42.991  39.691  1.00  0.00    -0.269 OA
ATOM     18  H4  UNL     1      33.600  43.748  42.638  1.00  0.00     0.190 HD
BRANCH  16  19
HETATM   19  C5  UNL     1      33.256  44.924  40.207  1.00  0.00     0.283 C 
BRANCH  19  20
HETATM   20  O2  UNL     1      32.860  44.776  38.903  1.00  0.00    -0.314 OA
BRANCH  20  21
HETATM   21  C6  UNL     1      31.804  44.043  38.421  1.00  0.00     0.252 C 
HETATM   22  N5  UNL     1      30.465  44.285  38.915  1.00  0.00    -0.054 NA
HETATM   23  N6  UNL     1      32.003  43.142  37.534  1.00  0.00    -0.235 N 
ATOM     24  H6  UNL     1      31.207  42.607  37.188  1.00  0.00     0.197 HD
BRANCH  23  25
HETATM   25  O3  UNL     1      33.230  42.877  37.041  1.00  0.00    -0.287 OA
ATOM     26  H3  UNL     1      33.360  42.352  36.260  1.00  0.00     0.244 HD
ENDBRANCH  23  25
ENDBRANCH  20  21
ENDBRANCH  19  20
ENDBRANCH  16  19
ENDBRANCH  13  15
ENDBRANCH   7  12
BRANCH   8  27
HETATM   27  N1  UNL     1      33.705  39.316  44.911  1.00  0.00    -0.319 N 
HETATM   28  C1  UNL     1      33.980  40.140  46.041  1.00  0.00     0.169 C 
ATOM     29  H1  UNL     1      32.753  38.960  44.830  1.00  0.00     0.181 HD
ENDBRANCH   8  27
BRANCH   9  30
HETATM   30  C11 UNL     1      35.511  36.822  44.847  1.00  0.00     0.078 A 
HETATM   31  C12 UNL     1      34.722  35.658  44.913  1.00  0.00     0.050 A 
HETATM   32  C13 UNL     1      35.115  34.892  45.978  1.00  0.00     0.090 A 
HETATM   33  N10 UNL     1      36.125  35.545  46.574  1.00  0.00    -0.373 N 
HETATM   34  C14 UNL     1      36.370  36.691  45.915  1.00  0.00     0.119 A 
ATOM     35  H10 UNL     1      36.628  35.222  47.400  1.00  0.00     0.164 HD
ENDBRANCH   9  30
ENDBRANCH   1   6
TORSDOF 9
ENDMDL
MODEL 4
REMARK VINA RESULT: -6.648863343      1.918      4.566
REMARK  9 active torsions:
REMARK  status: ('A' for Active; 'I' for Inactive)
REMARK    1  A    between atoms: N1_2  and  N2_4 
REMARK    2  A    between atoms: C2_5  and  C3_6 
REMARK    3  A    between atoms: N3_7  and  N4_9 
REMARK       I    between atoms: N4_9  and  C4_11 
REMARK    4  A    between atoms: C4_11  and  C5_13 
REMARK    5  A    between atoms: C5_13  and  O2_14 
REMARK    6  A    between atoms: O2_14  and  C6_15 
REMARK    7  A    between atoms: N6_17  and  O3_19 
REMARK    8  A    between atoms: C7_21  and  C8_22 
REMARK    9  A    between atoms: N9_29  and  C11_30 
ROOT
HETATM    1  C8  UNL     1      35.840  36.964  40.184  1.00  0.00     0.119 C 
HETATM    2  N7  UNL     1      35.375  35.934  39.643  1.00  0.00    -0.303 N 
ATOM      3  H7  UNL     1      34.762  35.354  40.216  1.00  0.00     0.177 HD
HETATM    4  C9  UNL     1      35.604  35.502  38.356  1.00  0.00     0.181 C 
HETATM    5  N8  UNL     1      35.789  35.153  37.270  1.00  0.00    -0.172 NA
ENDROOT
BRANCH   1   6
HETATM    6  C7  UNL     1      35.607  37.426  41.529  1.00  0.00     0.082 A 
HETATM    7  C2  UNL     1      35.487  38.732  41.998  1.00  0.00     0.109 A 
HETATM    8  N2  UNL     1      35.268  38.667  43.367  1.00  0.00    -0.189 N 
HETATM    9  N9  UNL     1      35.248  37.415  43.753  1.00  0.00    -0.197 N 
HETATM   10  C10 UNL     1      35.453  36.627  42.648  1.00  0.00     0.282 A 
HETATM   11  O4  UNL     1      35.498  35.366  42.633  1.00  0.00    -0.265 OA
BRANCH   7  12
HETATM   12  C3  UNL     1      35.581  39.919  41.178  1.00  0.00     0.141 C 
HETATM   13  N3  UNL     1      36.589  40.673  41.060  1.00  0.00    -0.307 N 
ATOM     14  H3  UNL     1      37.430  40.437  41.587  1.00  0.00     0.186 HD
BRANCH  13  15
HETATM   15  N4  UNL     1      36.619  41.794  40.261  1.00  0.00    -0.269 N 
HETATM   16  C4  UNL     1      36.417  43.106  40.750  1.00  0.00     0.260 C 
HETATM   17  O1  UNL     1      36.200  43.267  41.958  1.00  0.00    -0.269 OA
ATOM     18  H4  UNL     1      36.797  41.672  39.264  1.00  0.00     0.190 HD
BRANCH  16  19
HETATM   19  C5  UNL     1      36.458  44.313  39.834  1.00  0.00     0.283 C 
BRANCH  19  20
HETATM   20  O2  UNL     1      35.231  44.916  39.932  1.00  0.00    -0.314 OA
BRANCH  20  21
HETATM   21  C6  UNL     1      33.995  44.341  39.770  1.00  0.00     0.252 C 
HETATM   22  N5  UNL     1      33.607  43.800  38.484  1.00  0.00    -0.054 NA
HETATM   23  N6  UNL     1      33.183  44.283  40.758  1.00  0.00    -0.235 N 
ATOM     24  H6  UNL     1      32.269  43.853  40.619  1.00  0.00     0.197 HD
BRANCH  23  25
HETATM   25  O3  UNL     1      33.495  44.772  41.975  1.00  0.00    -0.287 OA
ATOM     26  H3  UNL     1      33.281  44.310  42.777  1.00  0.00     0.244 HD
ENDBRANCH  23  25
ENDBRANCH  20  21
ENDBRANCH  19  20
ENDBRANCH  16  19
ENDBRANCH  13  15
ENDBRANCH   7  12
BRANCH   8  27
HETATM   27  N1  UNL     1      35.092  39.786  44.188  1.00  0.00    -0.319 N 
HETATM   28  C1  UNL     1      33.949  40.100  44.979  1.00  0.00     0.169 C 
ATOM     29  H1  UNL     1      35.865  40.450  44.224  1.00  0.00     0.181 HD
ENDBRANCH   8  27
BRANCH   9  30
HETATM   30  C11 UNL     1      35.059  36.825  45.036  1.00  0.00     0.078 A 
HETATM   31  C12 UNL     1      33.829  36.390  45.563  1.00  0.00     0.050 A 
HETATM   32  C13 UNL     1      34.009  35.924  46.838  1.00  0.00     0.090 A 
HETATM   33  N10 UNL     1      35.315  36.058  47.119  1.00  0.00    -0.373 N 
HETATM   34  C14 UNL     1      35.951  36.591  46.061  1.00  0.00     0.119 A 
ATOM     35  H10 UNL     1      35.757  35.795  48.000  1.00  0.00     0.164 HD
ENDBRANCH   9  30
ENDBRANCH   1   6
TORSDOF 9
ENDMDL
MODEL 5
REMARK VINA RESULT: -6.644659794      0.796      1.225
REMARK  9 active torsions:
REMARK  status: ('A' for Active; 'I' for Inactive)
REMARK    1  A    between atoms: N1_2  and  N2_4 
REMARK    2  A    between atoms: C2_5  and  C3_6 
REMARK    3  A    between atoms: N3_7  and  N4_9 
REMARK       I    between atoms: N4_9  and  C4_11 
REMARK    4  A    between atoms: C4_11  and  C5_13 
REMARK    5  A    between atoms: C5_13  and  O2_14 
REMARK    6  A    between atoms: O2_14  and  C6_15 
REMARK    7  A    between atoms: N6_17  and  O3_19 
REMARK    8  A    between atoms: C7_21  and  C8_22 
REMARK    9  A    between atoms: N9_29  and  C11_30 
ROOT
HETATM    1  C8  UNL     1      34.890  39.147  42.996  1.00  0.00     0.119 C 
HETATM    2  N7  UNL     1      35.229  39.109  44.202  1.00  0.00    -0.303 N 
ATOM      3  H7  UNL     1      35.890  38.379  44.466  1.00  0.00     0.177 HD
HETATM    4  C9  UNL     1      34.804  39.948  45.206  1.00  0.00     0.181 C 
HETATM    5  N8  UNL     1      34.452  40.666  46.041  1.00  0.00    -0.172 NA
ENDROOT
BRANCH   1   6
HETATM    6  C7  UNL     1      35.329  38.274  41.936  1.00  0.00     0.082 A 
HETATM    7  C2  UNL     1      35.773  38.604  40.658  1.00  0.00     0.109 A 
HETATM    8  N2  UNL     1      36.084  37.419  40.004  1.00  0.00    -0.189 N 
HETATM    9  N9  UNL     1      35.858  36.403  40.799  1.00  0.00    -0.197 N 
HETATM   10  C10 UNL     1      35.394  36.894  41.994  1.00  0.00     0.282 A 
HETATM   11  O4  UNL     1      35.070  36.208  43.002  1.00  0.00    -0.265 OA
BRANCH   7  12
HETATM   12  C3  UNL     1      35.877  39.949  40.137  1.00  0.00     0.141 C 
HETATM   13  N3  UNL     1      36.828  40.759  40.333  1.00  0.00    -0.307 N 
ATOM     14  H3  UNL     1      37.608  40.453  40.915  1.00  0.00     0.186 HD
BRANCH  13  15
HETATM   15  N4  UNL     1      36.872  42.032  39.810  1.00  0.00    -0.269 N 
HETATM   16  C4  UNL     1      36.682  43.200  40.583  1.00  0.00     0.260 C 
HETATM   17  O1  UNL     1      36.465  43.086  41.796  1.00  0.00    -0.269 OA
ATOM     18  H4  UNL     1      37.049  42.137  38.811  1.00  0.00     0.190 HD
BRANCH  16  19
HETATM   19  C5  UNL     1      36.739  44.584  39.964  1.00  0.00     0.283 C 
BRANCH  19  20
HETATM   20  O2  UNL     1      35.580  44.734  39.247  1.00  0.00    -0.314 OA
BRANCH  20  21
HETATM   21  C6  UNL     1      34.293  44.513  39.670  1.00  0.00     0.252 C 
HETATM   22  N5  UNL     1      33.713  45.347  40.702  1.00  0.00    -0.054 NA
HETATM   23  N6  UNL     1      33.604  43.567  39.152  1.00  0.00    -0.235 N 
ATOM     24  H6  UNL     1      32.650  43.417  39.480  1.00  0.00     0.197 HD
BRANCH  23  25
HETATM   25  O3  UNL     1      34.097  42.762  38.189  1.00  0.00    -0.287 OA
ATOM     26  H3  UNL     1      33.538  42.205  37.660  1.00  0.00     0.244 HD
ENDBRANCH  23  25
ENDBRANCH  20  21
ENDBRANCH  19  20
ENDBRANCH  16  19
ENDBRANCH  13  15
ENDBRANCH   7  12
BRANCH   8  27
HETATM   27  N1  UNL     1      36.571  37.350  38.694  1.00  0.00    -0.319 N 
HETATM   28  C1  UNL     1      37.935  37.369  38.282  1.00  0.00     0.169 C 
ATOM     29  H1  UNL     1      35.873  37.278  37.954  1.00  0.00     0.181 HD
ENDBRANCH   8  27
BRANCH   9  30
HETATM   30  C11 UNL     1      36.016  35.000  40.606  1.00  0.00     0.078 A 
HETATM   31  C12 UNL     1      35.017  34.120  40.152  1.00  0.00     0.050 A 
HETATM   32  C13 UNL     1      35.501  32.839  40.135  1.00  0.00     0.090 A 
HETATM   33  N10 UNL     1      36.771  32.898  40.565  1.00  0.00    -0.373 N 
HETATM   34  C14 UNL     1      37.091  34.173  40.850  1.00  0.00     0.119 A 
ATOM     35  H10 UNL     1      37.397  32.098  40.662  1.00  0.00     0.164 HD
ENDBRANCH   9  30
ENDBRANCH   1   6
TORSDOF 9
ENDMDL
