MODEL 1
REMARK VINA RESULT: -6.663650660      0.000      0.000
REMARK  13 active torsions:
REMARK  status: ('A' for Active; 'I' for Inactive)
REMARK    1  A    between atoms: N1_1  and  C1_5 
REMARK    2  A    between atoms: C1_5  and  C2_6 
REMARK       I    between atoms: C2_6  and  N2_8 
REMARK    3  A    between atoms: N2_8  and  N3_10 
REMARK    4  A    between atoms: C3_12  and  C4_13 
REMARK    5  A    between atoms: C3_12  and  O4_28 
REMARK    6  A    between atoms: C4_13  and  C5_14 
REMARK    7  A    between atoms: C5_14  and  N4_15 
REMARK    8  A    between atoms: N4_15  and  N5_16 
REMARK    9  A    between atoms: N5_16  and  C6_18 
REMARK   10  A    between atoms: C6_18  and  S2_20 
REMARK   11  A    between atoms: S2_20  and  S3_21 
REMARK   12  A    between atoms: S3_21  and  C7_22 
REMARK   13  A    between atoms: O4_28  and  N6_29 
ROOT
HETATM    1  N3  UNL     1      34.355  44.082  38.540  1.00  0.00    -0.279 N 
ATOM      2  H3  UNL     1      35.006  43.492  38.023  1.00  0.00     0.189 HD
HETATM    3  C3  UNL     1      34.838  44.531  39.579  1.00  0.00     0.161 C 
ENDROOT
BRANCH   3   4
HETATM    4  C4  UNL     1      36.262  44.167  39.923  1.00  0.00     0.106 C 
BRANCH   4   5
HETATM    5  C5  UNL     1      36.197  43.307  41.203  1.00  0.00     0.143 C 
BRANCH   5   6
HETATM    6  N4  UNL     1      35.151  42.292  40.962  1.00  0.00    -0.140 NA
BRANCH   6   7
HETATM    7  N5  UNL     1      34.832  41.869  42.275  1.00  0.00    -0.288 N 
ATOM      8  H5  UNL     1      34.610  42.579  42.973  1.00  0.00     0.184 HD
BRANCH   7   9
HETATM    9  C6  UNL     1      34.809  40.544  42.658  1.00  0.00     0.160 C 
HETATM   10  S1  UNL     1      35.105  39.305  41.671  1.00  0.00    -0.051 SA
BRANCH   9  11
HETATM   11  S2  UNL     1      34.352  40.160  44.382  1.00  0.00    -0.024 SA
BRANCH  11  12
HETATM   12  S3  UNL     1      35.105  38.160  44.752  1.00  0.00    -0.058 SA
BRANCH  12  13
HETATM   13  C7  UNL     1      34.322  37.711  46.349  1.00  0.00     0.198 C 
HETATM   14  C8  UNL     1      32.993  38.496  46.337  1.00  0.00     0.070 C 
HETATM   15  C9  UNL     1      31.895  37.595  46.790  1.00  0.00     0.173 C 
HETATM   16  O2  UNL     1      31.908  36.430  46.049  1.00  0.00    -0.367 OA
HETATM   17  C10 UNL     1      33.129  35.832  45.907  1.00  0.00     0.339 C 
HETATM   18  O3  UNL     1      34.158  36.395  46.585  1.00  0.00    -0.351 OA
ENDBRANCH  12  13
ENDBRANCH  11  12
ENDBRANCH   9  11
ENDBRANCH   7   9
ENDBRANCH   6   7
ENDBRANCH   5   6
ENDBRANCH   4   5
ENDBRANCH   3   4
BRANCH   3  19
HETATM   19  O4  UNL     1      34.135  45.329  40.416  1.00  0.00    -0.230 OA
BRANCH  19  20
HETATM   20  N6  UNL     1      33.230  44.954  41.327  1.00  0.00    -0.304 N 
ATOM     21  H62 UNL     1      33.311  43.989  41.647  1.00  0.00     0.184 HD
ATOM     22  H61 UNL     1      32.482  45.521  41.727  1.00  0.00     0.184 HD
ENDBRANCH  19  20
ENDBRANCH   3  19
BRANCH   1  23
HETATM   23  N2  UNL     1      33.142  44.201  37.929  1.00  0.00    -0.267 N 
HETATM   24  C2  UNL     1      32.611  43.159  37.173  1.00  0.00     0.261 C 
HETATM   25  O1  UNL     1      33.230  42.073  37.041  1.00  0.00    -0.270 OA
ATOM     26  H2  UNL     1      32.615  45.067  38.026  1.00  0.00     0.190 HD
BRANCH  24  27
HETATM   27  C1  UNL     1      31.297  43.316  36.500  1.00  0.00     0.333 C 
BRANCH  27  28
HETATM   28  N1  UNL     1      30.965  42.035  35.932  1.00  0.00    -0.071 N 
ATOM     29  H13 UNL     1      30.968  42.035  34.912  1.00  0.00     0.274 HD
ATOM     30  H12 UNL     1      31.694  41.335  36.063  1.00  0.00     0.274 HD
ATOM     31  H11 UNL     1      30.067  41.760  36.331  1.00  0.00     0.274 HD
ENDBRANCH  27  28
ENDBRANCH  24  27
ENDBRANCH   1  23
TORSDOF 13
ENDMDL
MODEL 2
REMARK VINA RESULT: -6.663579081      1.362      1.749
REMARK  13 active torsions:
REMARK  status: ('A' for Active; 'I' for Inactive)
REMARK    1  A    between atoms: N1_1  and  C1_5 
REMARK    2  A    between atoms: C1_5  and  C2_6 
REMARK       I    between atoms: C2_6  and  N2_8 
REMARK    3  A    between atoms: N2_8  and  N3_10 
REMARK    4  A    between atoms: C3_12  and  C4_13 
REMARK    5  A    between atoms: C3_12  and  O4_28 
REMARK    6  A    between atoms: C4_13  and  C5_14 
REMARK    7  A    between atoms: C5_14  and  N4_15 
REMARK    8  A    between atoms: N4_15  and  N5_16 
REMARK    9  A    between atoms: N5_16  and  C6_18 
REMARK   10  A    between atoms: C6_18  and  S2_20 
REMARK   11  A    between atoms: S2_20  and  S3_21 
REMARK   12  A    between atoms: S3_21  and  C7_22 
REMARK   13  A    between atoms: O4_28  and  N6_29 
ROOT
HETATM    1  N3  UNL     1      34.301  44.274  38.447  1.00  0.00    -0.279 N 
ATOM      2  H3  UNL     1      35.033  43.945  37.816  1.00  0.00     0.189 HD
HETATM    3  C3  UNL     1      34.728  44.567  39.563  1.00  0.00     0.161 C 
ENDROOT
BRANCH   3   4
HETATM    4  C4  UNL     1      36.205  44.414  39.829  1.00  0.00     0.106 C 
BRANCH   4   5
HETATM    5  C5  UNL     1      36.554  42.941  39.529  1.00  0.00     0.143 C 
BRANCH   5   6
HETATM    6  N4  UNL     1      35.456  42.134  40.102  1.00  0.00    -0.140 NA
BRANCH   6   7
HETATM    7  N5  UNL     1      36.138  41.315  41.034  1.00  0.00    -0.288 N 
ATOM      8  H5  UNL     1      36.572  41.759  41.844  1.00  0.00     0.184 HD
BRANCH   7   9
HETATM    9  C6  UNL     1      36.246  39.946  40.900  1.00  0.00     0.160 C 
HETATM   10  S1  UNL     1      37.246  39.206  39.876  1.00  0.00    -0.051 SA
BRANCH   9  11
HETATM   11  S2  UNL     1      35.138  38.900  41.903  1.00  0.00    -0.024 SA
BRANCH  11  12
HETATM   12  S3  UNL     1      34.297  40.217  43.407  1.00  0.00    -0.058 SA
BRANCH  12  13
HETATM   13  C7  UNL     1      35.103  39.649  44.954  1.00  0.00     0.198 C 
HETATM   14  C8  UNL     1      34.064  39.981  46.048  1.00  0.00     0.070 C 
HETATM   15  C9  UNL     1      33.942  38.815  46.968  1.00  0.00     0.173 C 
HETATM   16  O2  UNL     1      33.697  37.666  46.241  1.00  0.00    -0.367 OA
HETATM   17  C10 UNL     1      34.506  37.469  45.157  1.00  0.00     0.339 C 
HETATM   18  O3  UNL     1      35.507  38.364  44.980  1.00  0.00    -0.351 OA
ENDBRANCH  12  13
ENDBRANCH  11  12
ENDBRANCH   9  11
ENDBRANCH   7   9
ENDBRANCH   6   7
ENDBRANCH   5   6
ENDBRANCH   4   5
ENDBRANCH   3   4
BRANCH   3  19
HETATM   19  O4  UNL     1      33.917  45.015  40.550  1.00  0.00    -0.230 OA
BRANCH  19  20
HETATM   20  N6  UNL     1      33.517  44.346  41.637  1.00  0.00    -0.304 N 
ATOM     21  H62 UNL     1      34.180  43.658  41.993  1.00  0.00     0.184 HD
ATOM     22  H61 UNL     1      32.634  44.451  42.139  1.00  0.00     0.184 HD
ENDBRANCH  19  20
ENDBRANCH   3  19
BRANCH   1  23
HETATM   23  N2  UNL     1      33.068  44.291  37.867  1.00  0.00    -0.267 N 
HETATM   24  C2  UNL     1      32.576  43.182  37.185  1.00  0.00     0.261 C 
HETATM   25  O1  UNL     1      33.252  42.126  37.092  1.00  0.00    -0.270 OA
ATOM     26  H2  UNL     1      32.495  45.132  37.934  1.00  0.00     0.190 HD
BRANCH  24  27
HETATM   27  C1  UNL     1      31.237  43.229  36.544  1.00  0.00     0.333 C 
BRANCH  27  28
HETATM   28  N1  UNL     1      31.072  41.987  35.834  1.00  0.00    -0.071 N 
ATOM     29  H13 UNL     1      31.920  41.681  35.357  1.00  0.00     0.274 HD
ATOM     30  H12 UNL     1      30.973  41.181  36.450  1.00  0.00     0.274 HD
ATOM     31  H11 UNL     1      30.279  42.111  35.204  1.00  0.00     0.274 HD
ENDBRANCH  27  28
ENDBRANCH  24  27
ENDBRANCH   1  23
TORSDOF 13
ENDMDL
MODEL 3
REMARK VINA RESULT: -6.569356556      1.724      2.088
REMARK  13 active torsions:
REMARK  status: ('A' for Active; 'I' for Inactive)
REMARK    1  A    between atoms: N1_1  and  C1_5 
REMARK    2  A    between atoms: C1_5  and  C2_6 
REMARK       I    between atoms: C2_6  and  N2_8 
REMARK    3  A    between atoms: N2_8  and  N3_10 
REMARK    4  A    between atoms: C3_12  and  C4_13 
REMARK    5  A    between atoms: C3_12  and  O4_28 
REMARK    6  A    between atoms: C4_13  and  C5_14 
REMARK    7  A    between atoms: C5_14  and  N4_15 
REMARK    8  A    between atoms: N4_15  and  N5_16 
REMARK    9  A    between atoms: N5_16  and  C6_18 
REMARK   10  A    between atoms: C6_18  and  S2_20 
REMARK   11  A    between atoms: S2_20  and  S3_21 
REMARK   12  A    between atoms: S3_21  and  C7_22 
REMARK   13  A    between atoms: O4_28  and  N6_29 
ROOT
HETATM    1  N3  UNL     1      34.328  44.215  38.377  1.00  0.00    -0.279 N 
ATOM      2  H3  UNL     1      35.042  43.812  37.770  1.00  0.00     0.189 HD
HETATM    3  C3  UNL     1      34.765  44.544  39.479  1.00  0.00     0.161 C 
ENDROOT
BRANCH   3   4
HETATM    4  C4  UNL     1      36.231  44.322  39.764  1.00  0.00     0.106 C 
BRANCH   4   5
HETATM    5  C5  UNL     1      36.482  42.807  39.616  1.00  0.00     0.143 C 
BRANCH   5   6
HETATM    6  N4  UNL     1      35.282  42.137  40.159  1.00  0.00    -0.140 NA
BRANCH   6   7
HETATM    7  N5  UNL     1      35.792  41.488  41.309  1.00  0.00    -0.288 N 
ATOM      8  H5  UNL     1      36.548  41.939  41.825  1.00  0.00     0.184 HD
BRANCH   7   9
HETATM    9  C6  UNL     1      35.318  40.276  41.765  1.00  0.00     0.160 C 
HETATM   10  S1  UNL     1      35.433  38.888  40.954  1.00  0.00    -0.051 SA
BRANCH   9  11
HETATM   11  S2  UNL     1      34.445  40.248  43.367  1.00  0.00    -0.024 SA
BRANCH  11  12
HETATM   12  S3  UNL     1      35.131  38.452  44.372  1.00  0.00    -0.058 SA
BRANCH  12  13
HETATM   13  C7  UNL     1      35.413  39.022  46.093  1.00  0.00     0.198 C 
HETATM   14  C8  UNL     1      34.770  37.913  46.954  1.00  0.00     0.070 C 
HETATM   15  C9  UNL     1      35.696  37.570  48.070  1.00  0.00     0.173 C 
HETATM   16  O2  UNL     1      36.951  37.284  47.569  1.00  0.00    -0.367 OA
HETATM   17  C10 UNL     1      37.443  38.180  46.661  1.00  0.00     0.339 C 
HETATM   18  O3  UNL     1      36.690  39.283  46.433  1.00  0.00    -0.351 OA
ENDBRANCH  12  13
ENDBRANCH  11  12
ENDBRANCH   9  11
ENDBRANCH   7   9
ENDBRANCH   6   7
ENDBRANCH   5   6
ENDBRANCH   4   5
ENDBRANCH   3   4
BRANCH   3  19
HETATM   19  O4  UNL     1      33.978  45.089  40.435  1.00  0.00    -0.230 OA
BRANCH  19  20
HETATM   20  N6  UNL     1      33.600  44.532  41.591  1.00  0.00    -0.304 N 
ATOM     21  H62 UNL     1      33.628  45.151  42.401  1.00  0.00     0.184 HD
ATOM     22  H61 UNL     1      33.292  43.571  41.745  1.00  0.00     0.184 HD
ENDBRANCH  19  20
ENDBRANCH   3  19
BRANCH   1  23
HETATM   23  N2  UNL     1      33.099  44.270  37.788  1.00  0.00    -0.267 N 
HETATM   24  C2  UNL     1      32.567  43.167  37.126  1.00  0.00     0.261 C 
HETATM   25  O1  UNL     1      33.200  42.083  37.061  1.00  0.00    -0.270 OA
ATOM     26  H2  UNL     1      32.561  45.134  37.834  1.00  0.00     0.190 HD
BRANCH  24  27
HETATM   27  C1  UNL     1      31.235  43.255  36.476  1.00  0.00     0.333 C 
BRANCH  27  28
HETATM   28  N1  UNL     1      30.952  41.952  35.930  1.00  0.00    -0.071 N 
ATOM     29  H13 UNL     1      31.067  41.908  34.918  1.00  0.00     0.274 HD
ATOM     30  H12 UNL     1      31.655  41.254  36.171  1.00  0.00     0.274 HD
ATOM     31  H11 UNL     1      30.013  41.701  36.239  1.00  0.00     0.274 HD
ENDBRANCH  27  28
ENDBRANCH  24  27
ENDBRANCH   1  23
TORSDOF 13
ENDMDL
MODEL 4
REMARK VINA RESULT: -6.412056355      1.317      1.775
REMARK  13 active torsions:
REMARK  status: ('A' for Active; 'I' for Inactive)
REMARK    1  A    between atoms: N1_1  and  C1_5 
REMARK    2  A    between atoms: C1_5  and  C2_6 
REMARK       I    between atoms: C2_6  and  N2_8 
REMARK    3  A    between atoms: N2_8  and  N3_10 
REMARK    4  A    between atoms: C3_12  and  C4_13 
REMARK    5  A    between atoms: C3_12  and  O4_28 
REMARK    6  A    between atoms: C4_13  and  C5_14 
REMARK    7  A    between atoms: C5_14  and  N4_15 
REMARK    8  A    between atoms: N4_15  and  N5_16 
REMARK    9  A    between atoms: N5_16  and  C6_18 
REMARK   10  A    between atoms: C6_18  and  S2_20 
REMARK   11  A    between atoms: S2_20  and  S3_21 
REMARK   12  A    between atoms: S3_21  and  C7_22 
REMARK   13  A    between atoms: O4_28  and  N6_29 
ROOT
HETATM    1  N3  UNL     1      34.346  44.162  38.520  1.00  0.00    -0.279 N 
ATOM      2  H3  UNL     1      35.060  43.776  37.901  1.00  0.00     0.189 HD
HETATM    3  C3  UNL     1      34.783  44.456  39.632  1.00  0.00     0.161 C 
ENDROOT
BRANCH   3   4
HETATM    4  C4  UNL     1      36.248  44.222  39.910  1.00  0.00     0.106 C 
BRANCH   4   5
HETATM    5  C5  UNL     1      36.455  42.693  39.914  1.00  0.00     0.143 C 
BRANCH   5   6
HETATM    6  N4  UNL     1      35.946  42.213  41.216  1.00  0.00    -0.140 NA
BRANCH   6   7
HETATM    7  N5  UNL     1      36.194  40.821  41.143  1.00  0.00    -0.288 N 
ATOM      8  H5  UNL     1      37.020  40.501  40.638  1.00  0.00     0.184 HD
BRANCH   7   9
HETATM    9  C6  UNL     1      35.372  39.876  41.721  1.00  0.00     0.160 C 
HETATM   10  S1  UNL     1      35.480  38.290  41.456  1.00  0.00    -0.051 SA
BRANCH   9  11
HETATM   11  S2  UNL     1      34.030  40.461  42.810  1.00  0.00    -0.024 SA
BRANCH  11  12
HETATM   12  S3  UNL     1      34.754  40.169  44.834  1.00  0.00    -0.058 SA
BRANCH  12  13
HETATM   13  C7  UNL     1      34.483  38.376  45.116  1.00  0.00     0.198 C 
HETATM   14  C8  UNL     1      35.904  37.830  45.378  1.00  0.00     0.070 C 
HETATM   15  C9  UNL     1      35.861  36.913  46.552  1.00  0.00     0.173 C 
HETATM   16  O2  UNL     1      35.258  37.547  47.621  1.00  0.00    -0.367 OA
HETATM   17  C10 UNL     1      34.085  38.190  47.342  1.00  0.00     0.339 C 
HETATM   18  O3  UNL     1      33.604  38.050  46.084  1.00  0.00    -0.351 OA
ENDBRANCH  12  13
ENDBRANCH  11  12
ENDBRANCH   9  11
ENDBRANCH   7   9
ENDBRANCH   6   7
ENDBRANCH   5   6
ENDBRANCH   4   5
ENDBRANCH   3   4
BRANCH   3  19
HETATM   19  O4  UNL     1      33.996  44.972  40.603  1.00  0.00    -0.230 OA
BRANCH  19  20
HETATM   20  N6  UNL     1      33.514  44.341  41.680  1.00  0.00    -0.304 N 
ATOM     21  H62 UNL     1      32.886  43.562  41.481  1.00  0.00     0.184 HD
ATOM     22  H61 UNL     1      33.705  44.553  42.659  1.00  0.00     0.184 HD
ENDBRANCH  19  20
ENDBRANCH   3  19
BRANCH   1  23
HETATM   23  N2  UNL     1      33.118  44.238  37.932  1.00  0.00    -0.267 N 
HETATM   24  C2  UNL     1      32.609  43.179  37.185  1.00  0.00     0.261 C 
HETATM   25  O1  UNL     1      33.264  42.116  37.039  1.00  0.00    -0.270 OA
ATOM     26  H2  UNL     1      32.563  45.086  38.041  1.00  0.00     0.190 HD
BRANCH  24  27
HETATM   27  C1  UNL     1      31.278  43.291  36.538  1.00  0.00     0.333 C 
BRANCH  27  28
HETATM   28  N1  UNL     1      31.098  42.099  35.748  1.00  0.00    -0.071 N 
ATOM     29  H13 UNL     1      31.975  41.632  35.520  1.00  0.00     0.274 HD
ATOM     30  H12 UNL     1      30.675  41.332  36.270  1.00  0.00     0.274 HD
ATOM     31  H11 UNL     1      30.561  42.370  34.925  1.00  0.00     0.274 HD
ENDBRANCH  27  28
ENDBRANCH  24  27
ENDBRANCH   1  23
TORSDOF 13
ENDMDL
MODEL 5
REMARK VINA RESULT: -6.389162489      3.837      5.530
REMARK  13 active torsions:
REMARK  status: ('A' for Active; 'I' for Inactive)
REMARK    1  A    between atoms: N1_1  and  C1_5 
REMARK    2  A    between atoms: C1_5  and  C2_6 
REMARK       I    between atoms: C2_6  and  N2_8 
REMARK    3  A    between atoms: N2_8  and  N3_10 
REMARK    4  A    between atoms: C3_12  and  C4_13 
REMARK    5  A    between atoms: C3_12  and  O4_28 
REMARK    6  A    between atoms: C4_13  and  C5_14 
REMARK    7  A    between atoms: C5_14  and  N4_15 
REMARK    8  A    between atoms: N4_15  and  N5_16 
REMARK    9  A    between atoms: N5_16  and  C6_18 
REMARK   10  A    between atoms: C6_18  and  S2_20 
REMARK   11  A    between atoms: S2_20  and  S3_21 
REMARK   12  A    between atoms: S3_21  and  C7_22 
REMARK   13  A    between atoms: O4_28  and  N6_29 
ROOT
HETATM    1  N3  UNL     1      34.145  44.271  38.423  1.00  0.00    -0.279 N 
ATOM      2  H3  UNL     1      34.923  44.001  37.821  1.00  0.00     0.189 HD
HETATM    3  C3  UNL     1      34.495  44.525  39.574  1.00  0.00     0.161 C 
ENDROOT
BRANCH   3   4
HETATM    4  C4  UNL     1      35.960  44.414  39.919  1.00  0.00     0.106 C 
BRANCH   4   5
HETATM    5  C5  UNL     1      36.339  42.928  39.750  1.00  0.00     0.143 C 
BRANCH   5   6
HETATM    6  N4  UNL     1      35.212  42.151  40.307  1.00  0.00    -0.140 NA
BRANCH   6   7
HETATM    7  N5  UNL     1      35.872  41.218  41.142  1.00  0.00    -0.288 N 
ATOM      8  H5  UNL     1      36.885  41.290  41.244  1.00  0.00     0.184 HD
BRANCH   7   9
HETATM    9  C6  UNL     1      35.214  40.216  41.825  1.00  0.00     0.160 C 
HETATM   10  S1  UNL     1      34.490  40.409  43.252  1.00  0.00    -0.051 SA
BRANCH   9  11
HETATM   11  S2  UNL     1      35.212  38.544  41.096  1.00  0.00    -0.024 SA
BRANCH  11  12
HETATM   12  S3  UNL     1      35.896  38.798  39.054  1.00  0.00    -0.058 SA
BRANCH  12  13
HETATM   13  C7  UNL     1      37.723  38.788  39.223  1.00  0.00     0.198 C 
HETATM   14  C8  UNL     1      38.197  37.978  37.996  1.00  0.00     0.070 C 
HETATM   15  C9  UNL     1      39.348  38.685  37.366  1.00  0.00     0.173 C 
HETATM   16  O2  UNL     1      39.011  40.002  37.119  1.00  0.00    -0.367 OA
HETATM   17  C10 UNL     1      38.420  40.666  38.157  1.00  0.00     0.339 C 
HETATM   18  O3  UNL     1      38.320  39.990  39.327  1.00  0.00    -0.351 OA
ENDBRANCH  12  13
ENDBRANCH  11  12
ENDBRANCH   9  11
ENDBRANCH   7   9
ENDBRANCH   6   7
ENDBRANCH   5   6
ENDBRANCH   4   5
ENDBRANCH   3   4
BRANCH   3  19
HETATM   19  O4  UNL     1      33.612  44.892  40.532  1.00  0.00    -0.230 OA
BRANCH  19  20
HETATM   20  N6  UNL     1      33.615  44.532  41.820  1.00  0.00    -0.304 N 
ATOM     21  H62 UNL     1      33.548  43.529  41.990  1.00  0.00     0.184 HD
ATOM     22  H61 UNL     1      33.675  45.143  42.635  1.00  0.00     0.184 HD
ENDBRANCH  19  20
ENDBRANCH   3  19
BRANCH   1  23
HETATM   23  N2  UNL     1      32.946  44.270  37.773  1.00  0.00    -0.267 N 
HETATM   24  C2  UNL     1      32.516  43.157  37.055  1.00  0.00     0.261 C 
HETATM   25  O1  UNL     1      33.216  42.116  36.993  1.00  0.00    -0.270 OA
ATOM     26  H2  UNL     1      32.354  45.099  37.813  1.00  0.00     0.190 HD
BRANCH  24  27
HETATM   27  C1  UNL     1      31.215  43.185  36.339  1.00  0.00     0.333 C 
BRANCH  27  28
HETATM   28  N1  UNL     1      30.766  41.820  36.240  1.00  0.00    -0.071 N 
ATOM     29  H13 UNL     1      31.530  41.152  36.139  1.00  0.00     0.274 HD
ATOM     30  H12 UNL     1      30.390  41.456  37.115  1.00  0.00     0.274 HD
ATOM     31  H11 UNL     1      30.098  41.785  35.470  1.00  0.00     0.274 HD
ENDBRANCH  27  28
ENDBRANCH  24  27
ENDBRANCH   1  23
TORSDOF 13
ENDMDL
