MODEL 1
REMARK VINA RESULT: -7.860213844      0.000      0.000
REMARK  11 active torsions:
REMARK  status: ('A' for Active; 'I' for Inactive)
REMARK    1  A    between atoms: C2_2  and  C3_3 
REMARK    2  A    between atoms: C3_3  and  N3_8 
REMARK    3  A    between atoms: N3_8  and  N4_10 
REMARK    4  A    between atoms: C6_12  and  C7_13 
REMARK    5  A    between atoms: C6_12  and  C14_30 
REMARK    6  A    between atoms: C7_13  and  O1_14 
REMARK    7  A    between atoms: C7_13  and  C8_16 
REMARK    8  A    between atoms: C8_16  and  N5_18 
REMARK    9  A    between atoms: N5_18  and  N6_20 
REMARK   10  A    between atoms: N6_20  and  C10_22 
REMARK   11  A    between atoms: C15_36  and  N11_37 
ROOT
HETATM    1  C3  UNL     1      34.354  43.376  39.400  1.00  0.00     0.222 C 
HETATM    2  C4  UNL     1      33.899  43.287  40.809  1.00  0.00     0.108 C 
HETATM    3  N1  UNL     1      33.547  43.208  41.908  1.00  0.00    -0.193 NA
HETATM    4  C5  UNL     1      35.667  44.013  39.456  1.00  0.00     0.108 C 
HETATM    5  N2  UNL     1      36.715  44.522  39.495  1.00  0.00    -0.193 NA
ENDROOT
BRANCH   1   6
HETATM    6  C2  UNL     1      33.357  44.273  38.675  1.00  0.00     0.059 C 
HETATM    7  C1  UNL     1      32.867  43.661  37.405  1.00  0.00     0.010 C 
ENDBRANCH   1   6
BRANCH   1   8
HETATM    8  N3  UNL     1      34.463  42.069  38.784  1.00  0.00    -0.299 N 
ATOM      9  H3  UNL     1      33.611  41.590  38.490  1.00  0.00     0.183 HD
BRANCH   8  10
HETATM   10  N4  UNL     1      35.645  41.469  38.589  1.00  0.00    -0.298 N 
HETATM   11  C6  UNL     1      36.419  40.761  39.367  1.00  0.00     0.115 C 
ATOM     12  H4  UNL     1      36.014  41.590  37.646  1.00  0.00     0.187 HD
BRANCH  11  13
HETATM   13  C7  UNL     1      36.025  40.519  40.706  1.00  0.00     0.120 C 
BRANCH  13  14
HETATM   14  O1  UNL     1      36.428  41.494  41.550  1.00  0.00    -0.357 OA
ATOM     15  H1  UNL     1      35.898  41.537  42.338  1.00  0.00     0.218 HD
ENDBRANCH  13  14
BRANCH  13  16
HETATM   16  C8  UNL     1      35.305  39.508  41.411  1.00  0.00     0.058 C 
HETATM   17  C9  UNL     1      35.491  38.063  41.521  1.00  0.00     0.072 C 
BRANCH  16  18
HETATM   18  N5  UNL     1      34.254  39.956  42.118  1.00  0.00    -0.288 N 
ATOM     19  H5  UNL     1      33.319  39.826  41.732  1.00  0.00     0.187 HD
BRANCH  18  20
HETATM   20  N6  UNL     1      34.376  40.570  43.318  1.00  0.00    -0.132 N 
ATOM     21  H6  UNL     1      34.483  41.584  43.333  1.00  0.00     0.205 HD
BRANCH  20  22
HETATM   22  C10 UNL     1      34.363  39.876  44.558  1.00  0.00     0.688 C 
HETATM   23  N7  UNL     1      33.220  39.663  45.114  1.00  0.00    -0.225 N 
HETATM   24  C11 UNL     1      33.230  38.948  46.387  1.00  0.00     0.139 C 
ATOM     25  H7  UNL     1      32.350  39.980  44.685  1.00  0.00     0.177 HD
HETATM   26  C12 UNL     1      34.208  37.801  46.242  1.00  0.00     0.040 C 
HETATM   27  C13 UNL     1      35.602  38.358  46.100  1.00  0.00     0.139 C 
HETATM   28  N8  UNL     1      35.586  39.444  45.138  1.00  0.00    -0.225 N 
ATOM     29  H8  UNL     1      36.459  39.902  44.877  1.00  0.00     0.177 HD
ENDBRANCH  20  22
ENDBRANCH  18  20
ENDBRANCH  16  18
ENDBRANCH  13  16
ENDBRANCH  11  13
BRANCH  11  30
HETATM   30  C14 UNL     1      37.632  40.313  38.702  1.00  0.00     0.132 A 
HETATM   31  N9  UNL     1      38.149  39.103  38.473  1.00  0.00    -0.236 N 
HETATM   32  O2  UNL     1      39.256  39.151  37.827  1.00  0.00    -0.155 OA
ATOM     33  H9  UNL     1      37.711  38.234  38.778  1.00  0.00     0.197 HD
HETATM   34  N10 UNL     1      39.583  40.358  37.565  1.00  0.00    -0.224 N 
HETATM   35  C15 UNL     1      38.595  41.155  38.094  1.00  0.00     0.152 A 
ATOM     36  H10 UNL     1      40.415  40.670  37.064  1.00  0.00     0.198 HD
BRANCH  35  37
HETATM   37  N11 UNL     1      38.654  42.395  37.994  1.00  0.00    -0.382 N 
ATOM     38 2H11 UNL     1      37.991  42.904  37.411  1.00  0.00     0.157 HD
ATOM     39 1H11 UNL     1      39.291  43.073  38.411  1.00  0.00     0.157 HD
ENDBRANCH  35  37
ENDBRANCH  11  30
ENDBRANCH   8  10
ENDBRANCH   1   8
TORSDOF 11
ENDMDL
MODEL 2
REMARK VINA RESULT: -7.750614718      0.547      1.075
REMARK  11 active torsions:
REMARK  status: ('A' for Active; 'I' for Inactive)
REMARK    1  A    between atoms: C2_2  and  C3_3 
REMARK    2  A    between atoms: C3_3  and  N3_8 
REMARK    3  A    between atoms: N3_8  and  N4_10 
REMARK    4  A    between atoms: C6_12  and  C7_13 
REMARK    5  A    between atoms: C6_12  and  C14_30 
REMARK    6  A    between atoms: C7_13  and  O1_14 
REMARK    7  A    between atoms: C7_13  and  C8_16 
REMARK    8  A    between atoms: C8_16  and  N5_18 
REMARK    9  A    between atoms: N5_18  and  N6_20 
REMARK   10  A    between atoms: N6_20  and  C10_22 
REMARK   11  A    between atoms: C15_36  and  N11_37 
ROOT
HETATM    1  C3  UNL     1      34.147  43.502  39.429  1.00  0.00     0.222 C 
HETATM    2  C4  UNL     1      33.674  43.321  40.823  1.00  0.00     0.108 C 
HETATM    3  N1  UNL     1      33.308  43.171  41.910  1.00  0.00    -0.193 NA
HETATM    4  C5  UNL     1      35.390  44.260  39.537  1.00  0.00     0.108 C 
HETATM    5  N2  UNL     1      36.383  44.866  39.617  1.00  0.00    -0.193 NA
ENDROOT
BRANCH   1   6
HETATM    6  C2  UNL     1      33.083  44.321  38.709  1.00  0.00     0.059 C 
HETATM    7  C1  UNL     1      32.686  43.711  37.405  1.00  0.00     0.010 C 
ENDBRANCH   1   6
BRANCH   1   8
HETATM    8  N3  UNL     1      34.396  42.232  38.775  1.00  0.00    -0.299 N 
ATOM      9  H3  UNL     1      33.601  41.663  38.485  1.00  0.00     0.183 HD
BRANCH   8  10
HETATM   10  N4  UNL     1      35.636  41.783  38.539  1.00  0.00    -0.298 N 
HETATM   11  C6  UNL     1      36.496  41.127  39.272  1.00  0.00     0.115 C 
ATOM     12  H4  UNL     1      35.977  41.996  37.602  1.00  0.00     0.187 HD
BRANCH  11  13
HETATM   13  C7  UNL     1      36.148  40.769  40.597  1.00  0.00     0.120 C 
BRANCH  13  14
HETATM   14  O1  UNL     1      36.662  41.617  41.515  1.00  0.00    -0.357 OA
ATOM     15  H1  UNL     1      36.228  42.462  41.515  1.00  0.00     0.218 HD
ENDBRANCH  13  14
BRANCH  13  16
HETATM   16  C8  UNL     1      35.391  39.739  41.231  1.00  0.00     0.058 C 
HETATM   17  C9  UNL     1      35.483  38.281  41.190  1.00  0.00     0.072 C 
BRANCH  16  18
HETATM   18  N5  UNL     1      34.400  40.178  42.026  1.00  0.00    -0.288 N 
ATOM     19  H5  UNL     1      33.440  40.112  41.687  1.00  0.00     0.187 HD
BRANCH  18  20
HETATM   20  N6  UNL     1      34.615  40.702  43.256  1.00  0.00    -0.132 N 
ATOM     21  H6  UNL     1      34.895  41.680  43.322  1.00  0.00     0.205 HD
BRANCH  20  22
HETATM   22  C10 UNL     1      34.469  39.961  44.460  1.00  0.00     0.688 C 
HETATM   23  N7  UNL     1      33.277  39.790  44.918  1.00  0.00    -0.225 N 
HETATM   24  C11 UNL     1      33.150  39.026  46.155  1.00  0.00     0.139 C 
ATOM     25  H7  UNL     1      32.460  40.172  44.439  1.00  0.00     0.177 HD
HETATM   26  C12 UNL     1      34.075  37.832  46.034  1.00  0.00     0.040 C 
HETATM   27  C13 UNL     1      35.504  38.316  46.023  1.00  0.00     0.139 C 
HETATM   28  N8  UNL     1      35.619  39.439  45.111  1.00  0.00    -0.225 N 
ATOM     29  H8  UNL     1      36.532  39.858  44.937  1.00  0.00     0.177 HD
ENDBRANCH  20  22
ENDBRANCH  18  20
ENDBRANCH  16  18
ENDBRANCH  13  16
ENDBRANCH  11  13
BRANCH  11  30
HETATM   30  C14 UNL     1      37.743  40.857  38.575  1.00  0.00     0.132 A 
HETATM   31  N9  UNL     1      38.616  41.640  37.935  1.00  0.00    -0.236 N 
HETATM   32  O2  UNL     1      39.613  40.988  37.462  1.00  0.00    -0.155 OA
ATOM     33  H9  UNL     1      38.501  42.649  37.834  1.00  0.00     0.197 HD
HETATM   34  N10 UNL     1      39.516  39.742  37.728  1.00  0.00    -0.224 N 
HETATM   35  C15 UNL     1      38.347  39.583  38.435  1.00  0.00     0.152 A 
ATOM     36  H10 UNL     1      40.174  39.009  37.466  1.00  0.00     0.198 HD
BRANCH  35  37
HETATM   37  N11 UNL     1      37.986  38.458  38.826  1.00  0.00    -0.382 N 
ATOM     38 2H11 UNL     1      38.617  37.659  38.772  1.00  0.00     0.157 HD
ATOM     39 1H11 UNL     1      37.104  38.135  39.223  1.00  0.00     0.157 HD
ENDBRANCH  35  37
ENDBRANCH  11  30
ENDBRANCH   8  10
ENDBRANCH   1   8
TORSDOF 11
ENDMDL
MODEL 3
REMARK VINA RESULT: -7.534991161      2.140      6.945
REMARK  11 active torsions:
REMARK  status: ('A' for Active; 'I' for Inactive)
REMARK    1  A    between atoms: C2_2  and  C3_3 
REMARK    2  A    between atoms: C3_3  and  N3_8 
REMARK    3  A    between atoms: N3_8  and  N4_10 
REMARK    4  A    between atoms: C6_12  and  C7_13 
REMARK    5  A    between atoms: C6_12  and  C14_30 
REMARK    6  A    between atoms: C7_13  and  O1_14 
REMARK    7  A    between atoms: C7_13  and  C8_16 
REMARK    8  A    between atoms: C8_16  and  N5_18 
REMARK    9  A    between atoms: N5_18  and  N6_20 
REMARK   10  A    between atoms: N6_20  and  C10_22 
REMARK   11  A    between atoms: C15_36  and  N11_37 
ROOT
HETATM    1  C3  UNL     1      36.659  37.781  38.977  1.00  0.00     0.222 C 
HETATM    2  C4  UNL     1      37.919  38.134  38.279  1.00  0.00     0.108 C 
HETATM    3  N1  UNL     1      38.901  38.418  37.737  1.00  0.00    -0.193 NA
HETATM    4  C5  UNL     1      37.068  37.270  40.282  1.00  0.00     0.108 C 
HETATM    5  N2  UNL     1      37.389  36.860  41.325  1.00  0.00    -0.193 NA
ENDROOT
BRANCH   1   6
HETATM    6  C2  UNL     1      35.998  36.680  38.156  1.00  0.00     0.059 C 
HETATM    7  C1  UNL     1      34.741  36.181  38.788  1.00  0.00     0.010 C 
ENDBRANCH   1   6
BRANCH   1   8
HETATM    8  N3  UNL     1      35.794  38.933  39.144  1.00  0.00    -0.299 N 
ATOM      9  H3  UNL     1      35.545  39.485  38.324  1.00  0.00     0.183 HD
BRANCH   8  10
HETATM   10  N4  UNL     1      35.312  39.294  40.341  1.00  0.00    -0.298 N 
HETATM   11  C6  UNL     1      35.472  40.362  41.075  1.00  0.00     0.115 C 
ATOM     12  H4  UNL     1      34.698  38.597  40.762  1.00  0.00     0.187 HD
BRANCH  11  13
HETATM   13  C7  UNL     1      36.303  41.409  40.607  1.00  0.00     0.120 C 
BRANCH  13  14
HETATM   14  O1  UNL     1      37.487  40.960  40.134  1.00  0.00    -0.357 OA
ATOM     15  H1  UNL     1      38.229  41.410  40.520  1.00  0.00     0.218 HD
ENDBRANCH  13  14
BRANCH  13  16
HETATM   16  C8  UNL     1      36.224  42.830  40.500  1.00  0.00     0.058 C 
HETATM   17  C9  UNL     1      36.162  43.891  41.502  1.00  0.00     0.072 C 
BRANCH  16  18
HETATM   18  N5  UNL     1      36.206  43.298  39.240  1.00  0.00    -0.288 N 
ATOM     19  H5  UNL     1      36.930  42.983  38.595  1.00  0.00     0.187 HD
BRANCH  18  20
HETATM   20  N6  UNL     1      35.272  44.168  38.788  1.00  0.00    -0.132 N 
ATOM     21  H6  UNL     1      35.537  45.147  38.677  1.00  0.00     0.205 HD
BRANCH  20  22
HETATM   22  C10 UNL     1      33.943  43.789  38.459  1.00  0.00     0.688 C 
HETATM   23  N7  UNL     1      32.986  44.558  38.851  1.00  0.00    -0.225 N 
HETATM   24  C11 UNL     1      31.628  44.150  38.502  1.00  0.00     0.139 C 
ATOM     25  H7  UNL     1      33.169  45.411  39.381  1.00  0.00     0.177 HD
HETATM   26  C12 UNL     1      31.663  43.687  37.060  1.00  0.00     0.040 C 
HETATM   27  C13 UNL     1      32.482  42.424  36.969  1.00  0.00     0.139 C 
HETATM   28  N8  UNL     1      33.710  42.597  37.721  1.00  0.00    -0.225 N 
ATOM     29  H8  UNL     1      34.412  41.857  37.722  1.00  0.00     0.177 HD
ENDBRANCH  20  22
ENDBRANCH  18  20
ENDBRANCH  16  18
ENDBRANCH  13  16
ENDBRANCH  11  13
BRANCH  11  30
HETATM   30  C14 UNL     1      34.737  40.302  42.329  1.00  0.00     0.132 A 
HETATM   31  N9  UNL     1      33.758  41.050  42.845  1.00  0.00    -0.236 N 
HETATM   32  O2  UNL     1      33.375  40.639  43.997  1.00  0.00    -0.155 OA
ATOM     33  H9  UNL     1      33.359  41.862  42.373  1.00  0.00     0.197 HD
HETATM   34  N10 UNL     1      34.035  39.606  44.359  1.00  0.00    -0.224 N 
HETATM   35  C15 UNL     1      34.923  39.333  43.345  1.00  0.00     0.152 A 
ATOM     36  H10 UNL     1      33.925  39.087  45.230  1.00  0.00     0.198 HD
BRANCH  35  37
HETATM   37  N11 UNL     1      35.710  38.373  43.428  1.00  0.00    -0.382 N 
ATOM     38 2H11 UNL     1      36.719  38.524  43.442  1.00  0.00     0.157 HD
ATOM     39 1H11 UNL     1      35.542  37.369  43.485  1.00  0.00     0.157 HD
ENDBRANCH  35  37
ENDBRANCH  11  30
ENDBRANCH   8  10
ENDBRANCH   1   8
TORSDOF 11
ENDMDL
MODEL 4
REMARK VINA RESULT: -7.529227926      1.989      6.693
REMARK  11 active torsions:
REMARK  status: ('A' for Active; 'I' for Inactive)
REMARK    1  A    between atoms: C2_2  and  C3_3 
REMARK    2  A    between atoms: C3_3  and  N3_8 
REMARK    3  A    between atoms: N3_8  and  N4_10 
REMARK    4  A    between atoms: C6_12  and  C7_13 
REMARK    5  A    between atoms: C6_12  and  C14_30 
REMARK    6  A    between atoms: C7_13  and  O1_14 
REMARK    7  A    between atoms: C7_13  and  C8_16 
REMARK    8  A    between atoms: C8_16  and  N5_18 
REMARK    9  A    between atoms: N5_18  and  N6_20 
REMARK   10  A    between atoms: N6_20  and  C10_22 
REMARK   11  A    between atoms: C15_36  and  N11_37 
ROOT
HETATM    1  C3  UNL     1      35.148  38.706  45.337  1.00  0.00     0.222 C 
HETATM    2  C4  UNL     1      35.063  37.378  44.682  1.00  0.00     0.108 C 
HETATM    3  N1  UNL     1      35.000  36.345  44.163  1.00  0.00    -0.193 NA
HETATM    4  C5  UNL     1      36.368  38.666  46.137  1.00  0.00     0.108 C 
HETATM    5  N2  UNL     1      37.341  38.641  46.779  1.00  0.00    -0.193 NA
ENDROOT
BRANCH   1   6
HETATM    6  C2  UNL     1      33.924  38.829  46.236  1.00  0.00     0.059 C 
HETATM    7  C1  UNL     1      32.908  39.772  45.683  1.00  0.00     0.010 C 
ENDBRANCH   1   6
BRANCH   1   8
HETATM    8  N3  UNL     1      35.225  39.781  44.367  1.00  0.00    -0.299 N 
ATOM      9  H3  UNL     1      35.094  40.742  44.685  1.00  0.00     0.183 HD
BRANCH   8  10
HETATM   10  N4  UNL     1      35.462  39.554  43.068  1.00  0.00    -0.298 N 
HETATM   11  C6  UNL     1      35.178  40.225  41.984  1.00  0.00     0.115 C 
ATOM     12  H4  UNL     1      35.964  38.684  42.891  1.00  0.00     0.187 HD
BRANCH  11  13
HETATM   13  C7  UNL     1      34.480  41.453  42.090  1.00  0.00     0.120 C 
BRANCH  13  14
HETATM   14  O1  UNL     1      33.282  41.317  42.700  1.00  0.00    -0.357 OA
ATOM     15  H1  UNL     1      33.304  41.582  43.612  1.00  0.00     0.218 HD
ENDBRANCH  13  14
BRANCH  13  16
HETATM   16  C8  UNL     1      34.706  42.812  41.721  1.00  0.00     0.058 C 
HETATM   17  C9  UNL     1      35.926  43.567  41.442  1.00  0.00     0.072 C 
BRANCH  16  18
HETATM   18  N5  UNL     1      33.593  43.555  41.598  1.00  0.00    -0.288 N 
ATOM     19  H5  UNL     1      32.805  43.354  42.215  1.00  0.00     0.187 HD
BRANCH  18  20
HETATM   20  N6  UNL     1      33.467  44.556  40.696  1.00  0.00    -0.132 N 
ATOM     21  H6  UNL     1      33.875  45.463  40.922  1.00  0.00     0.205 HD
BRANCH  20  22
HETATM   22  C10 UNL     1      32.796  44.410  39.452  1.00  0.00     0.688 C 
HETATM   23  N7  UNL     1      33.508  44.115  38.419  1.00  0.00    -0.225 N 
HETATM   24  C11 UNL     1      32.799  43.969  37.151  1.00  0.00     0.139 C 
ATOM     25  H7  UNL     1      34.518  43.988  38.484  1.00  0.00     0.177 HD
HETATM   26  C12 UNL     1      31.541  43.174  37.437  1.00  0.00     0.040 C 
HETATM   27  C13 UNL     1      30.622  44.002  38.301  1.00  0.00     0.139 C 
HETATM   28  N8  UNL     1      31.389  44.591  39.383  1.00  0.00    -0.225 N 
ATOM     29  H8  UNL     1      30.914  45.140  40.100  1.00  0.00     0.177 HD
ENDBRANCH  20  22
ENDBRANCH  18  20
ENDBRANCH  16  18
ENDBRANCH  13  16
ENDBRANCH  11  13
BRANCH  11  30
HETATM   30  C14 UNL     1      35.644  39.568  40.774  1.00  0.00     0.132 A 
HETATM   31  N9  UNL     1      35.231  38.484  40.111  1.00  0.00    -0.236 N 
HETATM   32  O2  UNL     1      35.927  38.252  39.059  1.00  0.00    -0.155 OA
ATOM     33  H9  UNL     1      34.447  37.904  40.408  1.00  0.00     0.197 HD
HETATM   34  N10 UNL     1      36.847  39.126  38.914  1.00  0.00    -0.224 N 
HETATM   35  C15 UNL     1      36.728  39.998  39.971  1.00  0.00     0.152 A 
ATOM     36  H10 UNL     1      37.535  39.170  38.162  1.00  0.00     0.198 HD
BRANCH  35  37
HETATM   37  N11 UNL     1      37.508  40.961  40.094  1.00  0.00    -0.382 N 
ATOM     38 2H11 UNL     1      37.373  41.652  40.832  1.00  0.00     0.157 HD
ATOM     39 1H11 UNL     1      38.332  41.232  39.557  1.00  0.00     0.157 HD
ENDBRANCH  35  37
ENDBRANCH  11  30
ENDBRANCH   8  10
ENDBRANCH   1   8
TORSDOF 11
ENDMDL
MODEL 5
REMARK VINA RESULT: -7.380366990      2.875      6.419
REMARK  11 active torsions:
REMARK  status: ('A' for Active; 'I' for Inactive)
REMARK    1  A    between atoms: C2_2  and  C3_3 
REMARK    2  A    between atoms: C3_3  and  N3_8 
REMARK    3  A    between atoms: N3_8  and  N4_10 
REMARK    4  A    between atoms: C6_12  and  C7_13 
REMARK    5  A    between atoms: C6_12  and  C14_30 
REMARK    6  A    between atoms: C7_13  and  O1_14 
REMARK    7  A    between atoms: C7_13  and  C8_16 
REMARK    8  A    between atoms: C8_16  and  N5_18 
REMARK    9  A    between atoms: N5_18  and  N6_20 
REMARK   10  A    between atoms: N6_20  and  C10_22 
REMARK   11  A    between atoms: C15_36  and  N11_37 
ROOT
HETATM    1  C3  UNL     1      35.171  38.668  45.419  1.00  0.00     0.222 C 
HETATM    2  C4  UNL     1      36.422  38.468  46.190  1.00  0.00     0.108 C 
HETATM    3  N1  UNL     1      37.402  38.315  46.786  1.00  0.00    -0.193 NA
HETATM    4  C5  UNL     1      34.577  39.889  45.955  1.00  0.00     0.108 C 
HETATM    5  N2  UNL     1      34.097  40.864  46.379  1.00  0.00    -0.193 NA
ENDROOT
BRANCH   1   6
HETATM    6  C2  UNL     1      34.279  37.468  45.712  1.00  0.00     0.059 C 
HETATM    7  C1  UNL     1      33.928  37.365  47.160  1.00  0.00     0.010 C 
ENDBRANCH   1   6
BRANCH   1   8
HETATM    8  N3  UNL     1      35.431  38.824  44.001  1.00  0.00    -0.299 N 
ATOM      9  H3  UNL     1      35.844  38.046  43.487  1.00  0.00     0.183 HD
BRANCH   8  10
HETATM   10  N4  UNL     1      35.146  39.957  43.345  1.00  0.00    -0.298 N 
HETATM   11  C6  UNL     1      35.242  40.302  42.089  1.00  0.00     0.115 C 
ATOM     12  H4  UNL     1      34.783  40.697  43.945  1.00  0.00     0.187 HD
BRANCH  11  13
HETATM   13  C7  UNL     1      35.736  39.366  41.147  1.00  0.00     0.120 C 
BRANCH  13  14
HETATM   14  O1  UNL     1      34.859  38.369  40.899  1.00  0.00    -0.357 OA
ATOM     15  H1  UNL     1      34.934  38.027  40.015  1.00  0.00     0.218 HD
ENDBRANCH  13  14
BRANCH  13  16
HETATM   16  C8  UNL     1      36.926  39.192  40.380  1.00  0.00     0.058 C 
HETATM   17  C9  UNL     1      37.378  39.776  39.119  1.00  0.00     0.072 C 
BRANCH  16  18
HETATM   18  N5  UNL     1      37.814  38.332  40.906  1.00  0.00    -0.288 N 
ATOM     19  H5  UNL     1      38.746  38.286  40.495  1.00  0.00     0.187 HD
BRANCH  18  20
HETATM   20  N6  UNL     1      37.531  37.526  41.956  1.00  0.00    -0.132 N 
ATOM     21  H6  UNL     1      36.560  37.451  42.259  1.00  0.00     0.205 HD
BRANCH  20  22
HETATM   22  C10 UNL     1      38.515  36.777  42.657  1.00  0.00     0.688 C 
HETATM   23  N7  UNL     1      39.248  35.965  41.975  1.00  0.00    -0.225 N 
HETATM   24  C11 UNL     1      40.253  35.207  42.715  1.00  0.00     0.139 C 
ATOM     25  H7  UNL     1      39.132  35.857  40.967  1.00  0.00     0.177 HD
HETATM   26  C12 UNL     1      40.913  36.171  43.678  1.00  0.00     0.040 C 
HETATM   27  C13 UNL     1      39.906  36.595  44.718  1.00  0.00     0.139 C 
HETATM   28  N8  UNL     1      38.660  36.942  44.060  1.00  0.00    -0.225 N 
ATOM     29  H8  UNL     1      37.882  37.306  44.609  1.00  0.00     0.177 HD
ENDBRANCH  20  22
ENDBRANCH  18  20
ENDBRANCH  16  18
ENDBRANCH  13  16
ENDBRANCH  11  13
BRANCH  11  30
HETATM   30  C14 UNL     1      34.809  41.668  41.843  1.00  0.00     0.132 A 
HETATM   31  N9  UNL     1      33.644  42.298  42.016  1.00  0.00    -0.236 N 
HETATM   32  O2  UNL     1      33.693  43.534  41.676  1.00  0.00    -0.155 OA
ATOM     33  H9  UNL     1      32.806  41.845  42.379  1.00  0.00     0.197 HD
HETATM   34  N10 UNL     1      34.857  43.848  41.255  1.00  0.00    -0.224 N 
HETATM   35  C15 UNL     1      35.623  42.708  41.332  1.00  0.00     0.152 A 
ATOM     36  H10 UNL     1      35.160  44.765  40.926  1.00  0.00     0.198 HD
BRANCH  35  37
HETATM   37  N11 UNL     1      36.816  42.716  40.975  1.00  0.00    -0.382 N 
ATOM     38 2H11 UNL     1      37.208  41.939  40.444  1.00  0.00     0.157 HD
ATOM     39 1H11 UNL     1      37.557  43.402  41.123  1.00  0.00     0.157 HD
ENDBRANCH  35  37
ENDBRANCH  11  30
ENDBRANCH   8  10
ENDBRANCH   1   8
TORSDOF 11
ENDMDL
