MODEL 1
REMARK VINA RESULT: -6.616252271      0.000      0.000
REMARK  12 active torsions:
REMARK  status: ('A' for Active; 'I' for Inactive)
REMARK    1  A    between atoms: N1_2  and  C2_4 
REMARK    2  A    between atoms: C2_4  and  C5_7 
REMARK    3  A    between atoms: C5_7  and  O1_8 
REMARK    4  A    between atoms: C5_7  and  C6_10 
REMARK    5  A    between atoms: C6_10  and  C7_11 
REMARK    6  A    between atoms: C6_10  and  N2_14 
REMARK    7  A    between atoms: C7_11  and  O2_12 
REMARK    8  A    between atoms: N2_14  and  C8_16 
REMARK    9  A    between atoms: C10_18  and  O3_19 
REMARK   10  A    between atoms: C15_25  and  O5_26 
REMARK   11  A    between atoms: N3_29  and  O7_30 
REMARK   12  A    between atoms: C16_32  and  O8_33 
ROOT
HETATM    1  C8  UNL     1      34.830  39.388  42.005  1.00  0.00     0.069 C 
HETATM    2  C9  UNL     1      35.203  38.122  41.626  1.00  0.00     0.073 C 
HETATM    3  C10 UNL     1      35.743  37.045  42.306  1.00  0.00     0.123 C 
HETATM    4  C12 UNL     1      35.933  36.929  43.672  1.00  0.00     0.237 C 
HETATM    5  O4  UNL     1      36.409  35.811  44.054  1.00  0.00    -0.283 OA
HETATM    6  C13 UNL     1      35.669  37.865  44.623  1.00  0.00     0.159 A 
HETATM    7  C14 UNL     1      35.020  39.097  44.499  1.00  0.00     0.095 A 
HETATM    8  C15 UNL     1      35.035  39.636  45.762  1.00  0.00     0.223 A 
HETATM    9  O6  UNL     1      35.639  38.800  46.575  1.00  0.00    -0.183 OA
HETATM   10  N3  UNL     1      36.023  37.741  45.916  1.00  0.00    -0.114 N 
HETATM   11  C16 UNL     1      34.479  39.663  43.350  1.00  0.00     0.110 C 
ENDROOT
BRANCH   1  12
HETATM   12  N2  UNL     1      34.730  40.464  41.136  1.00  0.00    -0.357 N 
ATOM     13  H2  UNL     1      33.772  40.645  40.837  1.00  0.00     0.166 HD
BRANCH  12  14
HETATM   14  C6  UNL     1      35.659  41.364  40.575  1.00  0.00     0.042 C 
BRANCH  14  15
HETATM   15  C5  UNL     1      35.710  42.744  41.184  1.00  0.00     0.193 C 
BRANCH  15  16
HETATM   16  C2  UNL     1      35.337  43.816  40.179  1.00  0.00     0.052 C 
HETATM   17  C3  UNL     1      36.601  44.615  39.882  1.00  0.00     0.041 C 
HETATM   18  C4  UNL     1      34.309  44.765  40.697  1.00  0.00     0.041 C 
BRANCH  16  19
HETATM   19  N1  UNL     1      34.882  43.227  38.970  1.00  0.00    -0.397 N 
HETATM   20  C1  UNL     1      33.843  43.696  38.387  1.00  0.00     0.112 C 
ATOM     21  H1  UNL     1      35.381  42.433  38.568  1.00  0.00     0.158 HD
ENDBRANCH  16  19
ENDBRANCH  15  16
BRANCH  15  22
HETATM   22  O1  UNL     1      35.089  42.894  42.385  1.00  0.00    -0.387 OA
ATOM     23  H1  UNL     1      35.453  42.341  43.066  1.00  0.00     0.210 HD
ENDBRANCH  15  22
ENDBRANCH  14  15
BRANCH  14  24
HETATM   24  C7  UNL     1      37.043  40.877  40.314  1.00  0.00     0.219 C 
BRANCH  24  25
HETATM   25  O2  UNL     1      37.574  41.426  39.121  1.00  0.00    -0.395 OA
ATOM     26  H2  UNL     1      37.006  41.261  38.377  1.00  0.00     0.209 HD
ENDBRANCH  24  25
ENDBRANCH  14  24
ENDBRANCH  12  14
ENDBRANCH   1  12
BRANCH  11  27
HETATM   27  O8  UNL     1      33.506  40.584  43.556  1.00  0.00    -0.357 OA
ATOM     28  H8  UNL     1      33.401  40.909  44.442  1.00  0.00     0.217 HD
ENDBRANCH  11  27
BRANCH   3  29
HETATM   29  O3  UNL     1      36.132  35.974  41.530  1.00  0.00    -0.352 OA
HETATM   30  C11 UNL     1      35.639  35.672  40.260  1.00  0.00     0.210 C 
ENDBRANCH   3  29
BRANCH   8  31
HETATM   31  O5  UNL     1      34.500  40.862  46.115  1.00  0.00    -0.339 OA
ATOM     32  H5  UNL     1      33.968  41.027  46.884  1.00  0.00     0.220 HD
ENDBRANCH   8  31
BRANCH  10  33
HETATM   33  O7  UNL     1      36.689  36.636  46.403  1.00  0.00    -0.262 OA
ATOM     34  H7  UNL     1      37.097  36.621  47.261  1.00  0.00     0.247 HD
ENDBRANCH  10  33
TORSDOF 12
ENDMDL
MODEL 2
REMARK VINA RESULT: -6.509554376      3.091      7.084
REMARK  12 active torsions:
REMARK  status: ('A' for Active; 'I' for Inactive)
REMARK    1  A    between atoms: N1_2  and  C2_4 
REMARK    2  A    between atoms: C2_4  and  C5_7 
REMARK    3  A    between atoms: C5_7  and  O1_8 
REMARK    4  A    between atoms: C5_7  and  C6_10 
REMARK    5  A    between atoms: C6_10  and  C7_11 
REMARK    6  A    between atoms: C6_10  and  N2_14 
REMARK    7  A    between atoms: C7_11  and  O2_12 
REMARK    8  A    between atoms: N2_14  and  C8_16 
REMARK    9  A    between atoms: C10_18  and  O3_19 
REMARK   10  A    between atoms: C15_25  and  O5_26 
REMARK   11  A    between atoms: N3_29  and  O7_30 
REMARK   12  A    between atoms: C16_32  and  O8_33 
ROOT
HETATM    1  C8  UNL     1      35.081  41.434  38.805  1.00  0.00     0.069 C 
HETATM    2  C9  UNL     1      34.219  41.873  37.830  1.00  0.00     0.073 C 
HETATM    3  C10 UNL     1      33.300  42.906  37.766  1.00  0.00     0.123 C 
HETATM    4  C12 UNL     1      33.106  43.910  38.698  1.00  0.00     0.237 C 
HETATM    5  O4  UNL     1      32.225  44.773  38.380  1.00  0.00    -0.283 OA
HETATM    6  C13 UNL     1      33.746  44.065  39.888  1.00  0.00     0.159 A 
HETATM    7  C14 UNL     1      34.837  43.360  40.407  1.00  0.00     0.095 A 
HETATM    8  C15 UNL     1      35.066  43.918  41.641  1.00  0.00     0.223 A 
HETATM    9  O6  UNL     1      34.190  44.876  41.846  1.00  0.00    -0.183 OA
HETATM   10  N3  UNL     1      33.397  44.977  40.815  1.00  0.00    -0.114 N 
HETATM   11  C16 UNL     1      35.538  42.319  39.813  1.00  0.00     0.110 C 
ENDROOT
BRANCH   1  12
HETATM   12  N2  UNL     1      35.592  40.147  38.871  1.00  0.00    -0.357 N 
ATOM     13  H2  UNL     1      36.034  39.850  38.001  1.00  0.00     0.166 HD
BRANCH  12  14
HETATM   14  C6  UNL     1      35.638  39.158  39.874  1.00  0.00     0.042 C 
BRANCH  14  15
HETATM   15  C5  UNL     1      36.996  38.583  40.191  1.00  0.00     0.193 C 
BRANCH  15  16
HETATM   16  C2  UNL     1      37.254  37.296  39.431  1.00  0.00     0.052 C 
HETATM   17  C3  UNL     1      38.025  37.665  38.168  1.00  0.00     0.041 C 
HETATM   18  C4  UNL     1      35.999  36.607  39.013  1.00  0.00     0.041 C 
BRANCH  16  19
HETATM   19  N1  UNL     1      38.052  36.414  40.205  1.00  0.00    -0.397 N 
HETATM   20  C1  UNL     1      37.683  36.097  41.390  1.00  0.00     0.112 C 
ATOM     21  H1  UNL     1      38.917  36.034  39.819  1.00  0.00     0.158 HD
ENDBRANCH  16  19
ENDBRANCH  15  16
BRANCH  15  22
HETATM   22  O1  UNL     1      38.042  39.451  40.144  1.00  0.00    -0.387 OA
ATOM     23  H1  UNL     1      37.773  40.363  40.164  1.00  0.00     0.210 HD
ENDBRANCH  15  22
ENDBRANCH  14  15
BRANCH  14  24
HETATM   24  C7  UNL     1      34.887  39.401  41.138  1.00  0.00     0.219 C 
BRANCH  24  25
HETATM   25  O2  UNL     1      35.729  39.908  42.157  1.00  0.00    -0.395 OA
ATOM     26  H2  UNL     1      36.501  39.366  42.276  1.00  0.00     0.209 HD
ENDBRANCH  24  25
ENDBRANCH  14  24
ENDBRANCH  12  14
ENDBRANCH   1  12
BRANCH  11  27
HETATM   27  O8  UNL     1      36.806  42.138  40.260  1.00  0.00    -0.357 OA
ATOM     28  H8  UNL     1      36.952  42.238  41.193  1.00  0.00     0.217 HD
ENDBRANCH  11  27
BRANCH   3  29
HETATM   29  O3  UNL     1      32.496  42.930  36.647  1.00  0.00    -0.352 OA
HETATM   30  C11 UNL     1      31.292  42.241  36.499  1.00  0.00     0.210 C 
ENDBRANCH   3  29
BRANCH   8  31
HETATM   31  O5  UNL     1      36.059  43.530  42.522  1.00  0.00    -0.339 OA
ATOM     32  H5  UNL     1      35.914  43.163  43.386  1.00  0.00     0.220 HD
ENDBRANCH   8  31
BRANCH  10  33
HETATM   33  O7  UNL     1      32.349  45.856  40.636  1.00  0.00    -0.262 OA
ATOM     34  H7  UNL     1      32.447  46.683  40.180  1.00  0.00     0.247 HD
ENDBRANCH  10  33
TORSDOF 12
ENDMDL
MODEL 3
REMARK VINA RESULT: -6.457722601      2.110      6.953
REMARK  12 active torsions:
REMARK  status: ('A' for Active; 'I' for Inactive)
REMARK    1  A    between atoms: N1_2  and  C2_4 
REMARK    2  A    between atoms: C2_4  and  C5_7 
REMARK    3  A    between atoms: C5_7  and  O1_8 
REMARK    4  A    between atoms: C5_7  and  C6_10 
REMARK    5  A    between atoms: C6_10  and  C7_11 
REMARK    6  A    between atoms: C6_10  and  N2_14 
REMARK    7  A    between atoms: C7_11  and  O2_12 
REMARK    8  A    between atoms: N2_14  and  C8_16 
REMARK    9  A    between atoms: C10_18  and  O3_19 
REMARK   10  A    between atoms: C15_25  and  O5_26 
REMARK   11  A    between atoms: N3_29  and  O7_30 
REMARK   12  A    between atoms: C16_32  and  O8_33 
ROOT
HETATM    1  C8  UNL     1      34.956  39.714  42.016  1.00  0.00     0.069 C 
HETATM    2  C9  UNL     1      34.795  41.075  42.100  1.00  0.00     0.073 C 
HETATM    3  C10 UNL     1      35.375  42.145  41.440  1.00  0.00     0.123 C 
HETATM    4  C12 UNL     1      36.234  42.092  40.356  1.00  0.00     0.237 C 
HETATM    5  O4  UNL     1      36.593  43.226  39.901  1.00  0.00    -0.283 OA
HETATM    6  C13 UNL     1      36.719  40.979  39.743  1.00  0.00     0.159 A 
HETATM    7  C14 UNL     1      36.378  39.637  39.941  1.00  0.00     0.095 A 
HETATM    8  C15 UNL     1      37.176  38.936  39.070  1.00  0.00     0.223 A 
HETATM    9  O6  UNL     1      37.929  39.782  38.405  1.00  0.00    -0.183 OA
HETATM   10  N3  UNL     1      37.672  41.001  38.792  1.00  0.00    -0.114 N 
HETATM   11  C16 UNL     1      35.442  39.118  40.826  1.00  0.00     0.110 C 
ENDROOT
BRANCH   1  12
HETATM   12  N2  UNL     1      34.637  38.828  43.034  1.00  0.00    -0.357 N 
ATOM     13  H2  UNL     1      33.633  38.756  43.198  1.00  0.00     0.166 HD
BRANCH  12  14
HETATM   14  C6  UNL     1      35.392  38.004  43.892  1.00  0.00     0.042 C 
BRANCH  14  15
HETATM   15  C5  UNL     1      34.793  37.715  45.246  1.00  0.00     0.193 C 
BRANCH  15  16
HETATM   16  C2  UNL     1      35.070  38.831  46.234  1.00  0.00     0.052 C 
HETATM   17  C3  UNL     1      34.733  38.298  47.623  1.00  0.00     0.041 C 
HETATM   18  C4  UNL     1      34.231  40.041  45.995  1.00  0.00     0.041 C 
BRANCH  16  19
HETATM   19  N1  UNL     1      36.445  39.186  46.210  1.00  0.00    -0.397 N 
HETATM   20  C1  UNL     1      37.299  38.457  46.825  1.00  0.00     0.112 C 
ATOM     21  H1  UNL     1      36.749  40.017  45.703  1.00  0.00     0.158 HD
ENDBRANCH  16  19
ENDBRANCH  15  16
BRANCH  15  22
HETATM   22  O1  UNL     1      33.497  37.302  45.254  1.00  0.00    -0.387 OA
ATOM     23  H1  UNL     1      33.348  36.524  44.728  1.00  0.00     0.210 HD
ENDBRANCH  15  22
ENDBRANCH  14  15
BRANCH  14  24
HETATM   24  C7  UNL     1      35.989  36.759  43.330  1.00  0.00     0.219 C 
BRANCH  24  25
HETATM   25  O2  UNL     1      35.003  35.919  42.758  1.00  0.00    -0.395 OA
ATOM     26  H2  UNL     1      35.388  35.151  42.354  1.00  0.00     0.209 HD
ENDBRANCH  24  25
ENDBRANCH  14  24
ENDBRANCH  12  14
ENDBRANCH   1  12
BRANCH  11  27
HETATM   27  O8  UNL     1      34.946  37.898  40.503  1.00  0.00    -0.357 OA
ATOM     28  H8  UNL     1      35.230  37.523  39.678  1.00  0.00     0.217 HD
ENDBRANCH  11  27
BRANCH   3  29
HETATM   29  O3  UNL     1      35.057  43.396  41.922  1.00  0.00    -0.352 OA
HETATM   30  C11 UNL     1      33.990  44.185  41.489  1.00  0.00     0.210 C 
ENDBRANCH   3  29
BRANCH   8  31
HETATM   31  O5  UNL     1      37.182  37.561  38.921  1.00  0.00    -0.339 OA
ATOM     32  H5  UNL     1      37.731  37.076  38.317  1.00  0.00     0.220 HD
ENDBRANCH   8  31
BRANCH  10  33
HETATM   33  O7  UNL     1      38.246  42.172  38.342  1.00  0.00    -0.262 OA
ATOM     34  H7  UNL     1      38.790  42.209  37.564  1.00  0.00     0.247 HD
ENDBRANCH  10  33
TORSDOF 12
ENDMDL
MODEL 4
REMARK VINA RESULT: -6.370858151      2.512      6.855
REMARK  12 active torsions:
REMARK  status: ('A' for Active; 'I' for Inactive)
REMARK    1  A    between atoms: N1_2  and  C2_4 
REMARK    2  A    between atoms: C2_4  and  C5_7 
REMARK    3  A    between atoms: C5_7  and  O1_8 
REMARK    4  A    between atoms: C5_7  and  C6_10 
REMARK    5  A    between atoms: C6_10  and  C7_11 
REMARK    6  A    between atoms: C6_10  and  N2_14 
REMARK    7  A    between atoms: C7_11  and  O2_12 
REMARK    8  A    between atoms: N2_14  and  C8_16 
REMARK    9  A    between atoms: C10_18  and  O3_19 
REMARK   10  A    between atoms: C15_25  and  O5_26 
REMARK   11  A    between atoms: N3_29  and  O7_30 
REMARK   12  A    between atoms: C16_32  and  O8_33 
ROOT
HETATM    1  C8  UNL     1      36.236  39.908  40.968  1.00  0.00     0.069 C 
HETATM    2  C9  UNL     1      35.104  40.105  41.718  1.00  0.00     0.073 C 
HETATM    3  C10 UNL     1      34.324  41.215  41.993  1.00  0.00     0.123 C 
HETATM    4  C12 UNL     1      34.432  42.472  41.426  1.00  0.00     0.237 C 
HETATM    5  O4  UNL     1      33.559  43.314  41.817  1.00  0.00    -0.283 OA
HETATM    6  C13 UNL     1      35.352  42.890  40.515  1.00  0.00     0.159 A 
HETATM    7  C14 UNL     1      36.312  42.147  39.820  1.00  0.00     0.095 A 
HETATM    8  C15 UNL     1      36.975  43.064  39.042  1.00  0.00     0.223 A 
HETATM    9  O6  UNL     1      36.459  44.254  39.250  1.00  0.00    -0.183 OA
HETATM   10  N3  UNL     1      35.493  44.170  40.123  1.00  0.00    -0.114 N 
HETATM   11  C16 UNL     1      36.551  40.781  39.897  1.00  0.00     0.110 C 
ENDROOT
BRANCH   1  12
HETATM   12  N2  UNL     1      37.124  38.859  41.156  1.00  0.00    -0.357 N 
ATOM     13  H2  UNL     1      38.053  39.171  41.436  1.00  0.00     0.166 HD
BRANCH  12  14
HETATM   14  C6  UNL     1      37.026  37.457  41.047  1.00  0.00     0.042 C 
BRANCH  14  15
HETATM   15  C5  UNL     1      37.422  36.857  39.721  1.00  0.00     0.193 C 
BRANCH  15  16
HETATM   16  C2  UNL     1      36.225  36.302  38.974  1.00  0.00     0.052 C 
HETATM   17  C3  UNL     1      36.694  35.957  37.565  1.00  0.00     0.041 C 
HETATM   18  C4  UNL     1      35.109  37.284  38.855  1.00  0.00     0.041 C 
BRANCH  16  19
HETATM   19  N1  UNL     1      35.759  35.115  39.597  1.00  0.00    -0.397 N 
HETATM   20  C1  UNL     1      34.698  34.545  39.162  1.00  0.00     0.112 C 
ATOM     21  H1  UNL     1      36.267  34.718  40.387  1.00  0.00     0.158 HD
ENDBRANCH  16  19
ENDBRANCH  15  16
BRANCH  15  22
HETATM   22  O1  UNL     1      38.239  37.613  38.939  1.00  0.00    -0.387 OA
ATOM     23  H1  UNL     1      38.915  38.066  39.431  1.00  0.00     0.210 HD
ENDBRANCH  15  22
ENDBRANCH  14  15
BRANCH  14  24
HETATM   24  C7  UNL     1      37.566  36.625  42.159  1.00  0.00     0.219 C 
BRANCH  24  25
HETATM   25  O2  UNL     1      38.736  37.195  42.718  1.00  0.00    -0.395 OA
ATOM     26  H2  UNL     1      38.741  37.125  43.665  1.00  0.00     0.209 HD
ENDBRANCH  24  25
ENDBRANCH  14  24
ENDBRANCH  12  14
ENDBRANCH   1  12
BRANCH  11  27
HETATM   27  O8  UNL     1      37.158  40.233  38.815  1.00  0.00    -0.357 OA
ATOM     28  H8  UNL     1      37.986  40.614  38.547  1.00  0.00     0.217 HD
ENDBRANCH  11  27
BRANCH   3  29
HETATM   29  O3  UNL     1      33.334  41.039  42.935  1.00  0.00    -0.352 OA
HETATM   30  C11 UNL     1      33.460  40.308  44.117  1.00  0.00     0.210 C 
ENDBRANCH   3  29
BRANCH   8  31
HETATM   31  O5  UNL     1      38.019  42.776  38.181  1.00  0.00    -0.339 OA
ATOM     32  H5  UNL     1      38.295  43.319  37.452  1.00  0.00     0.220 HD
ENDBRANCH   8  31
BRANCH  10  33
HETATM   33  O7  UNL     1      34.702  45.189  40.611  1.00  0.00    -0.262 OA
ATOM     34  H7  UNL     1      35.061  46.006  40.935  1.00  0.00     0.247 HD
ENDBRANCH  10  33
TORSDOF 12
ENDMDL
MODEL 5
REMARK VINA RESULT: -6.277398222      1.168      1.193
REMARK  12 active torsions:
REMARK  status: ('A' for Active; 'I' for Inactive)
REMARK    1  A    between atoms: N1_2  and  C2_4 
REMARK    2  A    between atoms: C2_4  and  C5_7 
REMARK    3  A    between atoms: C5_7  and  O1_8 
REMARK    4  A    between atoms: C5_7  and  C6_10 
REMARK    5  A    between atoms: C6_10  and  C7_11 
REMARK    6  A    between atoms: C6_10  and  N2_14 
REMARK    7  A    between atoms: C7_11  and  O2_12 
REMARK    8  A    between atoms: N2_14  and  C8_16 
REMARK    9  A    between atoms: C10_18  and  O3_19 
REMARK   10  A    between atoms: C15_25  and  O5_26 
REMARK   11  A    between atoms: N3_29  and  O7_30 
REMARK   12  A    between atoms: C16_32  and  O8_33 
ROOT
HETATM    1  C8  UNL     1      35.360  39.276  42.475  1.00  0.00     0.069 C 
HETATM    2  C9  UNL     1      35.410  37.949  42.130  1.00  0.00     0.073 C 
HETATM    3  C10 UNL     1      35.355  36.772  42.856  1.00  0.00     0.123 C 
HETATM    4  C12 UNL     1      35.083  36.637  44.206  1.00  0.00     0.237 C 
HETATM    5  O4  UNL     1      35.045  35.435  44.628  1.00  0.00    -0.283 OA
HETATM    6  C13 UNL     1      34.856  37.631  45.105  1.00  0.00     0.159 A 
HETATM    7  C14 UNL     1      34.696  39.004  44.889  1.00  0.00     0.095 A 
HETATM    8  C15 UNL     1      34.504  39.541  46.137  1.00  0.00     0.223 A 
HETATM    9  O6  UNL     1      34.542  38.576  47.028  1.00  0.00    -0.183 OA
HETATM   10  N3  UNL     1      34.751  37.434  46.433  1.00  0.00    -0.114 N 
HETATM   11  C16 UNL     1      34.730  39.684  43.677  1.00  0.00     0.110 C 
ENDROOT
BRANCH   1  12
HETATM   12  N2  UNL     1      35.868  40.305  41.696  1.00  0.00    -0.357 N 
ATOM     13  H2  UNL     1      36.660  40.778  42.130  1.00  0.00     0.166 HD
BRANCH  12  14
HETATM   14  C6  UNL     1      35.533  40.841  40.437  1.00  0.00     0.042 C 
BRANCH  14  15
HETATM   15  C5  UNL     1      36.077  42.213  40.124  1.00  0.00     0.193 C 
BRANCH  15  16
HETATM   16  C2  UNL     1      34.967  43.219  39.889  1.00  0.00     0.052 C 
HETATM   17  C3  UNL     1      35.606  44.603  39.889  1.00  0.00     0.041 C 
HETATM   18  C4  UNL     1      33.927  43.196  40.957  1.00  0.00     0.041 C 
BRANCH  16  19
HETATM   19  N1  UNL     1      34.361  43.003  38.623  1.00  0.00    -0.397 N 
HETATM   20  C1  UNL     1      33.440  43.794  38.217  1.00  0.00     0.112 C 
ATOM     21  H1  UNL     1      34.660  42.221  38.040  1.00  0.00     0.158 HD
ENDBRANCH  16  19
ENDBRANCH  15  16
BRANCH  15  22
HETATM   22  O1  UNL     1      37.053  42.675  40.951  1.00  0.00    -0.387 OA
ATOM     23  H1  UNL     1      37.091  43.624  40.992  1.00  0.00     0.210 HD
ENDBRANCH  15  22
ENDBRANCH  14  15
BRANCH  14  24
HETATM   24  C7  UNL     1      35.662  39.963  39.239  1.00  0.00     0.219 C 
BRANCH  24  25
HETATM   25  O2  UNL     1      36.949  39.378  39.157  1.00  0.00    -0.395 OA
ATOM     26  H2  UNL     1      37.371  39.340  40.007  1.00  0.00     0.209 HD
ENDBRANCH  24  25
ENDBRANCH  14  24
ENDBRANCH  12  14
ENDBRANCH   1  12
BRANCH  11  27
HETATM   27  O8  UNL     1      34.082  40.875  43.658  1.00  0.00    -0.357 OA
ATOM     28  H8  UNL     1      33.221  40.903  44.060  1.00  0.00     0.217 HD
ENDBRANCH  11  27
BRANCH   3  29
HETATM   29  O3  UNL     1      35.599  35.614  42.151  1.00  0.00    -0.352 OA
HETATM   30  C11 UNL     1      35.707  35.518  40.763  1.00  0.00     0.210 C 
ENDBRANCH   3  29
BRANCH   8  31
HETATM   31  O5  UNL     1      34.302  40.882  46.409  1.00  0.00    -0.339 OA
ATOM     32  H5  UNL     1      34.231  41.263  47.276  1.00  0.00     0.220 HD
ENDBRANCH   8  31
BRANCH  10  33
HETATM   33  O7  UNL     1      34.858  36.186  47.010  1.00  0.00    -0.262 OA
ATOM     34  H7  UNL     1      34.300  35.903  47.726  1.00  0.00     0.247 HD
ENDBRANCH  10  33
TORSDOF 12
ENDMDL
