MODEL 1
REMARK VINA RESULT: -4.703871298      0.000      0.000
REMARK  4 active torsions:
REMARK  status: ('A' for Active; 'I' for Inactive)
REMARK    1  A    between atoms: C3_5  and  N2_6 
REMARK    2  A    between atoms: N3_8  and  C4_10 
REMARK    3  A    between atoms: C6_19  and  C7_20 
REMARK    4  A    between atoms: C7_20  and  O1_21 
ROOT
HETATM    1  N2  UNL     1       0.072 -12.045  74.281  1.00  0.00    -0.269 N 
ATOM      2  H2  UNL     1      -0.492 -12.886  74.399  1.00  0.00     0.189 HD
HETATM    3  N3  UNL     1       1.302 -12.143  74.439  1.00  0.00    -0.129 N 
ATOM      4  H3  UNL     1       1.693 -13.053  74.680  1.00  0.00     0.205 HD
ENDROOT
BRANCH   1   5
HETATM    5  C3  UNL     1      -0.606 -10.825  73.942  1.00  0.00     0.147 A 
HETATM    6  N1  UNL     1      -1.068  -9.883  74.788  1.00  0.00    -0.330 N 
HETATM    7  C2  UNL     1      -1.649  -8.878  74.121  1.00  0.00     0.079 A 
ATOM      8  H1  UNL     1      -0.986  -9.930  75.803  1.00  0.00     0.168 HD
HETATM    9  C1  UNL     1      -2.290  -7.638  74.647  1.00  0.00     0.089 C 
HETATM   10  N7  UNL     1      -1.556  -9.184  72.807  1.00  0.00    -0.345 N 
HETATM   11  C6  UNL     1      -0.920 -10.373  72.677  1.00  0.00     0.080 A 
ATOM     12  H7  UNL     1      -1.907  -8.614  72.039  1.00  0.00     0.167 HD
BRANCH  11  13
HETATM   13  C7  UNL     1      -0.603 -11.087  71.410  1.00  0.00     0.225 C 
BRANCH  13  14
HETATM   14  O1  UNL     1       0.733 -11.426  71.357  1.00  0.00    -0.395 OA
ATOM     15  H1  UNL     1       0.906 -12.007  70.625  1.00  0.00     0.209 HD
ENDBRANCH  13  14
ENDBRANCH  11  13
ENDBRANCH   1   5
BRANCH   3  16
HETATM   16  C4  UNL     1       2.194 -11.025  74.295  1.00  0.00     0.713 A 
HETATM   17  N4  UNL     1       2.192  -9.875  74.981  1.00  0.00    -0.128 N 
HETATM   18  N5  UNL     1       3.166  -9.083  74.571  1.00  0.00    -0.261 N 
ATOM     19  H4  UNL     1       1.528  -9.642  75.720  1.00  0.00     0.205 HD
HETATM   20  C5  UNL     1       3.794  -9.764  73.598  1.00  0.00     0.205 A 
ATOM     21  H5  UNL     1       3.394  -8.151  74.920  1.00  0.00     0.190 HD
HETATM   22  S1  UNL     1       5.097  -9.231  72.736  1.00  0.00    -0.039 SA
HETATM   23  N6  UNL     1       3.205 -10.956  73.422  1.00  0.00    -0.162 N 
ATOM     24  H6  UNL     1       3.476 -11.674  72.749  1.00  0.00     0.187 HD
ENDBRANCH   3  16
TORSDOF 4
ENDMDL
MODEL 2
REMARK VINA RESULT: -4.697806579      2.817      5.275
REMARK  4 active torsions:
REMARK  status: ('A' for Active; 'I' for Inactive)
REMARK    1  A    between atoms: C3_5  and  N2_6 
REMARK    2  A    between atoms: N3_8  and  C4_10 
REMARK    3  A    between atoms: C6_19  and  C7_20 
REMARK    4  A    between atoms: C7_20  and  O1_21 
ROOT
HETATM    1  N2  UNL     1       2.508  -9.082  74.623  1.00  0.00    -0.269 N 
ATOM      2  H2  UNL     1       3.121  -8.481  75.174  1.00  0.00     0.189 HD
HETATM    3  N3  UNL     1       1.282  -8.897  74.710  1.00  0.00    -0.129 N 
ATOM      4  H3  UNL     1       0.941  -8.159  75.326  1.00  0.00     0.205 HD
ENDROOT
BRANCH   1   5
HETATM    5  C3  UNL     1       3.119 -10.086  73.798  1.00  0.00     0.147 A 
HETATM    6  N1  UNL     1       2.644 -11.315  73.515  1.00  0.00    -0.330 N 
HETATM    7  C2  UNL     1       3.479 -11.983  72.710  1.00  0.00     0.079 A 
ATOM      8  H1  UNL     1       1.762 -11.687  73.869  1.00  0.00     0.168 HD
HETATM    9  C1  UNL     1       3.355 -13.360  72.150  1.00  0.00     0.089 C 
HETATM   10  N7  UNL     1       4.522 -11.157  72.468  1.00  0.00    -0.345 N 
HETATM   11  C6  UNL     1       4.320  -9.990  73.125  1.00  0.00     0.080 A 
ATOM     12  H7  UNL     1       5.329 -11.377  71.886  1.00  0.00     0.167 HD
BRANCH  11  13
HETATM   13  C7  UNL     1       5.216  -8.801  73.137  1.00  0.00     0.225 C 
BRANCH  13  14
HETATM   14  O1  UNL     1       5.178  -8.170  74.363  1.00  0.00    -0.395 OA
ATOM     15  H1  UNL     1       5.106  -7.228  74.257  1.00  0.00     0.209 HD
ENDBRANCH  13  14
ENDBRANCH  11  13
ENDBRANCH   1   5
BRANCH   3  16
HETATM   16  C4  UNL     1       0.325  -9.682  73.980  1.00  0.00     0.713 A 
HETATM   17  N4  UNL     1      -0.241 -10.841  74.343  1.00  0.00    -0.128 N 
HETATM   18  N5  UNL     1      -1.075 -11.267  73.412  1.00  0.00    -0.261 N 
ATOM     19  H4  UNL     1      -0.052 -11.328  75.219  1.00  0.00     0.205 HD
HETATM   20  C5  UNL     1      -1.026 -10.342  72.438  1.00  0.00     0.205 A 
ATOM     21  H5  UNL     1      -1.638 -12.118  73.429  1.00  0.00     0.190 HD
HETATM   22  S1  UNL     1      -1.882 -10.382  71.028  1.00  0.00    -0.039 SA
HETATM   23  N6  UNL     1      -0.170  -9.367  72.778  1.00  0.00    -0.162 N 
ATOM     24  H6  UNL     1       0.060  -8.541  72.224  1.00  0.00     0.187 HD
ENDBRANCH   3  16
TORSDOF 4
ENDMDL
MODEL 3
REMARK VINA RESULT: -4.352992944      1.048      1.189
REMARK  4 active torsions:
REMARK  status: ('A' for Active; 'I' for Inactive)
REMARK    1  A    between atoms: C3_5  and  N2_6 
REMARK    2  A    between atoms: N3_8  and  C4_10 
REMARK    3  A    between atoms: C6_19  and  C7_20 
REMARK    4  A    between atoms: C7_20  and  O1_21 
ROOT
HETATM    1  N2  UNL     1      -0.243 -12.198  73.903  1.00  0.00    -0.269 N 
ATOM      2  H2  UNL     1      -0.847 -13.003  74.069  1.00  0.00     0.189 HD
HETATM    3  N3  UNL     1       0.863 -12.176  74.470  1.00  0.00    -0.129 N 
ATOM      4  H3  UNL     1       1.119 -12.957  75.074  1.00  0.00     0.205 HD
ENDROOT
BRANCH   1   5
HETATM    5  C3  UNL     1      -0.727 -11.167  73.029  1.00  0.00     0.147 A 
HETATM    6  N1  UNL     1      -1.312 -10.004  73.380  1.00  0.00    -0.330 N 
HETATM    7  C2  UNL     1      -1.636  -9.281  72.301  1.00  0.00     0.079 A 
ATOM      8  H1  UNL     1      -1.484  -9.713  74.342  1.00  0.00     0.168 HD
HETATM    9  C1  UNL     1      -2.294  -7.945  72.219  1.00  0.00     0.089 C 
HETATM   10  N7  UNL     1      -1.247 -10.002  71.225  1.00  0.00    -0.345 N 
HETATM   11  C6  UNL     1      -0.687 -11.159  71.650  1.00  0.00     0.080 A 
ATOM     12  H7  UNL     1      -1.356  -9.720  70.251  1.00  0.00     0.167 HD
BRANCH  11  13
HETATM   13  C7  UNL     1      -0.123 -12.247  70.805  1.00  0.00     0.225 C 
BRANCH  13  14
HETATM   14  O1  UNL     1       1.049 -12.733  71.345  1.00  0.00    -0.395 OA
ATOM     15  H1  UNL     1       1.777 -12.606  70.747  1.00  0.00     0.209 HD
ENDBRANCH  13  14
ENDBRANCH  11  13
ENDBRANCH   1   5
BRANCH   3  16
HETATM   16  C4  UNL     1       1.796 -11.095  74.308  1.00  0.00     0.713 A 
HETATM   17  N4  UNL     1       1.768  -9.888  74.887  1.00  0.00    -0.128 N 
HETATM   18  N5  UNL     1       2.797  -9.156  74.497  1.00  0.00    -0.261 N 
ATOM     19  H4  UNL     1       1.050  -9.576  75.541  1.00  0.00     0.205 HD
HETATM   20  C5  UNL     1       3.486  -9.935  73.646  1.00  0.00     0.205 A 
ATOM     21  H5  UNL     1       3.020  -8.202  74.781  1.00  0.00     0.190 HD
HETATM   22  S1  UNL     1       4.873  -9.510  72.859  1.00  0.00    -0.039 SA
HETATM   23  N6  UNL     1       2.880 -11.126  73.525  1.00  0.00    -0.162 N 
ATOM     24  H6  UNL     1       3.187 -11.907  72.944  1.00  0.00     0.187 HD
ENDBRANCH   3  16
TORSDOF 4
ENDMDL
MODEL 4
REMARK VINA RESULT: -4.340514430      2.368      3.501
REMARK  4 active torsions:
REMARK  status: ('A' for Active; 'I' for Inactive)
REMARK    1  A    between atoms: C3_5  and  N2_6 
REMARK    2  A    between atoms: N3_8  and  C4_10 
REMARK    3  A    between atoms: C6_19  and  C7_20 
REMARK    4  A    between atoms: C7_20  and  O1_21 
ROOT
HETATM    1  N2  UNL     1      -2.593  -9.916  74.513  1.00  0.00    -0.269 N 
ATOM      2  H2  UNL     1      -3.502 -10.069  74.949  1.00  0.00     0.189 HD
HETATM    3  N3  UNL     1      -1.588 -10.357  75.097  1.00  0.00    -0.129 N 
ATOM      4  H3  UNL     1      -1.712 -10.849  75.981  1.00  0.00     0.205 HD
ENDROOT
BRANCH   1   5
HETATM    5  C3  UNL     1      -2.559  -9.206  73.266  1.00  0.00     0.147 A 
HETATM    6  N1  UNL     1      -2.517  -9.732  72.025  1.00  0.00    -0.330 N 
HETATM    7  C2  UNL     1      -2.495  -8.771  71.093  1.00  0.00     0.079 A 
ATOM      8  H1  UNL     1      -2.504 -10.732  71.823  1.00  0.00     0.168 HD
HETATM    9  C1  UNL     1      -2.448  -8.894  69.607  1.00  0.00     0.089 C 
HETATM   10  N7  UNL     1      -2.524  -7.593  71.756  1.00  0.00    -0.345 N 
HETATM   11  C6  UNL     1      -2.564  -7.838  73.087  1.00  0.00     0.080 A 
ATOM     12  H7  UNL     1      -2.517  -6.669  71.324  1.00  0.00     0.167 HD
BRANCH  11  13
HETATM   13  C7  UNL     1      -2.606  -6.832  74.184  1.00  0.00     0.225 C 
BRANCH  13  14
HETATM   14  O1  UNL     1      -1.683  -7.135  75.164  1.00  0.00    -0.395 OA
ATOM     15  H1  UNL     1      -2.111  -7.272  76.002  1.00  0.00     0.209 HD
ENDBRANCH  13  14
ENDBRANCH  11  13
ENDBRANCH   1   5
BRANCH   3  16
HETATM   16  C4  UNL     1      -0.257 -10.203  74.575  1.00  0.00     0.713 A 
HETATM   17  N4  UNL     1       0.480  -9.086  74.515  1.00  0.00    -0.128 N 
HETATM   18  N5  UNL     1       1.658  -9.331  73.969  1.00  0.00    -0.261 N 
ATOM     19  H4  UNL     1       0.174  -8.171  74.846  1.00  0.00     0.205 HD
HETATM   20  C5  UNL     1       1.651 -10.644  73.680  1.00  0.00     0.205 A 
ATOM     21  H5  UNL     1       2.412  -8.665  73.802  1.00  0.00     0.190 HD
HETATM   22  S1  UNL     1       2.887 -11.481  72.978  1.00  0.00    -0.039 SA
HETATM   23  N6  UNL     1       0.481 -11.186  74.048  1.00  0.00    -0.162 N 
ATOM     24  H6  UNL     1       0.205 -12.163  73.945  1.00  0.00     0.187 HD
ENDBRANCH   3  16
TORSDOF 4
ENDMDL
MODEL 5
REMARK VINA RESULT: -4.314972618      2.667      4.600
REMARK  4 active torsions:
REMARK  status: ('A' for Active; 'I' for Inactive)
REMARK    1  A    between atoms: C3_5  and  N2_6 
REMARK    2  A    between atoms: N3_8  and  C4_10 
REMARK    3  A    between atoms: C6_19  and  C7_20 
REMARK    4  A    between atoms: C7_20  and  O1_21 
ROOT
HETATM    1  N2  UNL     1       1.996 -10.335  74.787  1.00  0.00    -0.269 N 
ATOM      2  H2  UNL     1       2.885 -10.255  75.278  1.00  0.00     0.189 HD
HETATM    3  N3  UNL     1       1.236  -9.351  74.796  1.00  0.00    -0.129 N 
ATOM      4  H3  UNL     1       1.531  -8.510  75.292  1.00  0.00     0.205 HD
ENDROOT
BRANCH   1   5
HETATM    5  C3  UNL     1       1.703 -11.578  74.129  1.00  0.00     0.147 A 
HETATM    6  N1  UNL     1       0.639 -12.380  74.330  1.00  0.00    -0.330 N 
HETATM    7  C2  UNL     1       0.691 -13.460  73.540  1.00  0.00     0.079 A 
ATOM      8  H1  UNL     1      -0.109 -12.189  74.997  1.00  0.00     0.168 HD
HETATM    9  C1  UNL     1      -0.266 -14.599  73.429  1.00  0.00     0.089 C 
HETATM   10  N7  UNL     1       1.823 -13.346  72.810  1.00  0.00    -0.345 N 
HETATM   11  C6  UNL     1       2.457 -12.200  73.155  1.00  0.00     0.080 A 
ATOM     12  H7  UNL     1       2.148 -14.014  72.111  1.00  0.00     0.167 HD
BRANCH  11  13
HETATM   13  C7  UNL     1       3.737 -11.681  72.602  1.00  0.00     0.225 C 
BRANCH  13  14
HETATM   14  O1  UNL     1       3.742 -10.301  72.584  1.00  0.00    -0.395 OA
ATOM     15  H1  UNL     1       4.311  -9.955  73.262  1.00  0.00     0.209 HD
ENDBRANCH  13  14
ENDBRANCH  11  13
ENDBRANCH   1   5
BRANCH   3  16
HETATM   16  C4  UNL     1      -0.041  -9.350  74.136  1.00  0.00     0.713 A 
HETATM   17  N4  UNL     1      -1.250  -9.545  74.678  1.00  0.00    -0.128 N 
HETATM   18  N5  UNL     1      -2.194  -9.471  73.758  1.00  0.00    -0.261 N 
ATOM     19  H4  UNL     1      -1.418  -9.727  75.668  1.00  0.00     0.205 HD
HETATM   20  C5  UNL     1      -1.550  -9.222  72.605  1.00  0.00     0.205 A 
ATOM     21  H5  UNL     1      -3.199  -9.580  73.894  1.00  0.00     0.190 HD
HETATM   22  S1  UNL     1      -2.260  -9.033  71.127  1.00  0.00    -0.039 SA
HETATM   23  N6  UNL     1      -0.230  -9.146  72.828  1.00  0.00    -0.162 N 
ATOM     24  H6  UNL     1       0.494  -8.966  72.131  1.00  0.00     0.187 HD
ENDBRANCH   3  16
TORSDOF 4
ENDMDL
