MODEL 1
REMARK VINA RESULT: -4.591564781      0.000      0.000
REMARK  5 active torsions:
REMARK  status: ('A' for Active; 'I' for Inactive)
REMARK    1  A    between atoms: N1_1  and  N2_4 
REMARK    2  A    between atoms: C1_5  and  C2_6 
REMARK    3  A    between atoms: C3_7  and  C4_8 
REMARK    4  A    between atoms: C4_8  and  C5_9 
REMARK    5  A    between atoms: C5_9  and  S1_10 
ROOT
HETATM    1  N2  UNL     1       3.497 -10.523  73.330  1.00  0.00    -0.218 N 
HETATM    2  C1  UNL     1       2.259 -10.574  73.827  1.00  0.00     0.143 A 
HETATM    3  N3  UNL     1       2.158  -9.436  74.600  1.00  0.00    -0.282 N 
ATOM      4  H3  UNL     1       1.329  -9.162  75.129  1.00  0.00     0.188 HD
HETATM    5  N4  UNL     1       3.278  -8.757  74.557  1.00  0.00    -0.273 N 
ATOM      6  H4  UNL     1       3.462  -7.878  75.043  1.00  0.00     0.189 HD
HETATM    7  C6  UNL     1       4.136  -9.409  73.772  1.00  0.00     0.213 A 
HETATM    8  S3  UNL     1       5.666  -9.037  73.356  1.00  0.00    -0.037 SA
ENDROOT
BRANCH   2   9
HETATM    9  C2  UNL     1       1.210 -11.554  73.646  1.00  0.00     0.052 C 
HETATM   10  C3  UNL     1       1.031 -12.669  74.305  1.00  0.00     0.004 C 
BRANCH  10  11
HETATM   11  C4  UNL     1      -0.079 -13.565  74.011  1.00  0.00     0.008 C 
BRANCH  11  12
HETATM   12  C5  UNL     1       0.132 -14.846  73.797  1.00  0.00     0.057 C 
BRANCH  12  13
HETATM   13  S1  UNL     1       0.412 -15.413  72.139  1.00  0.00    -0.057 SA
HETATM   14  S2  UNL     1       2.384 -15.024  71.506  1.00  0.00    -0.008 SA
ENDBRANCH  12  13
ENDBRANCH  11  12
ENDBRANCH  10  11
ENDBRANCH   2   9
BRANCH   1  15
HETATM   15  N1  UNL     1       4.082 -11.467  72.474  1.00  0.00    -0.335 N 
ATOM     16  H12 UNL     1       3.547 -12.126  71.910  1.00  0.00     0.177 HD
ATOM     17  H11 UNL     1       5.082 -11.601  72.321  1.00  0.00     0.177 HD
ENDBRANCH   1  15
TORSDOF 5
ENDMDL
MODEL 2
REMARK VINA RESULT: -4.567643181      1.695      1.911
REMARK  5 active torsions:
REMARK  status: ('A' for Active; 'I' for Inactive)
REMARK    1  A    between atoms: N1_1  and  N2_4 
REMARK    2  A    between atoms: C1_5  and  C2_6 
REMARK    3  A    between atoms: C3_7  and  C4_8 
REMARK    4  A    between atoms: C4_8  and  C5_9 
REMARK    5  A    between atoms: C5_9  and  S1_10 
ROOT
HETATM    1  N2  UNL     1       3.446 -10.555  73.345  1.00  0.00    -0.218 N 
HETATM    2  C1  UNL     1       2.212 -10.561  73.854  1.00  0.00     0.143 A 
HETATM    3  N3  UNL     1       2.151  -9.408  74.609  1.00  0.00    -0.282 N 
ATOM      4  H3  UNL     1       1.335  -9.102  75.141  1.00  0.00     0.188 HD
HETATM    5  N4  UNL     1       3.290  -8.763  74.546  1.00  0.00    -0.273 N 
ATOM      6  H4  UNL     1       3.505  -7.884  75.015  1.00  0.00     0.189 HD
HETATM    7  C6  UNL     1       4.122  -9.454  73.763  1.00  0.00     0.213 A 
HETATM    8  S3  UNL     1       5.658  -9.133  73.328  1.00  0.00    -0.037 SA
ENDROOT
BRANCH   2   9
HETATM    9  C2  UNL     1       1.132 -11.513  73.698  1.00  0.00     0.052 C 
HETATM   10  C3  UNL     1       1.038 -12.710  74.212  1.00  0.00     0.004 C 
BRANCH  10  11
HETATM   11  C4  UNL     1      -0.117 -13.563  73.967  1.00  0.00     0.008 C 
BRANCH  11  12
HETATM   12  C5  UNL     1      -0.071 -14.850  74.242  1.00  0.00     0.057 C 
BRANCH  12  13
HETATM   13  S1  UNL     1      -1.558 -15.685  74.733  1.00  0.00    -0.057 SA
HETATM   14  S2  UNL     1      -1.141 -17.480  75.755  1.00  0.00    -0.008 SA
ENDBRANCH  12  13
ENDBRANCH  11  12
ENDBRANCH  10  11
ENDBRANCH   2   9
BRANCH   1  15
HETATM   15  N1  UNL     1       3.995 -11.529  72.500  1.00  0.00    -0.335 N 
ATOM     16  H12 UNL     1       3.493 -12.364  72.199  1.00  0.00     0.177 HD
ATOM     17  H11 UNL     1       4.933 -11.517  72.099  1.00  0.00     0.177 HD
ENDBRANCH   1  15
TORSDOF 5
ENDMDL
MODEL 3
REMARK VINA RESULT: -4.527659920      0.773      1.794
REMARK  5 active torsions:
REMARK  status: ('A' for Active; 'I' for Inactive)
REMARK    1  A    between atoms: N1_1  and  N2_4 
REMARK    2  A    between atoms: C1_5  and  C2_6 
REMARK    3  A    between atoms: C3_7  and  C4_8 
REMARK    4  A    between atoms: C4_8  and  C5_9 
REMARK    5  A    between atoms: C5_9  and  S1_10 
ROOT
HETATM    1  N2  UNL     1       3.343  -9.852  73.648  1.00  0.00    -0.218 N 
HETATM    2  C1  UNL     1       2.933 -11.003  73.110  1.00  0.00     0.143 A 
HETATM    3  N3  UNL     1       4.035 -11.468  72.423  1.00  0.00    -0.282 N 
ATOM      4  H3  UNL     1       4.066 -12.339  71.891  1.00  0.00     0.188 HD
HETATM    5  N4  UNL     1       5.036 -10.633  72.552  1.00  0.00    -0.273 N 
ATOM      6  H4  UNL     1       5.963 -10.745  72.141  1.00  0.00     0.189 HD
HETATM    7  C6  UNL     1       4.637  -9.611  73.313  1.00  0.00     0.213 A 
HETATM    8  S3  UNL     1       5.453  -8.290  73.803  1.00  0.00    -0.037 SA
ENDROOT
BRANCH   2   9
HETATM    9  C2  UNL     1       1.652 -11.674  73.183  1.00  0.00     0.052 C 
HETATM   10  C3  UNL     1       1.175 -12.387  74.169  1.00  0.00     0.004 C 
BRANCH  10  11
HETATM   11  C4  UNL     1      -0.141 -13.007  74.102  1.00  0.00     0.008 C 
BRANCH  11  12
HETATM   12  C5  UNL     1      -0.442 -13.838  73.127  1.00  0.00     0.057 C 
BRANCH  12  13
HETATM   13  S1  UNL     1       0.452 -15.363  72.980  1.00  0.00    -0.057 SA
HETATM   14  S2  UNL     1       2.059 -15.196  71.626  1.00  0.00    -0.008 SA
ENDBRANCH  12  13
ENDBRANCH  11  12
ENDBRANCH  10  11
ENDBRANCH   2   9
BRANCH   1  15
HETATM   15  N1  UNL     1       2.576  -8.994  74.448  1.00  0.00    -0.335 N 
ATOM     16  H12 UNL     1       1.663  -8.631  74.172  1.00  0.00     0.177 HD
ATOM     17  H11 UNL     1       2.832  -8.643  75.370  1.00  0.00     0.177 HD
ENDBRANCH   1  15
TORSDOF 5
ENDMDL
MODEL 4
REMARK VINA RESULT: -4.518633697      2.463      3.114
REMARK  5 active torsions:
REMARK  status: ('A' for Active; 'I' for Inactive)
REMARK    1  A    between atoms: N1_1  and  N2_4 
REMARK    2  A    between atoms: C1_5  and  C2_6 
REMARK    3  A    between atoms: C3_7  and  C4_8 
REMARK    4  A    between atoms: C4_8  and  C5_9 
REMARK    5  A    between atoms: C5_9  and  S1_10 
ROOT
HETATM    1  N2  UNL     1       3.403  -9.915  73.690  1.00  0.00    -0.218 N 
HETATM    2  C1  UNL     1       2.963 -11.046  73.135  1.00  0.00     0.143 A 
HETATM    3  N3  UNL     1       4.033 -11.499  72.393  1.00  0.00    -0.282 N 
ATOM      4  H3  UNL     1       4.036 -12.353  71.835  1.00  0.00     0.188 HD
HETATM    5  N4  UNL     1       5.046 -10.675  72.507  1.00  0.00    -0.273 N 
ATOM      6  H4  UNL     1       5.955 -10.781  72.057  1.00  0.00     0.189 HD
HETATM    7  C6  UNL     1       4.685  -9.674  73.312  1.00  0.00     0.213 A 
HETATM    8  S3  UNL     1       5.531  -8.374  73.808  1.00  0.00    -0.037 SA
ENDROOT
BRANCH   2   9
HETATM    9  C2  UNL     1       1.680 -11.709  73.238  1.00  0.00     0.052 C 
HETATM   10  C3  UNL     1       1.264 -12.510  74.184  1.00  0.00     0.004 C 
BRANCH  10  11
HETATM   11  C4  UNL     1      -0.062 -13.109  74.155  1.00  0.00     0.008 C 
BRANCH  11  12
HETATM   12  C5  UNL     1      -1.048 -12.526  73.507  1.00  0.00     0.057 C 
BRANCH  12  13
HETATM   13  S1  UNL     1      -2.070 -11.350  74.357  1.00  0.00    -0.057 SA
HETATM   14  S2  UNL     1      -1.162  -9.450  74.443  1.00  0.00    -0.008 SA
ENDBRANCH  12  13
ENDBRANCH  11  12
ENDBRANCH  10  11
ENDBRANCH   2   9
BRANCH   1  15
HETATM   15  N1  UNL     1       2.674  -9.074  74.543  1.00  0.00    -0.335 N 
ATOM     16  H12 UNL     1       2.078  -8.315  74.214  1.00  0.00     0.177 HD
ATOM     17  H11 UNL     1       2.656  -9.122  75.562  1.00  0.00     0.177 HD
ENDBRANCH   1  15
TORSDOF 5
ENDMDL
MODEL 5
REMARK VINA RESULT: -4.506727930      1.368      2.362
REMARK  5 active torsions:
REMARK  status: ('A' for Active; 'I' for Inactive)
REMARK    1  A    between atoms: N1_1  and  N2_4 
REMARK    2  A    between atoms: C1_5  and  C2_6 
REMARK    3  A    between atoms: C3_7  and  C4_8 
REMARK    4  A    between atoms: C4_8  and  C5_9 
REMARK    5  A    between atoms: C5_9  and  S1_10 
ROOT
HETATM    1  N2  UNL     1       3.180  -9.919  73.792  1.00  0.00    -0.218 N 
HETATM    2  C1  UNL     1       2.622 -11.031  73.311  1.00  0.00     0.143 A 
HETATM    3  N3  UNL     1       3.604 -11.590  72.520  1.00  0.00    -0.282 N 
ATOM      4  H3  UNL     1       3.507 -12.460  71.996  1.00  0.00     0.188 HD
HETATM    5  N4  UNL     1       4.680 -10.842  72.537  1.00  0.00    -0.273 N 
ATOM      6  H4  UNL     1       5.547 -11.032  72.034  1.00  0.00     0.189 HD
HETATM    7  C6  UNL     1       4.448  -9.789  73.323  1.00  0.00     0.213 A 
HETATM    8  S3  UNL     1       5.418  -8.540  73.713  1.00  0.00    -0.037 SA
ENDROOT
BRANCH   2   9
HETATM    9  C2  UNL     1       1.303 -11.591  73.522  1.00  0.00     0.052 C 
HETATM   10  C3  UNL     1       0.999 -12.766  74.008  1.00  0.00     0.004 C 
BRANCH  10  11
HETATM   11  C4  UNL     1      -0.383 -13.198  74.164  1.00  0.00     0.008 C 
BRANCH  11  12
HETATM   12  C5  UNL     1      -0.767 -14.384  73.742  1.00  0.00     0.057 C 
BRANCH  12  13
HETATM   13  S1  UNL     1       0.205 -15.809  74.159  1.00  0.00    -0.057 SA
HETATM   14  S2  UNL     1      -0.870 -17.156  75.371  1.00  0.00    -0.008 SA
ENDBRANCH  12  13
ENDBRANCH  11  12
ENDBRANCH  10  11
ENDBRANCH   2   9
BRANCH   1  15
HETATM   15  N1  UNL     1       2.574  -8.997  74.656  1.00  0.00    -0.335 N 
ATOM     16  H12 UNL     1       3.090  -8.428  75.328  1.00  0.00     0.177 HD
ATOM     17  H11 UNL     1       1.576  -8.793  74.714  1.00  0.00     0.177 HD
ENDBRANCH   1  15
TORSDOF 5
ENDMDL
