MODEL 1
REMARK VINA RESULT: -3.954733059      0.000      0.000
REMARK  3 active torsions:
REMARK  status: ('A' for Active; 'I' for Inactive)
REMARK    1  A    between atoms: C2_2  and  C3_6 
REMARK    2  A    between atoms: C3_6  and  N2_8 
REMARK    3  A    between atoms: N2_8  and  N3_10 
ROOT
HETATM    1  N2  UNL     1       1.537 -11.814  72.718  1.00  0.00    -0.304 N 
ATOM      2  H2  UNL     1       0.970 -11.156  72.182  1.00  0.00     0.183 HD
ENDROOT
BRANCH   1   3
HETATM    3  C3  UNL     1       2.565 -11.300  73.565  1.00  0.00     0.142 C 
HETATM    4  C4  UNL     1       3.850 -11.165  72.785  1.00  0.00     0.040 C 
BRANCH   3   5
HETATM    5  C2  UNL     1       2.172  -9.982  74.159  1.00  0.00    -0.000 C 
HETATM    6  C1  UNL     1       0.767  -9.716  74.542  1.00  0.00     0.065 C 
HETATM    7  N1  UNL     1       3.090  -9.116  74.333  1.00  0.00    -0.404 N 
ATOM      8  H12 UNL     1       2.822  -8.218  74.737  1.00  0.00     0.155 HD
ATOM      9  H11 UNL     1       4.058  -9.300  74.068  1.00  0.00     0.155 HD
ENDBRANCH   3   5
ENDBRANCH   1   3
BRANCH   1  10
HETATM   10  N3  UNL     1       1.269 -13.224  72.591  1.00  0.00    -0.181 N 
HETATM   11  N4  UNL     1       2.079 -14.027  72.000  1.00  0.00    -0.262 N 
HETATM   12  C5  UNL     1       1.770 -15.325  71.933  1.00  0.00     0.161 A 
ATOM     13  H4  UNL     1       2.946 -13.679  71.589  1.00  0.00     0.190 HD
HETATM   14  S1  UNL     1       2.653 -16.539  71.229  1.00  0.00    -0.051 SA
HETATM   15  S2  UNL     1       0.273 -15.387  72.741  1.00  0.00    -0.026 SA
HETATM   16  C6  UNL     1       0.147 -13.731  73.112  1.00  0.00     0.184 A 
HETATM   17  S3  UNL     1      -1.055 -12.931  73.916  1.00  0.00    -0.049 SA
ENDBRANCH   1  10
TORSDOF 3
ENDMDL
MODEL 2
REMARK VINA RESULT: -3.859980177      2.234      4.188
REMARK  3 active torsions:
REMARK  status: ('A' for Active; 'I' for Inactive)
REMARK    1  A    between atoms: C2_2  and  C3_6 
REMARK    2  A    between atoms: C3_6  and  N2_8 
REMARK    3  A    between atoms: N2_8  and  N3_10 
ROOT
HETATM    1  N2  UNL     1       1.637 -11.637  74.290  1.00  0.00    -0.304 N 
ATOM      2  H2  UNL     1       2.135 -12.357  74.814  1.00  0.00     0.183 HD
ENDROOT
BRANCH   1   3
HETATM    3  C3  UNL     1       2.395 -10.638  73.609  1.00  0.00     0.142 C 
HETATM    4  C4  UNL     1       2.837  -9.577  74.587  1.00  0.00     0.040 C 
BRANCH   3   5
HETATM    5  C2  UNL     1       3.580 -11.234  72.914  1.00  0.00    -0.000 C 
HETATM    6  C1  UNL     1       3.591 -12.666  72.534  1.00  0.00     0.065 C 
HETATM    7  N1  UNL     1       4.561 -10.464  72.651  1.00  0.00    -0.404 N 
ATOM      8  H12 UNL     1       5.368 -10.871  72.177  1.00  0.00     0.155 HD
ATOM      9  H11 UNL     1       4.553  -9.479  72.913  1.00  0.00     0.155 HD
ENDBRANCH   3   5
ENDBRANCH   1   3
BRANCH   1  10
HETATM   10  N3  UNL     1       0.196 -11.669  74.266  1.00  0.00    -0.181 N 
HETATM   11  N4  UNL     1      -0.518 -10.622  74.470  1.00  0.00    -0.262 N 
HETATM   12  C5  UNL     1      -1.849 -10.726  74.418  1.00  0.00     0.161 A 
ATOM     13  H4  UNL     1      -0.076  -9.724  74.669  1.00  0.00     0.190 HD
HETATM   14  S1  UNL     1      -2.967  -9.522  74.645  1.00  0.00    -0.051 SA
HETATM   15  S2  UNL     1      -2.074 -12.376  74.066  1.00  0.00    -0.026 SA
HETATM   16  C6  UNL     1      -0.432 -12.821  74.010  1.00  0.00     0.184 A 
HETATM   17  S3  UNL     1       0.236 -14.303  73.713  1.00  0.00    -0.049 SA
ENDBRANCH   1  10
TORSDOF 3
ENDMDL
MODEL 3
REMARK VINA RESULT: -3.797381758      3.268      5.327
REMARK  3 active torsions:
REMARK  status: ('A' for Active; 'I' for Inactive)
REMARK    1  A    between atoms: C2_2  and  C3_6 
REMARK    2  A    between atoms: C3_6  and  N2_8 
REMARK    3  A    between atoms: N2_8  and  N3_10 
ROOT
HETATM    1  N2  UNL     1       0.378 -10.632  72.813  1.00  0.00    -0.304 N 
ATOM      2  H2  UNL     1       0.656 -11.042  71.921  1.00  0.00     0.183 HD
ENDROOT
BRANCH   1   3
HETATM    3  C3  UNL     1       1.195 -10.867  73.960  1.00  0.00     0.142 C 
HETATM    4  C4  UNL     1       1.182 -12.337  74.303  1.00  0.00     0.040 C 
BRANCH   3   5
HETATM    5  C2  UNL     1       2.597 -10.394  73.734  1.00  0.00    -0.000 C 
HETATM    6  C1  UNL     1       3.533 -11.178  72.895  1.00  0.00     0.065 C 
HETATM    7  N1  UNL     1       2.945  -9.294  74.274  1.00  0.00    -0.404 N 
ATOM      8  H12 UNL     1       3.901  -8.972  74.120  1.00  0.00     0.155 HD
ATOM      9  H11 UNL     1       2.300  -8.754  74.852  1.00  0.00     0.155 HD
ENDBRANCH   3   5
ENDBRANCH   1   3
BRANCH   1  10
HETATM   10  N3  UNL     1      -0.824  -9.839  72.866  1.00  0.00    -0.181 N 
HETATM   11  N4  UNL     1      -1.017  -8.941  73.764  1.00  0.00    -0.262 N 
HETATM   12  C5  UNL     1      -2.151  -8.235  73.740  1.00  0.00     0.161 A 
ATOM     13  H4  UNL     1      -0.315  -8.770  74.484  1.00  0.00     0.190 HD
HETATM   14  S1  UNL     1      -2.616  -7.035  74.786  1.00  0.00    -0.051 SA
HETATM   15  S2  UNL     1      -2.958  -8.883  72.389  1.00  0.00    -0.026 SA
HETATM   16  C6  UNL     1      -1.776 -10.024  71.945  1.00  0.00     0.184 A 
HETATM   17  S3  UNL     1      -1.785 -11.099  70.691  1.00  0.00    -0.049 SA
ENDBRANCH   1  10
TORSDOF 3
ENDMDL
MODEL 4
REMARK VINA RESULT: -3.789774854      3.441      5.736
REMARK  3 active torsions:
REMARK  status: ('A' for Active; 'I' for Inactive)
REMARK    1  A    between atoms: C2_2  and  C3_6 
REMARK    2  A    between atoms: C3_6  and  N2_8 
REMARK    3  A    between atoms: N2_8  and  N3_10 
ROOT
HETATM    1  N2  UNL     1      -0.088 -10.277  74.831  1.00  0.00    -0.304 N 
ATOM      2  H2  UNL     1      -0.041 -10.880  75.653  1.00  0.00     0.183 HD
ENDROOT
BRANCH   1   3
HETATM    3  C3  UNL     1       1.064 -10.167  73.996  1.00  0.00     0.142 C 
HETATM    4  C4  UNL     1       2.129  -9.361  74.700  1.00  0.00     0.040 C 
BRANCH   3   5
HETATM    5  C2  UNL     1       1.593 -11.515  73.617  1.00  0.00    -0.000 C 
HETATM    6  C1  UNL     1       0.926 -12.749  74.094  1.00  0.00     0.065 C 
HETATM    7  N1  UNL     1       2.619 -11.558  72.863  1.00  0.00    -0.404 N 
ATOM      8  H12 UNL     1       2.979 -12.477  72.605  1.00  0.00     0.155 HD
ATOM      9  H11 UNL     1       3.078 -10.708  72.535  1.00  0.00     0.155 HD
ENDBRANCH   3   5
ENDBRANCH   1   3
BRANCH   1  10
HETATM   10  N3  UNL     1      -1.315  -9.572  74.559  1.00  0.00    -0.181 N 
HETATM   11  N4  UNL     1      -1.357  -8.296  74.414  1.00  0.00    -0.262 N 
HETATM   12  C5  UNL     1      -2.529  -7.713  74.149  1.00  0.00     0.161 A 
ATOM     13  H4  UNL     1      -0.508  -7.737  74.499  1.00  0.00     0.190 HD
HETATM   14  S1  UNL     1      -2.826  -6.097  73.923  1.00  0.00    -0.051 SA
HETATM   15  S2  UNL     1      -3.597  -9.038  74.109  1.00  0.00    -0.026 SA
HETATM   16  C6  UNL     1      -2.456 -10.258  74.437  1.00  0.00     0.184 A 
HETATM   17  S3  UNL     1      -2.684 -11.889  74.574  1.00  0.00    -0.049 SA
ENDBRANCH   1  10
TORSDOF 3
ENDMDL
MODEL 5
REMARK VINA RESULT: -3.774000799      4.362      6.489
REMARK  3 active torsions:
REMARK  status: ('A' for Active; 'I' for Inactive)
REMARK    1  A    between atoms: C2_2  and  C3_6 
REMARK    2  A    between atoms: C3_6  and  N2_8 
REMARK    3  A    between atoms: N2_8  and  N3_10 
ROOT
HETATM    1  N2  UNL     1      -0.528  -9.199  72.833  1.00  0.00    -0.304 N 
ATOM      2  H2  UNL     1       0.184  -9.339  72.116  1.00  0.00     0.183 HD
ENDROOT
BRANCH   1   3
HETATM    3  C3  UNL     1      -0.299  -9.724  74.139  1.00  0.00     0.142 C 
HETATM    4  C4  UNL     1      -1.111 -10.982  74.334  1.00  0.00     0.040 C 
BRANCH   3   5
HETATM    5  C2  UNL     1       1.155 -10.001  74.367  1.00  0.00    -0.000 C 
HETATM    6  C1  UNL     1       1.668 -11.391  74.376  1.00  0.00     0.065 C 
HETATM    7  N1  UNL     1       1.928  -9.001  74.534  1.00  0.00    -0.404 N 
ATOM      8  H12 UNL     1       2.919  -9.190  74.689  1.00  0.00     0.155 HD
ATOM      9  H11 UNL     1       1.575  -8.044  74.527  1.00  0.00     0.155 HD
ENDBRANCH   3   5
ENDBRANCH   1   3
BRANCH   1  10
HETATM   10  N3  UNL     1      -1.727  -8.478  72.485  1.00  0.00    -0.181 N 
HETATM   11  N4  UNL     1      -2.101  -7.422  73.113  1.00  0.00    -0.262 N 
HETATM   12  C5  UNL     1      -3.216  -6.799  72.724  1.00  0.00     0.161 A 
ATOM     13  H4  UNL     1      -1.553  -7.064  73.896  1.00  0.00     0.190 HD
HETATM   14  S1  UNL     1      -3.889  -5.430  73.376  1.00  0.00    -0.051 SA
HETATM   15  S2  UNL     1      -3.739  -7.762  71.421  1.00  0.00    -0.026 SA
HETATM   16  C6  UNL     1      -2.480  -8.906  71.466  1.00  0.00     0.184 A 
HETATM   17  S3  UNL     1      -2.233 -10.222  70.499  1.00  0.00    -0.049 SA
ENDBRANCH   1  10
TORSDOF 3
ENDMDL
