MODEL 1
REMARK VINA RESULT: -4.795139373      0.000      0.000
REMARK  3 active torsions:
REMARK  status: ('A' for Active; 'I' for Inactive)
REMARK    1  A    between atoms: C2_2  and  N2_6 
REMARK    2  A    between atoms: N2_6  and  C3_8 
REMARK    3  A    between atoms: N4_14  and  C7_15 
ROOT
HETATM    1  C3  UNL     1       2.423 -16.982  72.032  1.00  0.00     0.687 A 
HETATM    2  N3  UNL     1       3.239 -16.068  71.409  1.00  0.00    -0.200 N 
ATOM      3  H3  UNL     1       4.198 -16.216  71.092  1.00  0.00     0.183 HD
HETATM    4  C4  UNL     1       2.522 -14.946  71.303  1.00  0.00     0.131 A 
HETATM    5  C5  UNL     1       1.297 -15.155  71.844  1.00  0.00     0.043 A 
HETATM    6  C6  UNL     1       0.209 -14.149  71.918  1.00  0.00     0.070 C 
HETATM    7  N4  UNL     1       1.249 -16.456  72.304  1.00  0.00    -0.163 N 
ENDROOT
BRANCH   7   8
HETATM    8  C7  UNL     1       0.096 -16.967  72.917  1.00  0.00     0.226 C 
HETATM    9  C8  UNL     1       0.078 -17.246  74.369  1.00  0.00     0.075 C 
HETATM   10  C9  UNL     1      -1.420 -17.346  74.753  1.00  0.00     0.100 C 
HETATM   11  C10 UNL     1      -1.557 -17.922  76.145  1.00  0.00     0.034 C 
HETATM   12  N5  UNL     1      -2.135 -18.171  73.831  1.00  0.00    -0.318 N 
HETATM   13  N6  UNL     1      -1.732 -18.532  72.713  1.00  0.00    -0.249 N 
ATOM     14  H5  UNL     1      -3.059 -18.494  74.118  1.00  0.00     0.182 HD
HETATM   15  N7  UNL     1      -0.489 -18.143  72.239  1.00  0.00    -0.298 N 
ATOM     16  H6  UNL     1      -2.327 -19.124  72.133  1.00  0.00     0.207 HD
ATOM     17  H7  UNL     1      -0.014 -18.631  71.480  1.00  0.00     0.184 HD
ENDBRANCH   7   8
BRANCH   1  18
HETATM   18  N2  UNL     1       2.873 -18.293  72.303  1.00  0.00    -0.181 N 
ATOM     19  H2  UNL     1       3.209 -18.537  73.235  1.00  0.00     0.185 HD
BRANCH  18  20
HETATM   20  C2  UNL     1       2.857 -19.292  71.245  1.00  0.00     0.087 C 
HETATM   21  C1  UNL     1       2.181 -19.042  69.960  1.00  0.00     0.089 C 
HETATM   22  N1  UNL     1       3.445 -20.399  71.462  1.00  0.00    -0.389 N 
ATOM     23  H12 UNL     1       3.433 -21.099  70.721  1.00  0.00     0.157 HD
ATOM     24  H11 UNL     1       3.913 -20.572  72.351  1.00  0.00     0.157 HD
ENDBRANCH  18  20
ENDBRANCH   1  18
TORSDOF 3
ENDMDL
MODEL 2
REMARK VINA RESULT: -4.744563988      4.319      6.452
REMARK  3 active torsions:
REMARK  status: ('A' for Active; 'I' for Inactive)
REMARK    1  A    between atoms: C2_2  and  N2_6 
REMARK    2  A    between atoms: N2_6  and  C3_8 
REMARK    3  A    between atoms: N4_14  and  C7_15 
ROOT
HETATM    1  C3  UNL     1       0.816 -10.549  73.531  1.00  0.00     0.687 A 
HETATM    2  N3  UNL     1       0.194  -9.341  73.316  1.00  0.00    -0.200 N 
ATOM      3  H3  UNL     1       0.474  -8.432  73.684  1.00  0.00     0.183 HD
HETATM    4  C4  UNL     1      -0.851  -9.602  72.526  1.00  0.00     0.131 A 
HETATM    5  C5  UNL     1      -0.879 -10.930  72.258  1.00  0.00     0.043 A 
HETATM    6  C6  UNL     1      -1.888 -11.614  71.413  1.00  0.00     0.070 C 
HETATM    7  N4  UNL     1       0.189 -11.519  72.905  1.00  0.00    -0.163 N 
ENDROOT
BRANCH   7   8
HETATM    8  C7  UNL     1       0.423 -12.898  72.811  1.00  0.00     0.226 C 
HETATM    9  C8  UNL     1       0.212 -13.779  73.981  1.00  0.00     0.075 C 
HETATM   10  C9  UNL     1       0.119 -15.215  73.407  1.00  0.00     0.100 C 
HETATM   11  C10 UNL     1       0.203 -16.224  74.532  1.00  0.00     0.034 C 
HETATM   12  N5  UNL     1       1.169 -15.466  72.472  1.00  0.00    -0.318 N 
HETATM   13  N6  UNL     1       1.891 -14.607  71.939  1.00  0.00    -0.249 N 
ATOM     14  H5  UNL     1       1.341 -16.439  72.218  1.00  0.00     0.182 HD
HETATM   15  N7  UNL     1       1.731 -13.260  72.223  1.00  0.00    -0.298 N 
ATOM     16  H6  UNL     1       2.615 -14.898  71.282  1.00  0.00     0.207 HD
ATOM     17  H7  UNL     1       2.459 -12.570  72.041  1.00  0.00     0.184 HD
ENDBRANCH   7   8
BRANCH   1  18
HETATM   18  N2  UNL     1       1.975 -10.636  74.335  1.00  0.00    -0.181 N 
ATOM     19  H2  UNL     1       1.939 -11.114  75.235  1.00  0.00     0.185 HD
BRANCH  18  20
HETATM   20  C2  UNL     1       3.219 -10.041  73.871  1.00  0.00     0.087 C 
HETATM   21  C1  UNL     1       4.081 -10.725  72.892  1.00  0.00     0.089 C 
HETATM   22  N1  UNL     1       3.546  -8.904  74.338  1.00  0.00    -0.389 N 
ATOM     23  H12 UNL     1       4.418  -8.488  74.014  1.00  0.00     0.157 HD
ATOM     24  H11 UNL     1       2.949  -8.431  75.016  1.00  0.00     0.157 HD
ENDBRANCH  18  20
ENDBRANCH   1  18
TORSDOF 3
ENDMDL
MODEL 3
REMARK VINA RESULT: -4.643445593      4.938      7.205
REMARK  3 active torsions:
REMARK  status: ('A' for Active; 'I' for Inactive)
REMARK    1  A    between atoms: C2_2  and  N2_6 
REMARK    2  A    between atoms: N2_6  and  C3_8 
REMARK    3  A    between atoms: N4_14  and  C7_15 
ROOT
HETATM    1  C3  UNL     1       2.934 -10.324  73.437  1.00  0.00     0.687 A 
HETATM    2  N3  UNL     1       2.782  -9.252  74.285  1.00  0.00    -0.200 N 
ATOM      3  H3  UNL     1       3.477  -8.537  74.501  1.00  0.00     0.183 HD
HETATM    4  C4  UNL     1       1.540  -9.338  74.768  1.00  0.00     0.131 A 
HETATM    5  C5  UNL     1       0.937 -10.429  74.237  1.00  0.00     0.043 A 
HETATM    6  C6  UNL     1      -0.451 -10.868  74.526  1.00  0.00     0.070 C 
HETATM    7  N4  UNL     1       1.836 -11.046  73.392  1.00  0.00    -0.163 N 
ENDROOT
BRANCH   7   8
HETATM    8  C7  UNL     1       1.493 -12.211  72.691  1.00  0.00     0.226 C 
HETATM    9  C8  UNL     1       2.531 -13.192  72.307  1.00  0.00     0.075 C 
HETATM   10  C9  UNL     1       1.767 -14.500  71.984  1.00  0.00     0.100 C 
HETATM   11  C10 UNL     1       2.692 -15.480  71.295  1.00  0.00     0.034 C 
HETATM   12  N5  UNL     1       0.641 -14.245  71.142  1.00  0.00    -0.318 N 
HETATM   13  N6  UNL     1       0.135 -13.133  70.919  1.00  0.00    -0.249 N 
ATOM     14  H5  UNL     1       0.215 -15.050  70.681  1.00  0.00     0.182 HD
HETATM   15  N7  UNL     1       0.646 -11.984  71.501  1.00  0.00    -0.298 N 
ATOM     16  H6  UNL     1      -0.672 -13.065  70.298  1.00  0.00     0.207 HD
ATOM     17  H7  UNL     1       0.453 -11.052  71.136  1.00  0.00     0.184 HD
ENDBRANCH   7   8
BRANCH   1  18
HETATM   18  N2  UNL     1       4.147 -10.538  72.746  1.00  0.00    -0.181 N 
ATOM     19  H2  UNL     1       4.290 -11.398  72.216  1.00  0.00     0.185 HD
BRANCH  18  20
HETATM   20  C2  UNL     1       5.191  -9.526  72.794  1.00  0.00     0.087 C 
HETATM   21  C1  UNL     1       6.254  -9.564  73.814  1.00  0.00     0.089 C 
HETATM   22  N1  UNL     1       5.162  -8.598  71.925  1.00  0.00    -0.389 N 
ATOM     23  H12 UNL     1       5.894  -7.888  71.960  1.00  0.00     0.157 HD
ATOM     24  H11 UNL     1       4.427  -8.571  71.219  1.00  0.00     0.157 HD
ENDBRANCH  18  20
ENDBRANCH   1  18
TORSDOF 3
ENDMDL
MODEL 4
REMARK VINA RESULT: -4.589845566      6.057      8.092
REMARK  3 active torsions:
REMARK  status: ('A' for Active; 'I' for Inactive)
REMARK    1  A    between atoms: C2_2  and  N2_6 
REMARK    2  A    between atoms: N2_6  and  C3_8 
REMARK    3  A    between atoms: N4_14  and  C7_15 
ROOT
HETATM    1  C3  UNL     1      -0.306 -11.969  73.815  1.00  0.00     0.687 A 
HETATM    2  N3  UNL     1       0.783 -12.765  74.082  1.00  0.00    -0.200 N 
ATOM      3  H3  UNL     1       0.829 -13.782  74.021  1.00  0.00     0.183 HD
HETATM    4  C4  UNL     1       1.766 -11.935  74.439  1.00  0.00     0.131 A 
HETATM    5  C5  UNL     1       1.305 -10.662  74.395  1.00  0.00     0.043 A 
HETATM    6  C6  UNL     1       2.097  -9.451  74.721  1.00  0.00     0.070 C 
HETATM    7  N4  UNL     1      -0.016 -10.699  73.996  1.00  0.00    -0.163 N 
ENDROOT
BRANCH   7   8
HETATM    8  C7  UNL     1      -0.766  -9.523  73.856  1.00  0.00     0.226 C 
HETATM    9  C8  UNL     1      -2.037  -9.350  74.591  1.00  0.00     0.075 C 
HETATM   10  C9  UNL     1      -2.330  -7.829  74.561  1.00  0.00     0.100 C 
HETATM   11  C10 UNL     1      -3.748  -7.568  75.020  1.00  0.00     0.034 C 
HETATM   12  N5  UNL     1      -2.156  -7.296  73.248  1.00  0.00    -0.318 N 
HETATM   13  N6  UNL     1      -1.573  -7.857  72.305  1.00  0.00    -0.249 N 
ATOM     14  H5  UNL     1      -2.546  -6.370  73.067  1.00  0.00     0.182 HD
HETATM   15  N7  UNL     1      -1.012  -9.115  72.457  1.00  0.00    -0.298 N 
ATOM     16  H6  UNL     1      -1.506  -7.383  71.403  1.00  0.00     0.207 HD
ATOM     17  H7  UNL     1      -0.786  -9.714  71.663  1.00  0.00     0.184 HD
ENDBRANCH   7   8
BRANCH   1  18
HETATM   18  N2  UNL     1      -1.534 -12.532  73.403  1.00  0.00    -0.181 N 
ATOM     19  H2  UNL     1      -1.898 -12.340  72.470  1.00  0.00     0.185 HD
BRANCH  18  20
HETATM   20  C2  UNL     1      -2.277 -13.386  74.317  1.00  0.00     0.087 C 
HETATM   21  C1  UNL     1      -3.125 -12.821  75.382  1.00  0.00     0.089 C 
HETATM   22  N1  UNL     1      -2.175 -14.645  74.172  1.00  0.00    -0.389 N 
ATOM     23  H12 UNL     1      -2.695 -15.244  74.813  1.00  0.00     0.157 HD
ATOM     24  H11 UNL     1      -1.588 -15.036  73.435  1.00  0.00     0.157 HD
ENDBRANCH  18  20
ENDBRANCH   1  18
TORSDOF 3
ENDMDL
MODEL 5
REMARK VINA RESULT: -4.552978448      5.138      7.387
REMARK  3 active torsions:
REMARK  status: ('A' for Active; 'I' for Inactive)
REMARK    1  A    between atoms: C2_2  and  N2_6 
REMARK    2  A    between atoms: N2_6  and  C3_8 
REMARK    3  A    between atoms: N4_14  and  C7_15 
ROOT
HETATM    1  C3  UNL     1       0.580  -9.961  74.386  1.00  0.00     0.687 A 
HETATM    2  N3  UNL     1       1.621  -9.076  74.549  1.00  0.00    -0.200 N 
ATOM      3  H3  UNL     1       1.578  -8.150  74.974  1.00  0.00     0.183 HD
HETATM    4  C4  UNL     1       2.698  -9.677  74.037  1.00  0.00     0.131 A 
HETATM    5  C5  UNL     1       2.340 -10.898  73.570  1.00  0.00     0.043 A 
HETATM    6  C6  UNL     1       3.255 -11.873  72.928  1.00  0.00     0.070 C 
HETATM    7  N4  UNL     1       0.989 -11.064  73.799  1.00  0.00    -0.163 N 
ENDROOT
BRANCH   7   8
HETATM    8  C7  UNL     1       0.328 -12.241  73.421  1.00  0.00     0.226 C 
HETATM    9  C8  UNL     1       0.628 -13.522  74.097  1.00  0.00     0.075 C 
HETATM   10  C9  UNL     1      -0.562 -14.456  73.762  1.00  0.00     0.100 C 
HETATM   11  C10 UNL     1      -0.222 -15.879  74.147  1.00  0.00     0.034 C 
HETATM   12  N5  UNL     1      -0.879 -14.409  72.370  1.00  0.00    -0.318 N 
HETATM   13  N6  UNL     1      -0.491 -13.549  71.563  1.00  0.00    -0.249 N 
ATOM     14  H5  UNL     1      -1.478 -15.151  72.005  1.00  0.00     0.182 HD
HETATM   15  N7  UNL     1       0.326 -12.504  71.967  1.00  0.00    -0.298 N 
ATOM     16  H6  UNL     1      -0.779 -13.611  70.586  1.00  0.00     0.207 HD
ATOM     17  H7  UNL     1       0.884 -11.958  71.310  1.00  0.00     0.184 HD
ENDBRANCH   7   8
BRANCH   1  18
HETATM   18  N2  UNL     1      -0.723  -9.638  74.825  1.00  0.00    -0.181 N 
ATOM     19  H2  UNL     1      -1.103 -10.075  75.664  1.00  0.00     0.185 HD
BRANCH  18  20
HETATM   20  C2  UNL     1      -1.520  -8.680  74.073  1.00  0.00     0.087 C 
HETATM   21  C1  UNL     1      -2.440  -7.748  74.747  1.00  0.00     0.089 C 
HETATM   22  N1  UNL     1      -1.400  -8.670  72.807  1.00  0.00    -0.389 N 
ATOM     23  H12 UNL     1      -1.959  -7.999  72.280  1.00  0.00     0.157 HD
ATOM     24  H11 UNL     1      -0.763  -9.315  72.341  1.00  0.00     0.157 HD
ENDBRANCH  18  20
ENDBRANCH   1  18
TORSDOF 3
ENDMDL
