MODEL 1
REMARK VINA RESULT: -4.521592497      0.000      0.000
REMARK  6 active torsions:
REMARK  status: ('A' for Active; 'I' for Inactive)
REMARK    1  A    between atoms: C2_2  and  C3_3 
REMARK    2  A    between atoms: C3_3  and  S1_4 
REMARK    3  A    between atoms: S1_4  and  C4_5 
REMARK    4  A    between atoms: N3_12  and  C6_13 
REMARK    5  A    between atoms: C6_13  and  O1_14 
REMARK    6  A    between atoms: N4_16  and  O2_18 
ROOT
HETATM    1  C4  UNL     1       1.474 -10.829  74.363  1.00  0.00     0.171 A 
HETATM    2  N1  UNL     1       1.789 -12.133  74.435  1.00  0.00    -0.277 N 
ATOM      3  H1  UNL     1       2.723 -12.494  74.626  1.00  0.00     0.189 HD
HETATM    4  N2  UNL     1       0.724 -12.879  74.224  1.00  0.00    -0.274 N 
ATOM      5  H2  UNL     1       0.682 -13.898  74.223  1.00  0.00     0.189 HD
HETATM    6  C5  UNL     1      -0.286 -12.040  74.014  1.00  0.00     0.202 A 
HETATM    7  S2  UNL     1      -1.839 -12.495  73.701  1.00  0.00    -0.038 SA
HETATM    8  N3  UNL     1       0.154 -10.779  74.094  1.00  0.00    -0.229 N 
ENDROOT
BRANCH   8   9
HETATM    9  C6  UNL     1      -0.606  -9.606  73.933  1.00  0.00     0.252 C 
HETATM   10  N4  UNL     1      -0.761  -9.045  72.786  1.00  0.00    -0.232 N 
ATOM     11  H4  UNL     1      -0.323  -9.459  71.964  1.00  0.00     0.198 HD
BRANCH   9  12
HETATM   12  O1  UNL     1      -1.214  -9.020  75.031  1.00  0.00    -0.331 OA
ATOM     13  H1  UNL     1      -1.904  -8.378  74.904  1.00  0.00     0.221 HD
ENDBRANCH   9  12
BRANCH  10  14
HETATM   14  O2  UNL     1      -1.505  -7.902  72.647  1.00  0.00    -0.287 OA
ATOM     15  H2  UNL     1      -1.132  -7.045  72.820  1.00  0.00     0.244 HD
ENDBRANCH  10  14
ENDBRANCH   8   9
BRANCH   1  16
HETATM   16  S1  UNL     1       2.565  -9.406  74.574  1.00  0.00    -0.092 SA
BRANCH  16  17
HETATM   17  C3  UNL     1       4.053  -9.723  73.551  1.00  0.00     0.082 C 
BRANCH  17  18
HETATM   18  C2  UNL     1       5.171  -8.781  73.946  1.00  0.00     0.006 C 
HETATM   19  C1  UNL     1       5.767  -8.219  72.686  1.00  0.00     0.006 C 
ENDBRANCH  17  18
ENDBRANCH  16  17
ENDBRANCH   1  16
TORSDOF 6
ENDMDL
MODEL 2
REMARK VINA RESULT: -4.485136428      2.821      3.483
REMARK  6 active torsions:
REMARK  status: ('A' for Active; 'I' for Inactive)
REMARK    1  A    between atoms: C2_2  and  C3_3 
REMARK    2  A    between atoms: C3_3  and  S1_4 
REMARK    3  A    between atoms: S1_4  and  C4_5 
REMARK    4  A    between atoms: N3_12  and  C6_13 
REMARK    5  A    between atoms: C6_13  and  O1_14 
REMARK    6  A    between atoms: N4_16  and  O2_18 
ROOT
HETATM    1  C4  UNL     1       3.088  -9.968  73.561  1.00  0.00     0.171 A 
HETATM    2  N1  UNL     1       2.844  -9.011  74.471  1.00  0.00    -0.277 N 
ATOM      3  H1  UNL     1       3.541  -8.358  74.828  1.00  0.00     0.189 HD
HETATM    4  N2  UNL     1       1.578  -9.032  74.839  1.00  0.00    -0.274 N 
ATOM      5  H2  UNL     1       1.127  -8.416  75.514  1.00  0.00     0.189 HD
HETATM    6  C5  UNL     1       1.006 -10.018  74.154  1.00  0.00     0.202 A 
HETATM    7  S2  UNL     1      -0.582 -10.445  74.267  1.00  0.00    -0.038 SA
HETATM    8  N3  UNL     1       1.915 -10.603  73.366  1.00  0.00    -0.229 N 
ENDROOT
BRANCH   8   9
HETATM    9  C6  UNL     1       1.704 -11.683  72.488  1.00  0.00     0.252 C 
HETATM   10  N4  UNL     1       2.164 -12.860  72.729  1.00  0.00    -0.232 N 
ATOM     11  H4  UNL     1       2.699 -13.021  73.582  1.00  0.00     0.198 HD
BRANCH   9  12
HETATM   12  O1  UNL     1       0.980 -11.495  71.321  1.00  0.00    -0.331 OA
ATOM     13  H1  UNL     1       0.250 -10.887  71.310  1.00  0.00     0.221 HD
ENDBRANCH   9  12
BRANCH  10  14
HETATM   14  O2  UNL     1       1.949 -13.900  71.864  1.00  0.00    -0.287 OA
ATOM     15  H2  UNL     1       2.528 -14.058  71.127  1.00  0.00     0.244 HD
ENDBRANCH  10  14
ENDBRANCH   8   9
BRANCH   1  16
HETATM   16  S1  UNL     1       4.650 -10.357  72.745  1.00  0.00    -0.092 SA
BRANCH  16  17
HETATM   17  C3  UNL     1       5.952  -9.396  73.607  1.00  0.00     0.082 C 
BRANCH  17  18
HETATM   18  C2  UNL     1       5.976  -7.971  73.098  1.00  0.00     0.006 C 
HETATM   19  C1  UNL     1       5.648  -8.000  71.632  1.00  0.00     0.006 C 
ENDBRANCH  17  18
ENDBRANCH  16  17
ENDBRANCH   1  16
TORSDOF 6
ENDMDL
MODEL 3
REMARK VINA RESULT: -4.117810545      3.288      4.359
REMARK  6 active torsions:
REMARK  status: ('A' for Active; 'I' for Inactive)
REMARK    1  A    between atoms: C2_2  and  C3_3 
REMARK    2  A    between atoms: C3_3  and  S1_4 
REMARK    3  A    between atoms: S1_4  and  C4_5 
REMARK    4  A    between atoms: N3_12  and  C6_13 
REMARK    5  A    between atoms: C6_13  and  O1_14 
REMARK    6  A    between atoms: N4_16  and  O2_18 
ROOT
HETATM    1  C4  UNL     1       0.358 -11.611  72.040  1.00  0.00     0.171 A 
HETATM    2  N1  UNL     1      -0.376 -11.827  70.936  1.00  0.00    -0.277 N 
ATOM      3  H1  UNL     1      -0.266 -12.626  70.313  1.00  0.00     0.189 HD
HETATM    4  N2  UNL     1      -1.260 -10.863  70.771  1.00  0.00    -0.274 N 
ATOM      5  H2  UNL     1      -1.941 -10.781  70.017  1.00  0.00     0.189 HD
HETATM    6  C5  UNL     1      -1.087 -10.018  71.784  1.00  0.00     0.202 A 
HETATM    7  S2  UNL     1      -1.960  -8.641  72.021  1.00  0.00    -0.038 SA
HETATM    8  N3  UNL     1      -0.099 -10.459  72.572  1.00  0.00    -0.229 N 
ENDROOT
BRANCH   8   9
HETATM    9  C6  UNL     1       0.385  -9.848  73.743  1.00  0.00     0.252 C 
HETATM   10  N4  UNL     1       1.510  -9.226  73.775  1.00  0.00    -0.232 N 
ATOM     11  H4  UNL     1       2.073  -9.170  72.926  1.00  0.00     0.198 HD
BRANCH   9  12
HETATM   12  O1  UNL     1      -0.358  -9.907  74.912  1.00  0.00    -0.331 OA
ATOM     13  H1  UNL     1      -0.135 -10.540  75.584  1.00  0.00     0.221 HD
ENDBRANCH   9  12
BRANCH  10  14
HETATM   14  O2  UNL     1       1.967  -8.636  74.924  1.00  0.00    -0.287 OA
ATOM     15  H2  UNL     1       2.615  -7.942  74.900  1.00  0.00     0.244 HD
ENDBRANCH  10  14
ENDBRANCH   8   9
BRANCH   1  16
HETATM   16  S1  UNL     1       1.693 -12.626  72.707  1.00  0.00    -0.092 SA
BRANCH  16  17
HETATM   17  C3  UNL     1       1.585 -14.257  71.875  1.00  0.00     0.082 C 
BRANCH  17  18
HETATM   18  C2  UNL     1       2.971 -14.774  71.552  1.00  0.00     0.006 C 
HETATM   19  C1  UNL     1       2.873 -16.261  71.358  1.00  0.00     0.006 C 
ENDBRANCH  17  18
ENDBRANCH  16  17
ENDBRANCH   1  16
TORSDOF 6
ENDMDL
MODEL 4
REMARK VINA RESULT: -4.095829711      3.195      4.643
REMARK  6 active torsions:
REMARK  status: ('A' for Active; 'I' for Inactive)
REMARK    1  A    between atoms: C2_2  and  C3_3 
REMARK    2  A    between atoms: C3_3  and  S1_4 
REMARK    3  A    between atoms: S1_4  and  C4_5 
REMARK    4  A    between atoms: N3_12  and  C6_13 
REMARK    5  A    between atoms: C6_13  and  O1_14 
REMARK    6  A    between atoms: N4_16  and  O2_18 
ROOT
HETATM    1  C4  UNL     1       0.230 -11.515  71.991  1.00  0.00     0.171 A 
HETATM    2  N1  UNL     1      -0.527 -11.689  70.895  1.00  0.00    -0.277 N 
ATOM      3  H1  UNL     1      -0.441 -12.472  70.248  1.00  0.00     0.189 HD
HETATM    4  N2  UNL     1      -1.396 -10.705  70.771  1.00  0.00    -0.274 N 
ATOM      5  H2  UNL     1      -2.088 -10.591  70.031  1.00  0.00     0.189 HD
HETATM    6  C5  UNL     1      -1.191  -9.892  71.803  1.00  0.00     0.202 A 
HETATM    7  S2  UNL     1      -2.036  -8.507  72.093  1.00  0.00    -0.038 SA
HETATM    8  N3  UNL     1      -0.199 -10.371  72.561  1.00  0.00    -0.229 N 
ENDROOT
BRANCH   8   9
HETATM    9  C6  UNL     1       0.316  -9.801  73.741  1.00  0.00     0.252 C 
HETATM   10  N4  UNL     1       1.470  -9.235  73.779  1.00  0.00    -0.232 N 
ATOM     11  H4  UNL     1       2.035  -9.194  72.931  1.00  0.00     0.198 HD
BRANCH   9  12
HETATM   12  O1  UNL     1      -0.428  -9.839  74.909  1.00  0.00    -0.331 OA
ATOM     13  H1  UNL     1      -0.149 -10.392  75.630  1.00  0.00     0.221 HD
ENDBRANCH   9  12
BRANCH  10  14
HETATM   14  O2  UNL     1       1.956  -8.684  74.936  1.00  0.00    -0.287 OA
ATOM     15  H2  UNL     1       1.851  -9.120  75.774  1.00  0.00     0.244 HD
ENDBRANCH  10  14
ENDBRANCH   8   9
BRANCH   1  16
HETATM   16  S1  UNL     1       1.557 -12.572  72.607  1.00  0.00    -0.092 SA
BRANCH  16  17
HETATM   17  C3  UNL     1       0.870 -14.267  72.735  1.00  0.00     0.082 C 
BRANCH  17  18
HETATM   18  C2  UNL     1       0.063 -14.411  74.008  1.00  0.00     0.006 C 
HETATM   19  C1  UNL     1       0.115 -15.853  74.426  1.00  0.00     0.006 C 
ENDBRANCH  17  18
ENDBRANCH  16  17
ENDBRANCH   1  16
TORSDOF 6
ENDMDL
MODEL 5
REMARK VINA RESULT: -4.094698133      2.800      4.976
REMARK  6 active torsions:
REMARK  status: ('A' for Active; 'I' for Inactive)
REMARK    1  A    between atoms: C2_2  and  C3_3 
REMARK    2  A    between atoms: C3_3  and  S1_4 
REMARK    3  A    between atoms: S1_4  and  C4_5 
REMARK    4  A    between atoms: N3_12  and  C6_13 
REMARK    5  A    between atoms: C6_13  and  O1_14 
REMARK    6  A    between atoms: N4_16  and  O2_18 
ROOT
HETATM    1  C4  UNL     1       2.925 -11.567  72.890  1.00  0.00     0.171 A 
HETATM    2  N1  UNL     1       4.088 -11.800  72.259  1.00  0.00    -0.277 N 
ATOM      3  H1  UNL     1       4.280 -12.616  71.680  1.00  0.00     0.189 HD
HETATM    4  N2  UNL     1       4.945 -10.827  72.495  1.00  0.00    -0.274 N 
ATOM      5  H2  UNL     1       5.899 -10.753  72.140  1.00  0.00     0.189 HD
HETATM    6  C5  UNL     1       4.321  -9.960  73.287  1.00  0.00     0.202 A 
HETATM    7  S2  UNL     1       4.983  -8.566  73.863  1.00  0.00    -0.038 SA
HETATM    8  N3  UNL     1       3.082 -10.396  73.540  1.00  0.00    -0.229 N 
ENDROOT
BRANCH   8   9
HETATM    9  C6  UNL     1       2.109  -9.764  74.335  1.00  0.00     0.252 C 
HETATM   10  N4  UNL     1       1.056  -9.226  73.829  1.00  0.00    -0.232 N 
ATOM     11  H4  UNL     1       0.917  -9.257  72.819  1.00  0.00     0.198 HD
BRANCH   9  12
HETATM   12  O1  UNL     1       2.269  -9.708  75.711  1.00  0.00    -0.331 OA
ATOM     13  H1  UNL     1       1.808  -9.047  76.215  1.00  0.00     0.221 HD
ENDBRANCH   9  12
BRANCH  10  14
HETATM   14  O2  UNL     1       0.117  -8.615  74.618  1.00  0.00    -0.287 OA
ATOM     15  H2  UNL     1      -0.759  -8.437  74.296  1.00  0.00     0.244 HD
ENDBRANCH  10  14
ENDBRANCH   8   9
BRANCH   1  16
HETATM   16  S1  UNL     1       1.435 -12.586  72.892  1.00  0.00    -0.092 SA
BRANCH  16  17
HETATM   17  C3  UNL     1       1.868 -14.160  72.058  1.00  0.00     0.082 C 
BRANCH  17  18
HETATM   18  C2  UNL     1       0.965 -15.276  72.540  1.00  0.00     0.006 C 
HETATM   19  C1  UNL     1       0.285 -14.807  73.795  1.00  0.00     0.006 C 
ENDBRANCH  17  18
ENDBRANCH  16  17
ENDBRANCH   1  16
TORSDOF 6
ENDMDL
