MODEL 1
REMARK VINA RESULT: -4.871542365      0.000      0.000
REMARK  2 active torsions:
REMARK  status: ('A' for Active; 'I' for Inactive)
REMARK    1  A    between atoms: N2_4  and  N3_6 
REMARK    2  A    between atoms: N4_8  and  C1_10 
ROOT
HETATM    1  N3  UNL     1      25.093  39.361  45.538  1.00  0.00    -0.233 N 
ATOM      2  H3  UNL     1      25.530  40.281  45.485  1.00  0.00     0.209 HD
HETATM    3  N4  UNL     1      25.831  38.316  45.571  1.00  0.00    -0.313 N 
ATOM      4  H4  UNL     1      25.416  37.386  45.624  1.00  0.00     0.182 HD
ENDROOT
BRANCH   3   5
HETATM    5  C1  UNL     1      27.239  38.481  45.532  1.00  0.00     0.152 C 
HETATM    6  C2  UNL     1      28.040  37.190  45.310  1.00  0.00     0.260 C 
HETATM    7  N5  UNL     1      29.080  37.855  46.111  1.00  0.00    -0.071 N 
HETATM    8  C3  UNL     1      27.957  38.423  46.879  1.00  0.00     0.260 C 
ATOM      9  H52 UNL     1      29.834  37.335  46.560  1.00  0.00     0.277 HD
ATOM     10  H51 UNL     1      29.798  38.442  45.686  1.00  0.00     0.277 HD
ENDBRANCH   3   5
BRANCH   1  11
HETATM   11  N2  UNL     1      23.697  39.264  45.574  1.00  0.00    -0.235 N 
HETATM   12  N1  UNL     1      23.028  40.213  45.069  1.00  0.00    -0.330 N 
ATOM     13  H12 UNL     1      23.506  41.013  44.653  1.00  0.00     0.178 HD
ATOM     14  H11 UNL     1      22.011  40.143  45.094  1.00  0.00     0.178 HD
ATOM     15  H2  UNL     1      23.234  38.457  45.992  1.00  0.00     0.209 HD
ENDBRANCH   1  11
TORSDOF 2
ENDMDL
MODEL 2
REMARK VINA RESULT: -4.773704830      0.985      1.476
REMARK  2 active torsions:
REMARK  status: ('A' for Active; 'I' for Inactive)
REMARK    1  A    between atoms: N2_4  and  N3_6 
REMARK    2  A    between atoms: N4_8  and  C1_10 
ROOT
HETATM    1  N3  UNL     1      24.297  39.776  45.876  1.00  0.00    -0.233 N 
ATOM      2  H3  UNL     1      24.569  40.354  46.671  1.00  0.00     0.209 HD
HETATM    3  N4  UNL     1      25.034  38.786  45.538  1.00  0.00    -0.313 N 
ATOM      4  H4  UNL     1      24.782  38.195  44.746  1.00  0.00     0.182 HD
ENDROOT
BRANCH   3   5
HETATM    5  C1  UNL     1      26.210  38.530  46.290  1.00  0.00     0.152 C 
HETATM    6  C2  UNL     1      27.243  39.666  46.287  1.00  0.00     0.260 C 
HETATM    7  N5  UNL     1      28.233  38.586  46.425  1.00  0.00    -0.071 N 
HETATM    8  C3  UNL     1      27.335  37.813  45.548  1.00  0.00     0.260 C 
ATOM      9  H52 UNL     1      29.219  38.723  46.204  1.00  0.00     0.277 HD
ATOM     10  H51 UNL     1      28.531  38.238  47.337  1.00  0.00     0.277 HD
ENDBRANCH   3   5
BRANCH   1  11
HETATM   11  N2  UNL     1      23.124  40.080  45.174  1.00  0.00    -0.235 N 
HETATM   12  N1  UNL     1      22.669  41.257  45.271  1.00  0.00    -0.330 N 
ATOM     13  H12 UNL     1      23.153  41.948  45.844  1.00  0.00     0.178 HD
ATOM     14  H11 UNL     1      21.815  41.479  44.760  1.00  0.00     0.178 HD
ATOM     15  H2  UNL     1      22.653  39.377  44.605  1.00  0.00     0.209 HD
ENDBRANCH   1  11
TORSDOF 2
ENDMDL
MODEL 3
REMARK VINA RESULT: -4.550427564      0.817      1.279
REMARK  2 active torsions:
REMARK  status: ('A' for Active; 'I' for Inactive)
REMARK    1  A    between atoms: N2_4  and  N3_6 
REMARK    2  A    between atoms: N4_8  and  C1_10 
ROOT
HETATM    1  N3  UNL     1      24.979  38.402  45.904  1.00  0.00    -0.233 N 
ATOM      2  H3  UNL     1      24.767  37.424  46.104  1.00  0.00     0.209 HD
HETATM    3  N4  UNL     1      26.195  38.800  45.940  1.00  0.00    -0.313 N 
ATOM      4  H4  UNL     1      26.430  39.772  45.744  1.00  0.00     0.182 HD
ENDROOT
BRANCH   3   5
HETATM    5  C1  UNL     1      27.206  37.857  46.258  1.00  0.00     0.152 C 
HETATM    6  C2  UNL     1      28.546  38.464  46.696  1.00  0.00     0.260 C 
HETATM    7  N5  UNL     1      29.137  37.258  46.096  1.00  0.00    -0.071 N 
HETATM    8  C3  UNL     1      28.065  37.379  45.090  1.00  0.00     0.260 C 
ATOM      9  H52 UNL     1      30.122  37.209  45.834  1.00  0.00     0.277 HD
ATOM     10  H51 UNL     1      29.283  36.402  46.631  1.00  0.00     0.277 HD
ENDBRANCH   3   5
BRANCH   1  11
HETATM   11  N2  UNL     1      23.936  39.283  45.597  1.00  0.00    -0.235 N 
HETATM   12  N1  UNL     1      23.905  40.393  46.204  1.00  0.00    -0.330 N 
ATOM     13  H12 UNL     1      24.624  40.623  46.890  1.00  0.00     0.178 HD
ATOM     14  H11 UNL     1      23.145  41.036  45.980  1.00  0.00     0.178 HD
ATOM     15  H2  UNL     1      23.225  39.039  44.907  1.00  0.00     0.209 HD
ENDBRANCH   1  11
TORSDOF 2
ENDMDL
MODEL 4
REMARK VINA RESULT: -4.324501155      1.822      4.460
REMARK  2 active torsions:
REMARK  status: ('A' for Active; 'I' for Inactive)
REMARK    1  A    between atoms: N2_4  and  N3_6 
REMARK    2  A    between atoms: N4_8  and  C1_10 
ROOT
HETATM    1  N3  UNL     1      27.906  37.514  45.942  1.00  0.00    -0.233 N 
ATOM      2  H3  UNL     1      28.189  37.812  46.876  1.00  0.00     0.209 HD
HETATM    3  N4  UNL     1      26.741  37.823  45.511  1.00  0.00    -0.313 N 
ATOM      4  H4  UNL     1      26.436  37.536  44.582  1.00  0.00     0.182 HD
ENDROOT
BRANCH   3   5
HETATM    5  C1  UNL     1      25.885  38.574  46.357  1.00  0.00     0.152 C 
HETATM    6  C2  UNL     1      24.397  38.529  45.981  1.00  0.00     0.260 C 
HETATM    7  N5  UNL     1      24.348  39.883  46.555  1.00  0.00    -0.071 N 
HETATM    8  C3  UNL     1      25.699  40.043  45.986  1.00  0.00     0.260 C 
ATOM      9  H52 UNL     1      23.591  40.534  46.344  1.00  0.00     0.277 HD
ATOM     10  H51 UNL     1      24.154  40.046  47.543  1.00  0.00     0.277 HD
ENDBRANCH   3   5
BRANCH   1  11
HETATM   11  N2  UNL     1      28.797  36.774  45.155  1.00  0.00    -0.235 N 
HETATM   12  N1  UNL     1      29.486  35.881  45.729  1.00  0.00    -0.330 N 
ATOM     13  H12 UNL     1      29.382  35.717  46.731  1.00  0.00     0.178 HD
ATOM     14  H11 UNL     1      30.136  35.342  45.156  1.00  0.00     0.178 HD
ATOM     15  H2  UNL     1      28.888  36.950  44.155  1.00  0.00     0.209 HD
ENDBRANCH   1  11
TORSDOF 2
ENDMDL
MODEL 5
REMARK VINA RESULT: -4.323735927      1.751      4.393
REMARK  2 active torsions:
REMARK  status: ('A' for Active; 'I' for Inactive)
REMARK    1  A    between atoms: N2_4  and  N3_6 
REMARK    2  A    between atoms: N4_8  and  C1_10 
ROOT
HETATM    1  N3  UNL     1      27.776  37.221  44.821  1.00  0.00    -0.233 N 
ATOM      2  H3  UNL     1      27.382  37.312  43.884  1.00  0.00     0.209 HD
HETATM    3  N4  UNL     1      27.250  37.870  45.790  1.00  0.00    -0.313 N 
ATOM      4  H4  UNL     1      27.627  37.794  46.734  1.00  0.00     0.182 HD
ENDROOT
BRANCH   3   5
HETATM    5  C1  UNL     1      26.129  38.696  45.520  1.00  0.00     0.152 C 
HETATM    6  C2  UNL     1      26.078  40.006  46.320  1.00  0.00     0.260 C 
HETATM    7  N5  UNL     1      24.618  39.858  46.214  1.00  0.00    -0.071 N 
HETATM    8  C3  UNL     1      24.875  38.412  46.343  1.00  0.00     0.260 C 
ATOM      9  H52 UNL     1      23.977  40.352  46.836  1.00  0.00     0.277 HD
ATOM     10  H51 UNL     1      24.089  40.247  45.433  1.00  0.00     0.277 HD
ENDBRANCH   3   5
BRANCH   1  11
HETATM   11  N2  UNL     1      28.884  36.389  45.022  1.00  0.00    -0.235 N 
HETATM   12  N1  UNL     1      29.379  36.340  46.186  1.00  0.00    -0.330 N 
ATOM     13  H12 UNL     1      28.972  36.893  46.941  1.00  0.00     0.178 HD
ATOM     14  H11 UNL     1      30.186  35.733  46.333  1.00  0.00     0.178 HD
ATOM     15  H2  UNL     1      29.278  35.841  44.257  1.00  0.00     0.209 HD
ENDBRANCH   1  11
TORSDOF 2
ENDMDL
