MODEL 1
REMARK VINA RESULT: -4.342281231      0.000      0.000
REMARK  1 active torsions:
REMARK  status: ('A' for Active; 'I' for Inactive)
REMARK    1  A    between atoms: N2_3  and  N3_5 
ROOT
HETATM    1  N3  UNL     1      27.149  37.593  45.274  1.00  0.00    -0.287 N 
ATOM      2  H3  UNL     1      27.071  36.776  44.668  1.00  0.00     0.188 HD
HETATM    3  C2  UNL     1      28.127  37.702  46.092  1.00  0.00     0.110 A 
HETATM    4  C3  UNL     1      28.851  38.443  47.139  1.00  0.00     0.198 A 
HETATM    5  N4  UNL     1      29.377  37.147  46.673  1.00  0.00    -0.370 N 
ATOM      6  H4  UNL     1      30.081  36.410  46.717  1.00  0.00     0.161 HD
ENDROOT
BRANCH   1   7
HETATM    7  N2  UNL     1      26.192  38.607  45.222  1.00  0.00    -0.297 N 
HETATM    8  C1  UNL     1      25.234  38.567  46.086  1.00  0.00     0.206 C 
HETATM    9  N1  UNL     1      24.274  39.606  46.014  1.00  0.00    -0.095 NA
ATOM     10  H2  UNL     1      26.247  39.351  44.526  1.00  0.00     0.187 HD
ENDBRANCH   1   7
TORSDOF 1
ENDMDL
MODEL 2
REMARK VINA RESULT: -4.337093409      1.012      1.333
REMARK  1 active torsions:
REMARK  status: ('A' for Active; 'I' for Inactive)
REMARK    1  A    between atoms: N2_3  and  N3_5 
ROOT
HETATM    1  N3  UNL     1      27.000  38.289  46.400  1.00  0.00    -0.287 N 
ATOM      2  H3  UNL     1      27.123  38.795  47.278  1.00  0.00     0.188 HD
HETATM    3  C2  UNL     1      27.950  37.574  45.926  1.00  0.00     0.110 A 
HETATM    4  C3  UNL     1      28.491  36.678  44.890  1.00  0.00     0.198 A 
HETATM    5  N4  UNL     1      29.335  37.047  46.041  1.00  0.00    -0.370 N 
ATOM      6  H4  UNL     1      30.219  36.985  46.546  1.00  0.00     0.161 HD
ENDROOT
BRANCH   1   7
HETATM    7  N2  UNL     1      25.795  38.366  45.702  1.00  0.00    -0.297 N 
HETATM    8  C1  UNL     1      24.796  38.927  46.297  1.00  0.00     0.206 C 
HETATM    9  N1  UNL     1      23.583  38.993  45.569  1.00  0.00    -0.095 NA
ATOM     10  H2  UNL     1      25.706  37.992  44.757  1.00  0.00     0.187 HD
ENDBRANCH   1   7
TORSDOF 1
ENDMDL
MODEL 3
REMARK VINA RESULT: -4.189979402      1.692      2.335
REMARK  1 active torsions:
REMARK  status: ('A' for Active; 'I' for Inactive)
REMARK    1  A    between atoms: N2_3  and  N3_5 
ROOT
HETATM    1  N3  UNL     1      24.745  38.179  46.061  1.00  0.00    -0.287 N 
ATOM      2  H3  UNL     1      24.413  37.300  46.459  1.00  0.00     0.188 HD
HETATM    3  C2  UNL     1      25.998  38.430  46.001  1.00  0.00     0.110 A 
HETATM    4  C3  UNL     1      27.115  39.318  45.636  1.00  0.00     0.198 A 
HETATM    5  N4  UNL     1      27.401  38.014  46.262  1.00  0.00    -0.370 N 
ATOM      6  H4  UNL     1      28.069  37.330  46.616  1.00  0.00     0.161 HD
ENDROOT
BRANCH   1   7
HETATM    7  N2  UNL     1      23.839  39.122  45.575  1.00  0.00    -0.297 N 
HETATM    8  C1  UNL     1      23.851  40.293  46.116  1.00  0.00     0.206 C 
HETATM    9  N1  UNL     1      22.922  41.234  45.606  1.00  0.00    -0.095 NA
ATOM     10  H2  UNL     1      23.192  38.894  44.820  1.00  0.00     0.187 HD
ENDBRANCH   1   7
TORSDOF 1
ENDMDL
MODEL 4
REMARK VINA RESULT: -4.097635076      1.133      4.040
REMARK  1 active torsions:
REMARK  status: ('A' for Active; 'I' for Inactive)
REMARK    1  A    between atoms: N2_3  and  N3_5 
ROOT
HETATM    1  N3  UNL     1      26.680  39.116  45.632  1.00  0.00    -0.287 N 
ATOM      2  H3  UNL     1      27.293  39.921  45.761  1.00  0.00     0.188 HD
HETATM    3  C2  UNL     1      25.438  39.193  45.932  1.00  0.00     0.110 A 
HETATM    4  C3  UNL     1      24.099  38.587  46.029  1.00  0.00     0.198 A 
HETATM    5  N4  UNL     1      24.293  39.988  46.447  1.00  0.00    -0.370 N 
ATOM      6  H4  UNL     1      23.917  40.861  46.817  1.00  0.00     0.161 HD
ENDROOT
BRANCH   1   7
HETATM    7  N2  UNL     1      27.183  37.917  45.126  1.00  0.00    -0.297 N 
HETATM    8  C1  UNL     1      28.260  37.450  45.661  1.00  0.00     0.206 C 
HETATM    9  N1  UNL     1      28.752  36.231  45.130  1.00  0.00    -0.095 NA
ATOM     10  H2  UNL     1      26.716  37.428  44.362  1.00  0.00     0.187 HD
ENDBRANCH   1   7
TORSDOF 1
ENDMDL
MODEL 5
REMARK VINA RESULT: -3.842309976      1.286      3.980
REMARK  1 active torsions:
REMARK  status: ('A' for Active; 'I' for Inactive)
REMARK    1  A    between atoms: N2_3  and  N3_5 
ROOT
HETATM    1  N3  UNL     1      26.486  38.257  45.778  1.00  0.00    -0.287 N 
ATOM      2  H3  UNL     1      26.619  37.370  45.292  1.00  0.00     0.188 HD
HETATM    3  C2  UNL     1      25.319  38.770  45.883  1.00  0.00     0.110 A 
HETATM    4  C3  UNL     1      24.422  39.841  46.352  1.00  0.00     0.198 A 
HETATM    5  N4  UNL     1      23.860  38.699  45.607  1.00  0.00    -0.370 N 
ATOM      6  H4  UNL     1      23.059  38.215  45.201  1.00  0.00     0.161 HD
ENDROOT
BRANCH   1   7
HETATM    7  N2  UNL     1      27.575  38.927  46.337  1.00  0.00    -0.297 N 
HETATM    8  C1  UNL     1      28.393  38.236  47.058  1.00  0.00     0.206 C 
HETATM    9  N1  UNL     1      29.491  38.937  47.616  1.00  0.00    -0.095 NA
ATOM     10  H2  UNL     1      27.718  39.925  46.183  1.00  0.00     0.187 HD
ENDBRANCH   1   7
TORSDOF 1
ENDMDL
