MODEL 1
REMARK VINA RESULT: -3.936765635      0.000      0.000
REMARK  2 active torsions:
REMARK  status: ('A' for Active; 'I' for Inactive)
REMARK    1  A    between atoms: O1_1  and  N1_3 
REMARK    2  A    between atoms: N3_7  and  O2_8 
ROOT
HETATM    1  N1  UNL     1      28.410  38.835  46.365  1.00  0.00    -0.211 N 
HETATM    2  C1  UNL     1      27.148  38.901  45.885  1.00  0.00     0.233 A 
HETATM    3  N2  UNL     1      26.940  37.773  45.195  1.00  0.00    -0.267 N 
ATOM      4  H2  UNL     1      26.068  37.545  44.717  1.00  0.00     0.190 HD
HETATM    5  N3  UNL     1      28.006  36.993  45.212  1.00  0.00    -0.156 N 
HETATM    6  C2  UNL     1      28.921  37.659  45.942  1.00  0.00     0.267 A 
ENDROOT
BRANCH   1   7
HETATM    7  O1  UNL     1      29.087  39.758  47.136  1.00  0.00    -0.281 OA
ATOM      8  H1  UNL     1      29.617  40.493  46.851  1.00  0.00     0.245 HD
ENDBRANCH   1   7
BRANCH   5   9
HETATM    9  O2  UNL     1      28.220  35.774  44.645  1.00  0.00    -0.267 OA
ATOM     10  H2  UNL     1      27.752  34.954  44.748  1.00  0.00     0.247 HD
ENDBRANCH   5   9
TORSDOF 2
ENDMDL
MODEL 2
REMARK VINA RESULT: -3.805475419      3.547      4.327
REMARK  2 active torsions:
REMARK  status: ('A' for Active; 'I' for Inactive)
REMARK    1  A    between atoms: O1_1  and  N1_3 
REMARK    2  A    between atoms: N3_7  and  O2_8 
ROOT
HETATM    1  N1  UNL     1      25.775  38.955  46.040  1.00  0.00    -0.211 N 
HETATM    2  C1  UNL     1      24.851  38.008  45.764  1.00  0.00     0.233 A 
HETATM    3  N2  UNL     1      23.717  38.654  45.466  1.00  0.00    -0.267 N 
ATOM      4  H2  UNL     1      22.842  38.193  45.215  1.00  0.00     0.190 HD
HETATM    5  N3  UNL     1      23.874  39.964  45.539  1.00  0.00    -0.156 N 
HETATM    6  C2  UNL     1      25.158  40.148  45.898  1.00  0.00     0.267 A 
ENDROOT
BRANCH   1   7
HETATM    7  O1  UNL     1      27.097  38.788  46.401  1.00  0.00    -0.281 OA
ATOM      8  H1  UNL     1      27.870  38.830  45.851  1.00  0.00     0.245 HD
ENDBRANCH   1   7
BRANCH   5   9
HETATM    9  O2  UNL     1      22.989  40.975  45.319  1.00  0.00    -0.267 OA
ATOM     10  H2  UNL     1      23.116  41.917  45.312  1.00  0.00     0.247 HD
ENDBRANCH   5   9
TORSDOF 2
ENDMDL
MODEL 3
REMARK VINA RESULT: -3.797962730      8.105      8.739
REMARK  2 active torsions:
REMARK  status: ('A' for Active; 'I' for Inactive)
REMARK    1  A    between atoms: O1_1  and  N1_3 
REMARK    2  A    between atoms: N3_7  and  O2_8 
ROOT
HETATM    1  N1  UNL     1      21.927  39.074  40.739  1.00  0.00    -0.211 N 
HETATM    2  C1  UNL     1      21.125  40.145  40.928  1.00  0.00     0.233 A 
HETATM    3  N2  UNL     1      21.604  41.126  40.154  1.00  0.00    -0.267 N 
ATOM      4  H2  UNL     1      21.198  42.060  40.091  1.00  0.00     0.190 HD
HETATM    5  N3  UNL     1      22.671  40.732  39.482  1.00  0.00    -0.156 N 
HETATM    6  C2  UNL     1      22.869  39.452  39.849  1.00  0.00     0.267 A 
ENDROOT
BRANCH   1   7
HETATM    7  O1  UNL     1      21.842  37.823  41.315  1.00  0.00    -0.281 OA
ATOM      8  H1  UNL     1      21.941  37.584  42.229  1.00  0.00     0.245 HD
ENDBRANCH   1   7
BRANCH   5   9
HETATM    9  O2  UNL     1      23.457  41.404  38.595  1.00  0.00    -0.267 OA
ATOM     10  H2  UNL     1      24.029  41.081  37.908  1.00  0.00     0.247 HD
ENDBRANCH   5   9
TORSDOF 2
ENDMDL
MODEL 4
REMARK VINA RESULT: -3.767425168      1.222      1.616
REMARK  2 active torsions:
REMARK  status: ('A' for Active; 'I' for Inactive)
REMARK    1  A    between atoms: O1_1  and  N1_3 
REMARK    2  A    between atoms: N3_7  and  O2_8 
ROOT
HETATM    1  N1  UNL     1      27.816  38.973  46.030  1.00  0.00    -0.211 N 
HETATM    2  C1  UNL     1      28.918  38.521  46.669  1.00  0.00     0.233 A 
HETATM    3  N2  UNL     1      29.157  37.291  46.198  1.00  0.00    -0.267 N 
ATOM      4  H2  UNL     1      29.932  36.700  46.500  1.00  0.00     0.190 HD
HETATM    5  N3  UNL     1      28.263  36.939  45.292  1.00  0.00    -0.156 N 
HETATM    6  C2  UNL     1      27.428  37.990  45.190  1.00  0.00     0.267 A 
ENDROOT
BRANCH   1   7
HETATM    7  O1  UNL     1      27.177  40.188  46.172  1.00  0.00    -0.281 OA
ATOM      8  H1  UNL     1      26.436  40.527  45.685  1.00  0.00     0.245 HD
ENDBRANCH   1   7
BRANCH   5   9
HETATM    9  O2  UNL     1      28.136  35.789  44.572  1.00  0.00    -0.267 OA
ATOM     10  H2  UNL     1      28.718  35.043  44.493  1.00  0.00     0.247 HD
ENDBRANCH   5   9
TORSDOF 2
ENDMDL
MODEL 5
REMARK VINA RESULT: -3.717213127      1.185      3.178
REMARK  2 active torsions:
REMARK  status: ('A' for Active; 'I' for Inactive)
REMARK    1  A    between atoms: O1_1  and  N1_3 
REMARK    2  A    between atoms: N3_7  and  O2_8 
ROOT
HETATM    1  N1  UNL     1      28.185  36.974  45.402  1.00  0.00    -0.211 N 
HETATM    2  C1  UNL     1      28.958  37.275  46.468  1.00  0.00     0.233 A 
HETATM    3  N2  UNL     1      28.619  38.512  46.851  1.00  0.00    -0.267 N 
ATOM      4  H2  UNL     1      29.041  39.006  47.638  1.00  0.00     0.190 HD
HETATM    5  N3  UNL     1      27.669  39.012  46.082  1.00  0.00    -0.156 N 
HETATM    6  C2  UNL     1      27.401  38.051  45.179  1.00  0.00     0.267 A 
ENDROOT
BRANCH   1   7
HETATM    7  O1  UNL     1      28.163  35.813  44.655  1.00  0.00    -0.281 OA
ATOM      8  H1  UNL     1      27.426  35.406  44.215  1.00  0.00     0.245 HD
ENDBRANCH   1   7
BRANCH   5   9
HETATM    9  O2  UNL     1      27.043  40.221  46.120  1.00  0.00    -0.267 OA
ATOM     10  H2  UNL     1      26.144  40.445  46.329  1.00  0.00     0.247 HD
ENDBRANCH   5   9
TORSDOF 2
ENDMDL
