MODEL 1
REMARK VINA RESULT: -5.024987744      0.000      0.000
REMARK  1 active torsions:
REMARK  status: ('A' for Active; 'I' for Inactive)
REMARK       I    between atoms: C2_5  and  N4_7 
REMARK    1  A    between atoms: C3_9  and  O1_10 
ROOT
HETATM    1  N1  UNL     1      23.664  39.429  45.185  1.00  0.00    -0.172 NA
HETATM    2  C1  UNL     1      24.543  38.727  45.486  1.00  0.00     0.184 C 
HETATM    3  N2  UNL     1      25.602  37.876  45.824  1.00  0.00    -0.267 N 
ATOM      4  H2  UNL     1      25.430  36.875  45.919  1.00  0.00     0.180 HD
HETATM    5  C2  UNL     1      26.810  38.339  46.022  1.00  0.00     0.202 C 
HETATM    6  N3  UNL     1      27.013  39.729  45.881  1.00  0.00    -0.062 NA
HETATM    7  N4  UNL     1      27.872  37.485  46.360  1.00  0.00    -0.321 N 
ATOM      8  H4  UNL     1      28.208  37.503  47.323  1.00  0.00     0.169 HD
HETATM    9  C3  UNL     1      28.451  36.681  45.539  1.00  0.00     0.225 C 
ENDROOT
BRANCH   9  10
HETATM   10  O1  UNL     1      28.080  36.572  44.205  1.00  0.00    -0.356 OA
ATOM     11  H1  UNL     1      27.814  35.749  43.810  1.00  0.00     0.218 HD
ENDBRANCH   9  10
TORSDOF 1
ENDMDL
MODEL 2
REMARK VINA RESULT: -4.272981851      2.529      4.236
REMARK  1 active torsions:
REMARK  status: ('A' for Active; 'I' for Inactive)
REMARK       I    between atoms: C2_5  and  N4_7 
REMARK    1  A    between atoms: C3_9  and  O1_10 
ROOT
HETATM    1  N1  UNL     1      27.760  37.557  44.865  1.00  0.00    -0.172 NA
HETATM    2  C1  UNL     1      26.969  38.392  45.050  1.00  0.00     0.184 C 
HETATM    3  N2  UNL     1      26.006  39.388  45.251  1.00  0.00    -0.267 N 
ATOM      4  H2  UNL     1      26.080  40.266  44.737  1.00  0.00     0.180 HD
HETATM    5  C2  UNL     1      25.014  39.216  46.087  1.00  0.00     0.202 C 
HETATM    6  N3  UNL     1      24.943  37.989  46.780  1.00  0.00    -0.062 NA
HETATM    7  N4  UNL     1      24.048  40.216  46.288  1.00  0.00    -0.321 N 
ATOM      8  H4  UNL     1      24.084  40.742  47.161  1.00  0.00     0.169 HD
HETATM    9  C3  UNL     1      23.122  40.514  45.446  1.00  0.00     0.225 C 
ENDROOT
BRANCH   9  10
HETATM   10  O1  UNL     1      22.976  39.866  44.226  1.00  0.00    -0.356 OA
ATOM     11  H1  UNL     1      22.154  39.485  43.941  1.00  0.00     0.218 HD
ENDBRANCH   9  10
TORSDOF 1
ENDMDL
MODEL 3
REMARK VINA RESULT: -4.154381484      2.415      3.992
REMARK  1 active torsions:
REMARK  status: ('A' for Active; 'I' for Inactive)
REMARK       I    between atoms: C2_5  and  N4_7 
REMARK    1  A    between atoms: C3_9  and  O1_10 
ROOT
HETATM    1  N1  UNL     1      29.332  38.369  46.974  1.00  0.00    -0.172 NA
HETATM    2  C1  UNL     1      28.179  38.274  46.839  1.00  0.00     0.184 C 
HETATM    3  N2  UNL     1      26.790  38.183  46.685  1.00  0.00    -0.267 N 
ATOM      4  H2  UNL     1      26.210  37.973  47.497  1.00  0.00     0.180 HD
HETATM    5  C2  UNL     1      26.221  38.362  45.521  1.00  0.00     0.202 C 
HETATM    6  N3  UNL     1      27.054  38.652  44.419  1.00  0.00    -0.062 NA
HETATM    7  N4  UNL     1      24.828  38.270  45.368  1.00  0.00    -0.321 N 
ATOM      8  H4  UNL     1      24.454  37.442  44.905  1.00  0.00     0.169 HD
HETATM    9  C3  UNL     1      23.991  39.161  45.772  1.00  0.00     0.225 C 
ENDROOT
BRANCH   9  10
HETATM   10  O1  UNL     1      24.385  40.328  46.414  1.00  0.00    -0.356 OA
ATOM     11  H1  UNL     1      23.891  40.715  47.127  1.00  0.00     0.218 HD
ENDBRANCH   9  10
TORSDOF 1
ENDMDL
MODEL 4
REMARK VINA RESULT: -4.112745261      1.176      1.176
REMARK  1 active torsions:
REMARK  status: ('A' for Active; 'I' for Inactive)
REMARK       I    between atoms: C2_5  and  N4_7 
REMARK    1  A    between atoms: C3_9  and  O1_10 
ROOT
HETATM    1  N1  UNL     1      23.825  38.316  45.487  1.00  0.00    -0.172 NA
HETATM    2  C1  UNL     1      24.888  38.217  45.954  1.00  0.00     0.184 C 
HETATM    3  N2  UNL     1      26.167  38.073  46.505  1.00  0.00    -0.267 N 
ATOM      4  H2  UNL     1      26.281  37.553  47.375  1.00  0.00     0.180 HD
HETATM    5  C2  UNL     1      27.219  38.594  45.926  1.00  0.00     0.202 C 
HETATM    6  N3  UNL     1      27.024  39.305  44.723  1.00  0.00    -0.062 NA
HETATM    7  N4  UNL     1      28.502  38.449  46.480  1.00  0.00    -0.321 N 
ATOM      8  H4  UNL     1      28.920  39.263  46.929  1.00  0.00     0.169 HD
HETATM    9  C3  UNL     1      29.186  37.359  46.459  1.00  0.00     0.225 C 
ENDROOT
BRANCH   9  10
HETATM   10  O1  UNL     1      28.719  36.188  45.875  1.00  0.00    -0.356 OA
ATOM     11  H1  UNL     1      27.843  36.106  45.516  1.00  0.00     0.218 HD
ENDBRANCH   9  10
TORSDOF 1
ENDMDL
MODEL 5
REMARK VINA RESULT: -4.066740370      1.879      2.285
REMARK  1 active torsions:
REMARK  status: ('A' for Active; 'I' for Inactive)
REMARK       I    between atoms: C2_5  and  N4_7 
REMARK    1  A    between atoms: C3_9  and  O1_10 
ROOT
HETATM    1  N1  UNL     1      24.878  38.207  45.643  1.00  0.00    -0.172 NA
HETATM    2  C1  UNL     1      25.975  38.181  46.031  1.00  0.00     0.184 C 
HETATM    3  N2  UNL     1      27.291  38.128  46.509  1.00  0.00    -0.267 N 
ATOM      4  H2  UNL     1      27.486  38.416  47.468  1.00  0.00     0.180 HD
HETATM    5  C2  UNL     1      28.274  37.717  45.750  1.00  0.00     0.202 C 
HETATM    6  N3  UNL     1      27.967  37.325  44.430  1.00  0.00    -0.062 NA
HETATM    7  N4  UNL     1      29.593  37.664  46.231  1.00  0.00    -0.321 N 
ATOM      8  H4  UNL     1      30.248  38.373  45.901  1.00  0.00     0.169 HD
HETATM    9  C3  UNL     1      30.031  36.783  47.060  1.00  0.00     0.225 C 
ENDROOT
BRANCH   9  10
HETATM   10  O1  UNL     1      29.231  35.771  47.577  1.00  0.00    -0.356 OA
ATOM     11  H1  UNL     1      29.576  35.065  48.111  1.00  0.00     0.218 HD
ENDBRANCH   9  10
TORSDOF 1
ENDMDL
