MODEL 1
REMARK VINA RESULT: -4.882047576      0.000      0.000
REMARK  2 active torsions:
REMARK  status: ('A' for Active; 'I' for Inactive)
REMARK    1  A    between atoms: C2_2  and  O1_3 
REMARK       I    between atoms: N1_5  and  C3_7 
REMARK       I    between atoms: C3_7  and  N3_11 
REMARK    2  A    between atoms: N4_13  and  N5_15 
ROOT
HETATM    1  C1  UNL     1      28.192  37.932  47.164  1.00  0.00     0.098 C 
HETATM    2  C2  UNL     1      27.156  38.385  46.207  1.00  0.00     0.127 C 
HETATM    3  N1  UNL     1      25.975  38.577  46.671  1.00  0.00    -0.174 N 
ATOM      4  H1  UNL     1      25.819  38.408  47.665  1.00  0.00     0.186 HD
HETATM    5  C3  UNL     1      24.871  39.009  45.891  1.00  0.00     0.693 C 
HETATM    6  N2  UNL     1      24.272  38.164  45.132  1.00  0.00    -0.233 N 
ATOM      7  H21 UNL     1      23.479  38.475  44.571  1.00  0.00     0.174 HD
ATOM      8  H22 UNL     1      24.553  37.186  45.062  1.00  0.00     0.174 HD
HETATM    9  N3  UNL     1      24.482  40.360  45.988  1.00  0.00    -0.118 N 
ATOM     10  H3  UNL     1      25.083  40.982  46.529  1.00  0.00     0.207 HD
HETATM   11  N4  UNL     1      23.454  40.861  45.462  1.00  0.00    -0.235 N 
ATOM     12  H4  UNL     1      23.257  41.854  45.591  1.00  0.00     0.208 HD
ENDROOT
BRANCH   2  13
HETATM   13  O1  UNL     1      27.394  38.609  44.865  1.00  0.00    -0.349 OA
ATOM     14  H1  UNL     1      26.815  38.320  44.170  1.00  0.00     0.219 HD
ENDBRANCH   2  13
BRANCH  11  15
HETATM   15  N5  UNL     1      22.587  40.085  44.712  1.00  0.00    -0.330 N 
ATOM     16  H52 UNL     1      22.174  39.260  45.146  1.00  0.00     0.178 HD
ATOM     17  H51 UNL     1      22.364  40.330  43.747  1.00  0.00     0.178 HD
ENDBRANCH  11  15
TORSDOF 2
ENDMDL
MODEL 2
REMARK VINA RESULT: -4.788556610      2.424      4.534
REMARK  2 active torsions:
REMARK  status: ('A' for Active; 'I' for Inactive)
REMARK    1  A    between atoms: C2_2  and  O1_3 
REMARK       I    between atoms: N1_5  and  C3_7 
REMARK       I    between atoms: C3_7  and  N3_11 
REMARK    2  A    between atoms: N4_13  and  N5_15 
ROOT
HETATM    1  C1  UNL     1      23.954  39.865  45.595  1.00  0.00     0.098 C 
HETATM    2  C2  UNL     1      24.937  38.777  45.808  1.00  0.00     0.127 C 
HETATM    3  N1  UNL     1      26.176  39.069  45.645  1.00  0.00    -0.174 N 
ATOM      4  H1  UNL     1      26.410  40.026  45.381  1.00  0.00     0.186 HD
HETATM    5  C3  UNL     1      27.242  38.147  45.809  1.00  0.00     0.693 C 
HETATM    6  N2  UNL     1      27.477  37.291  44.881  1.00  0.00    -0.233 N 
ATOM      7  H21 UNL     1      28.243  36.628  44.999  1.00  0.00     0.174 HD
ATOM      8  H22 UNL     1      26.930  37.242  44.021  1.00  0.00     0.174 HD
HETATM    9  N3  UNL     1      27.997  38.214  46.996  1.00  0.00    -0.118 N 
ATOM     10  H3  UNL     1      27.669  38.849  47.724  1.00  0.00     0.207 HD
HETATM   11  N4  UNL     1      29.043  37.555  47.231  1.00  0.00    -0.235 N 
ATOM     12  H4  UNL     1      29.523  37.675  48.124  1.00  0.00     0.208 HD
ENDROOT
BRANCH   2  13
HETATM   13  O1  UNL     1      24.592  37.489  46.167  1.00  0.00    -0.349 OA
ATOM     14  H1  UNL     1      23.865  37.277  46.741  1.00  0.00     0.219 HD
ENDBRANCH   2  13
BRANCH  11  15
HETATM   15  N5  UNL     1      29.555  36.672  46.297  1.00  0.00    -0.330 N 
ATOM     16  H52 UNL     1      30.561  36.670  46.128  1.00  0.00     0.178 HD
ATOM     17  H51 UNL     1      28.943  36.035  45.786  1.00  0.00     0.178 HD
ENDBRANCH  11  15
TORSDOF 2
ENDMDL
MODEL 3
REMARK VINA RESULT: -4.427900280      3.413      5.277
REMARK  2 active torsions:
REMARK  status: ('A' for Active; 'I' for Inactive)
REMARK    1  A    between atoms: C2_2  and  O1_3 
REMARK       I    between atoms: N1_5  and  C3_7 
REMARK       I    between atoms: C3_7  and  N3_11 
REMARK    2  A    between atoms: N4_13  and  N5_15 
ROOT
HETATM    1  C1  UNL     1      26.229  39.897  45.698  1.00  0.00     0.098 C 
HETATM    2  C2  UNL     1      26.613  38.469  45.797  1.00  0.00     0.127 C 
HETATM    3  N1  UNL     1      27.860  38.190  45.672  1.00  0.00    -0.174 N 
ATOM      4  H1  UNL     1      28.508  38.961  45.512  1.00  0.00     0.186 HD
HETATM    5  C3  UNL     1      28.394  36.877  45.741  1.00  0.00     0.693 C 
HETATM    6  N2  UNL     1      28.272  36.098  44.727  1.00  0.00    -0.233 N 
ATOM      7  H21 UNL     1      28.656  35.154  44.777  1.00  0.00     0.174 HD
ATOM      8  H22 UNL     1      27.805  36.380  43.865  1.00  0.00     0.174 HD
HETATM    9  N3  UNL     1      29.039  36.488  46.931  1.00  0.00    -0.118 N 
ATOM     10  H3  UNL     1      28.991  37.131  47.721  1.00  0.00     0.207 HD
HETATM   11  N4  UNL     1      29.670  35.412  47.098  1.00  0.00    -0.235 N 
ATOM     12  H4  UNL     1      30.106  35.220  48.001  1.00  0.00     0.208 HD
ENDROOT
BRANCH   2  13
HETATM   13  O1  UNL     1      25.714  37.444  46.016  1.00  0.00    -0.349 OA
ATOM     14  H1  UNL     1      25.086  37.145  45.368  1.00  0.00     0.219 HD
ENDBRANCH   2  13
BRANCH  11  15
HETATM   15  N5  UNL     1      29.782  34.484  46.077  1.00  0.00    -0.330 N 
ATOM     16  H52 UNL     1      29.050  33.781  45.976  1.00  0.00     0.178 HD
ATOM     17  H51 UNL     1      30.576  34.501  45.438  1.00  0.00     0.178 HD
ENDBRANCH  11  15
TORSDOF 2
ENDMDL
MODEL 4
REMARK VINA RESULT: -4.358544667      1.784      2.384
REMARK  2 active torsions:
REMARK  status: ('A' for Active; 'I' for Inactive)
REMARK    1  A    between atoms: C2_2  and  O1_3 
REMARK       I    between atoms: N1_5  and  C3_7 
REMARK       I    between atoms: C3_7  and  N3_11 
REMARK    2  A    between atoms: N4_13  and  N5_15 
ROOT
HETATM    1  C1  UNL     1      29.431  36.056  46.526  1.00  0.00     0.098 C 
HETATM    2  C2  UNL     1      28.411  37.131  46.556  1.00  0.00     0.127 C 
HETATM    3  N1  UNL     1      27.551  37.147  45.603  1.00  0.00    -0.174 N 
ATOM      4  H1  UNL     1      27.620  36.425  44.886  1.00  0.00     0.186 HD
HETATM    5  C3  UNL     1      26.512  38.105  45.482  1.00  0.00     0.693 C 
HETATM    6  N2  UNL     1      26.792  39.281  45.048  1.00  0.00    -0.233 N 
ATOM      7  H21 UNL     1      26.044  39.970  44.961  1.00  0.00     0.174 HD
ATOM      8  H22 UNL     1      27.736  39.563  44.781  1.00  0.00     0.174 HD
HETATM    9  N3  UNL     1      25.209  37.716  45.850  1.00  0.00    -0.118 N 
ATOM     10  H3  UNL     1      25.099  36.802  46.288  1.00  0.00     0.207 HD
HETATM   11  N4  UNL     1      24.169  38.405  45.681  1.00  0.00    -0.235 N 
ATOM     12  H4  UNL     1      23.267  38.035  45.981  1.00  0.00     0.208 HD
ENDROOT
BRANCH   2  13
HETATM   13  O1  UNL     1      28.340  38.096  47.541  1.00  0.00    -0.349 OA
ATOM     14  H1  UNL     1      28.619  37.957  48.438  1.00  0.00     0.219 HD
ENDBRANCH   2  13
BRANCH  11  15
HETATM   15  N5  UNL     1      24.230  39.657  45.094  1.00  0.00    -0.330 N 
ATOM     16  H52 UNL     1      23.510  39.914  44.419  1.00  0.00     0.178 HD
ATOM     17  H51 UNL     1      24.977  40.311  45.329  1.00  0.00     0.178 HD
ENDBRANCH  11  15
TORSDOF 2
ENDMDL
MODEL 5
REMARK VINA RESULT: -4.224801096      2.348      4.503
REMARK  2 active torsions:
REMARK  status: ('A' for Active; 'I' for Inactive)
REMARK    1  A    between atoms: C2_2  and  O1_3 
REMARK       I    between atoms: N1_5  and  C3_7 
REMARK       I    between atoms: C3_7  and  N3_11 
REMARK    2  A    between atoms: N4_13  and  N5_15 
ROOT
HETATM    1  C1  UNL     1      23.964  39.949  45.941  1.00  0.00     0.098 C 
HETATM    2  C2  UNL     1      25.382  39.521  45.981  1.00  0.00     0.127 C 
HETATM    3  N1  UNL     1      25.610  38.267  46.132  1.00  0.00    -0.174 N 
ATOM      4  H1  UNL     1      24.808  37.643  46.213  1.00  0.00     0.186 HD
HETATM    5  C3  UNL     1      26.907  37.693  46.191  1.00  0.00     0.693 C 
HETATM    6  N2  UNL     1      27.586  37.794  47.277  1.00  0.00    -0.233 N 
ATOM      7  H21 UNL     1      28.518  37.381  47.319  1.00  0.00     0.174 HD
ATOM      8  H22 UNL     1      27.235  38.269  48.108  1.00  0.00     0.174 HD
HETATM    9  N3  UNL     1      27.392  37.036  45.043  1.00  0.00    -0.118 N 
ATOM     10  H3  UNL     1      26.831  37.103  44.194  1.00  0.00     0.207 HD
HETATM   11  N4  UNL     1      28.460  36.373  44.982  1.00  0.00    -0.235 N 
ATOM     12  H4  UNL     1      28.727  35.931  44.102  1.00  0.00     0.208 HD
ENDROOT
BRANCH   2  13
HETATM   13  O1  UNL     1      26.450  40.389  45.867  1.00  0.00    -0.349 OA
ATOM     14  H1  UNL     1      26.482  41.245  46.279  1.00  0.00     0.219 HD
ENDBRANCH   2  13
BRANCH  11  15
HETATM   15  N5  UNL     1      29.278  36.234  46.089  1.00  0.00    -0.330 N 
ATOM     16  H52 UNL     1      29.353  35.316  46.527  1.00  0.00     0.178 HD
ATOM     17  H51 UNL     1      29.796  37.030  46.463  1.00  0.00     0.178 HD
ENDBRANCH  11  15
TORSDOF 2
ENDMDL
