MODEL 1
REMARK VINA RESULT: -4.283715733      0.000      0.000
REMARK  3 active torsions:
REMARK  status: ('A' for Active; 'I' for Inactive)
REMARK    1  A    between atoms: C3_3  and  C4_7 
REMARK    2  A    between atoms: C4_7  and  N2_9 
REMARK    3  A    between atoms: C4_7  and  O1_13 
ROOT
HETATM    1  C1  UNL     1      29.660  36.190  47.513  1.00  0.00     0.019 C 
HETATM    2  C2  UNL     1      28.952  36.580  46.618  1.00  0.00    -0.059 C 
HETATM    3  C3  UNL     1      28.121  37.038  45.528  1.00  0.00     0.119 C 
HETATM    4  N1  UNL     1      28.112  36.317  44.460  1.00  0.00    -0.392 N 
ATOM      5  H11 UNL     1      27.525  36.640  43.691  1.00  0.00     0.156 HD
ATOM      6  H12 UNL     1      28.665  35.463  44.388  1.00  0.00     0.156 HD
ENDROOT
BRANCH   3   7
HETATM    7  C4  UNL     1      27.314  38.282  45.633  1.00  0.00     0.269 C 
HETATM    8  C5  UNL     1      28.109  39.283  46.446  1.00  0.00     0.086 C 
BRANCH   7   9
HETATM    9  N2  UNL     1      26.076  38.048  46.390  1.00  0.00    -0.041 N 
ATOM     10  H23 UNL     1      26.111  37.168  46.904  1.00  0.00     0.278 HD
ATOM     11  H22 UNL     1      25.992  38.687  47.180  1.00  0.00     0.278 HD
ATOM     12  H21 UNL     1      25.258  38.095  45.782  1.00  0.00     0.278 HD
ENDBRANCH   7   9
BRANCH   7  13
HETATM   13  O1  UNL     1      26.950  38.789  44.405  1.00  0.00    -0.360 OA
ATOM     14  H1  UNL     1      27.588  39.399  44.053  1.00  0.00     0.213 HD
ENDBRANCH   7  13
ENDBRANCH   3   7
TORSDOF 3
ENDMDL
MODEL 2
REMARK VINA RESULT: -4.136029888      1.799      2.954
REMARK  3 active torsions:
REMARK  status: ('A' for Active; 'I' for Inactive)
REMARK    1  A    between atoms: C3_3  and  C4_7 
REMARK    2  A    between atoms: C4_7  and  N2_9 
REMARK    3  A    between atoms: C4_7  and  O1_13 
ROOT
HETATM    1  C1  UNL     1      25.555  38.488  45.774  1.00  0.00     0.019 C 
HETATM    2  C2  UNL     1      26.617  37.930  45.649  1.00  0.00    -0.059 C 
HETATM    3  C3  UNL     1      27.876  37.240  45.491  1.00  0.00     0.119 C 
HETATM    4  N1  UNL     1      27.973  36.425  44.498  1.00  0.00    -0.392 N 
ATOM      5  H11 UNL     1      28.863  35.939  44.386  1.00  0.00     0.156 HD
ATOM      6  H12 UNL     1      27.197  36.274  43.854  1.00  0.00     0.156 HD
ENDROOT
BRANCH   3   7
HETATM    7  C4  UNL     1      29.008  37.461  46.428  1.00  0.00     0.269 C 
HETATM    8  C5  UNL     1      29.403  36.116  47.003  1.00  0.00     0.086 C 
BRANCH   7   9
HETATM    9  N2  UNL     1      28.594  38.279  47.578  1.00  0.00    -0.041 N 
ATOM     10  H23 UNL     1      29.132  39.143  47.636  1.00  0.00     0.278 HD
ATOM     11  H22 UNL     1      27.668  38.681  47.437  1.00  0.00     0.278 HD
ATOM     12  H21 UNL     1      28.644  37.747  48.446  1.00  0.00     0.278 HD
ENDBRANCH   7   9
BRANCH   7  13
HETATM   13  O1  UNL     1      30.076  38.102  45.838  1.00  0.00    -0.360 OA
ATOM     14  H1  UNL     1      30.785  37.510  45.616  1.00  0.00     0.213 HD
ENDBRANCH   7  13
ENDBRANCH   3   7
TORSDOF 3
ENDMDL
MODEL 3
REMARK VINA RESULT: -4.033416495      1.892      3.331
REMARK  3 active torsions:
REMARK  status: ('A' for Active; 'I' for Inactive)
REMARK    1  A    between atoms: C3_3  and  C4_7 
REMARK    2  A    between atoms: C4_7  and  N2_9 
REMARK    3  A    between atoms: C4_7  and  O1_13 
ROOT
HETATM    1  C1  UNL     1      24.850  38.092  46.028  1.00  0.00     0.019 C 
HETATM    2  C2  UNL     1      26.030  38.339  46.012  1.00  0.00    -0.059 C 
HETATM    3  C3  UNL     1      27.439  38.658  45.983  1.00  0.00     0.119 C 
HETATM    4  N1  UNL     1      27.761  39.890  46.181  1.00  0.00    -0.392 N 
ATOM      5  H11 UNL     1      28.756  40.114  46.160  1.00  0.00     0.156 HD
ATOM      6  H12 UNL     1      27.055  40.605  46.350  1.00  0.00     0.156 HD
ENDROOT
BRANCH   3   7
HETATM    7  C4  UNL     1      28.469  37.615  45.737  1.00  0.00     0.269 C 
HETATM    8  C5  UNL     1      28.451  36.660  46.912  1.00  0.00     0.086 C 
BRANCH   7   9
HETATM    9  N2  UNL     1      29.819  38.197  45.716  1.00  0.00    -0.041 N 
ATOM     10  H23 UNL     1      29.869  39.004  45.094  1.00  0.00     0.278 HD
ATOM     11  H22 UNL     1      30.039  38.664  46.595  1.00  0.00     0.278 HD
ATOM     12  H21 UNL     1      30.519  37.495  45.478  1.00  0.00     0.278 HD
ENDBRANCH   7   9
BRANCH   7  13
HETATM   13  O1  UNL     1      28.291  36.959  44.538  1.00  0.00    -0.360 OA
ATOM     14  H1  UNL     1      29.013  36.380  44.324  1.00  0.00     0.213 HD
ENDBRANCH   7  13
ENDBRANCH   3   7
TORSDOF 3
ENDMDL
MODEL 4
REMARK VINA RESULT: -3.903296279      2.398      4.007
REMARK  3 active torsions:
REMARK  status: ('A' for Active; 'I' for Inactive)
REMARK    1  A    between atoms: C3_3  and  C4_7 
REMARK    2  A    between atoms: C4_7  and  N2_9 
REMARK    3  A    between atoms: C4_7  and  O1_13 
ROOT
HETATM    1  C1  UNL     1      23.332  40.427  45.628  1.00  0.00     0.019 C 
HETATM    2  C2  UNL     1      24.203  39.597  45.720  1.00  0.00    -0.059 C 
HETATM    3  C3  UNL     1      25.232  38.591  45.849  1.00  0.00     0.119 C 
HETATM    4  N1  UNL     1      24.849  37.405  46.175  1.00  0.00    -0.392 N 
ATOM      5  H11 UNL     1      25.576  36.695  46.266  1.00  0.00     0.156 HD
ATOM      6  H12 UNL     1      23.866  37.187  46.335  1.00  0.00     0.156 HD
ENDROOT
BRANCH   3   7
HETATM    7  C4  UNL     1      26.664  38.909  45.615  1.00  0.00     0.269 C 
HETATM    8  C5  UNL     1      27.490  38.013  46.515  1.00  0.00     0.086 C 
BRANCH   7   9
HETATM    9  N2  UNL     1      26.977  40.285  46.026  1.00  0.00    -0.041 N 
ATOM     10  H23 UNL     1      27.872  40.595  45.648  1.00  0.00     0.278 HD
ATOM     11  H22 UNL     1      26.370  40.962  45.565  1.00  0.00     0.278 HD
ATOM     12  H21 UNL     1      26.944  40.383  47.041  1.00  0.00     0.278 HD
ENDBRANCH   7   9
BRANCH   7  13
HETATM   13  O1  UNL     1      27.031  38.787  44.292  1.00  0.00    -0.360 OA
ATOM     14  H1  UNL     1      27.817  39.277  44.081  1.00  0.00     0.213 HD
ENDBRANCH   7  13
ENDBRANCH   3   7
TORSDOF 3
ENDMDL
MODEL 5
REMARK VINA RESULT: -3.737201634      1.425      2.002
REMARK  3 active torsions:
REMARK  status: ('A' for Active; 'I' for Inactive)
REMARK    1  A    between atoms: C3_3  and  C4_7 
REMARK    2  A    between atoms: C4_7  and  N2_9 
REMARK    3  A    between atoms: C4_7  and  O1_13 
ROOT
HETATM    1  C1  UNL     1      29.752  36.020  47.554  1.00  0.00     0.019 C 
HETATM    2  C2  UNL     1      29.226  37.010  47.107  1.00  0.00    -0.059 C 
HETATM    3  C3  UNL     1      28.602  38.207  46.594  1.00  0.00     0.119 C 
HETATM    4  N1  UNL     1      29.060  39.332  47.022  1.00  0.00    -0.392 N 
ATOM      5  H11 UNL     1      28.619  40.178  46.660  1.00  0.00     0.156 HD
ATOM      6  H12 UNL     1      29.828  39.375  47.692  1.00  0.00     0.156 HD
ENDROOT
BRANCH   3   7
HETATM    7  C4  UNL     1      27.483  38.145  45.618  1.00  0.00     0.269 C 
HETATM    8  C5  UNL     1      26.198  37.958  46.396  1.00  0.00     0.086 C 
BRANCH   7   9
HETATM    9  N2  UNL     1      27.600  36.963  44.751  1.00  0.00    -0.041 N 
ATOM     10  H23 UNL     1      27.106  36.161  45.143  1.00  0.00     0.278 HD
ATOM     11  H22 UNL     1      27.063  37.073  43.892  1.00  0.00     0.278 HD
ATOM     12  H21 UNL     1      28.576  36.743  44.557  1.00  0.00     0.278 HD
ENDBRANCH   7   9
BRANCH   7  13
HETATM   13  O1  UNL     1      27.429  39.248  44.793  1.00  0.00    -0.360 OA
ATOM     14  H1  UNL     1      27.684  40.050  45.234  1.00  0.00     0.213 HD
ENDBRANCH   7  13
ENDBRANCH   3   7
TORSDOF 3
ENDMDL
