MODEL 1
REMARK VINA RESULT: -6.961598298      0.000      0.000
REMARK  2 active torsions:
REMARK  status: ('A' for Active; 'I' for Inactive)
REMARK    1  A    between atoms: C2_2  and  C3_3 
REMARK    2  A    between atoms: C6_6  and  C7_7 
ROOT
HETATM    1  C1  UNL     1       3.878  38.903 -17.563  1.00  0.00     0.044 C 
HETATM    2  C2  UNL     1       5.275  39.014 -16.929  1.00  0.00     0.063 C 
HETATM    3  C8  UNL     1       5.056  39.225 -15.483  1.00  0.00     0.047 C 
HETATM    4  C9  UNL     1       5.546  40.512 -14.892  1.00  0.00     0.085 C 
HETATM    5  S2  UNL     1       7.295  40.809 -15.390  1.00  0.00    -0.095 SA
HETATM    6  C10 UNL     1       7.214  40.574 -17.171  1.00  0.00     0.134 C 
HETATM    7  N1  UNL     1       8.179  40.868 -17.966  1.00  0.00    -0.380 N 
ATOM      8  H11 UNL     1       8.134  40.735 -18.976  1.00  0.00     0.158 HD
ATOM      9  H12 UNL     1       9.056  41.264 -17.624  1.00  0.00     0.158 HD
HETATM   10  N2  UNL     1       6.003  40.028 -17.642  1.00  0.00    -0.357 N 
ATOM     11  H2  UNL     1       5.627  40.366 -18.528  1.00  0.00     0.162 HD
ENDROOT
BRANCH   2  12
HETATM   12  C3  UNL     1       6.046  37.731 -17.182  1.00  0.00     0.011 A 
HETATM   13  C4  UNL     1       5.986  36.915 -18.273  1.00  0.00     0.018 A 
HETATM   14  C5  UNL     1       6.762  35.818 -18.275  1.00  0.00     0.021 A 
HETATM   15  C6  UNL     1       7.549  35.611 -17.178  1.00  0.00     0.047 A 
HETATM   16  S1  UNL     1       7.186  36.948 -16.184  1.00  0.00    -0.091 SA
BRANCH  15  17
HETATM   17  C7  UNL     1       8.492  34.487 -16.916  1.00  0.00     0.393 C 
HETATM   18  F1  UNL     1       9.641  34.621 -17.661  1.00  0.00    -0.208 F 
HETATM   19  F2  UNL     1       8.845  34.405 -15.592  1.00  0.00    -0.208 F 
ENDBRANCH  15  17
ENDBRANCH   2  12
TORSDOF 2
ENDMDL
MODEL 2
REMARK VINA RESULT: -6.552926553      1.164      1.231
REMARK  2 active torsions:
REMARK  status: ('A' for Active; 'I' for Inactive)
REMARK    1  A    between atoms: C2_2  and  C3_3 
REMARK    2  A    between atoms: C6_6  and  C7_7 
ROOT
HETATM    1  C1  UNL     1       4.411  38.235 -17.842  1.00  0.00     0.044 C 
HETATM    2  C2  UNL     1       5.896  38.485 -17.526  1.00  0.00     0.063 C 
HETATM    3  C8  UNL     1       5.930  39.170 -16.217  1.00  0.00     0.047 C 
HETATM    4  C9  UNL     1       6.498  40.556 -16.179  1.00  0.00     0.085 C 
HETATM    5  S2  UNL     1       8.129  40.593 -17.036  1.00  0.00    -0.095 SA
HETATM    6  C10 UNL     1       7.741  39.789 -18.597  1.00  0.00     0.134 C 
HETATM    7  N1  UNL     1       8.548  39.762 -19.596  1.00  0.00    -0.380 N 
ATOM      8  H11 UNL     1       8.329  39.306 -20.481  1.00  0.00     0.158 HD
ATOM      9  H12 UNL     1       9.465  40.208 -19.559  1.00  0.00     0.158 HD
HETATM   10  N2  UNL     1       6.474  39.174 -18.648  1.00  0.00    -0.357 N 
ATOM     11  H2  UNL     1       5.945  39.218 -19.519  1.00  0.00     0.162 HD
ENDROOT
BRANCH   2  12
HETATM   12  C3  UNL     1       6.629  37.157 -17.466  1.00  0.00     0.011 A 
HETATM   13  C4  UNL     1       6.669  36.175 -18.411  1.00  0.00     0.018 A 
HETATM   14  C5  UNL     1       7.383  35.071 -18.135  1.00  0.00     0.021 A 
HETATM   15  C6  UNL     1       8.012  35.026 -16.923  1.00  0.00     0.047 A 
HETATM   16  S1  UNL     1       7.591  36.517 -16.213  1.00  0.00    -0.091 SA
BRANCH  15  17
HETATM   17  C7  UNL     1       8.857  33.934 -16.361  1.00  0.00     0.393 C 
HETATM   18  F1  UNL     1      10.111  33.937 -16.927  1.00  0.00    -0.208 F 
HETATM   19  F2  UNL     1       8.999  34.037 -15.000  1.00  0.00    -0.208 F 
ENDBRANCH  15  17
ENDBRANCH   2  12
TORSDOF 2
ENDMDL
MODEL 3
REMARK VINA RESULT: -6.436717440      3.921      5.346
REMARK  2 active torsions:
REMARK  status: ('A' for Active; 'I' for Inactive)
REMARK    1  A    between atoms: C2_2  and  C3_3 
REMARK    2  A    between atoms: C6_6  and  C7_7 
ROOT
HETATM    1  C1  UNL     1       7.179  38.712 -14.599  1.00  0.00     0.044 C 
HETATM    2  C2  UNL     1       7.010  38.141 -16.017  1.00  0.00     0.063 C 
HETATM    3  C8  UNL     1       6.954  36.672 -15.867  1.00  0.00     0.047 C 
HETATM    4  C9  UNL     1       8.038  35.871 -16.522  1.00  0.00     0.085 C 
HETATM    5  S2  UNL     1       8.235  36.392 -18.278  1.00  0.00    -0.095 SA
HETATM    6  C10 UNL     1       8.367  38.178 -18.117  1.00  0.00     0.134 C 
HETATM    7  N1  UNL     1       8.706  38.950 -19.086  1.00  0.00    -0.380 N 
ATOM      8  H11 UNL     1       8.781  39.963 -18.996  1.00  0.00     0.158 HD
ATOM      9  H12 UNL     1       8.928  38.585 -20.012  1.00  0.00     0.158 HD
HETATM   10  N2  UNL     1       8.059  38.682 -16.838  1.00  0.00    -0.357 N 
ATOM     11  H2  UNL     1       8.605  39.465 -16.478  1.00  0.00     0.162 HD
ENDROOT
BRANCH   2  12
HETATM   12  C3  UNL     1       5.727  38.676 -16.625  1.00  0.00     0.011 A 
HETATM   13  C4  UNL     1       4.960  38.113 -17.603  1.00  0.00     0.018 A 
HETATM   14  C5  UNL     1       3.860  38.778 -17.994  1.00  0.00     0.021 A 
HETATM   15  C6  UNL     1       3.601  39.969 -17.376  1.00  0.00     0.047 A 
HETATM   16  S1  UNL     1       4.892  40.121 -16.274  1.00  0.00    -0.091 SA
BRANCH  15  17
HETATM   17  C7  UNL     1       2.465  40.905 -17.613  1.00  0.00     0.393 C 
HETATM   18  F1  UNL     1       2.429  41.316 -18.926  1.00  0.00    -0.208 F 
HETATM   19  F2  UNL     1       1.254  40.338 -17.306  1.00  0.00    -0.208 F 
ENDBRANCH  15  17
ENDBRANCH   2  12
TORSDOF 2
ENDMDL
MODEL 4
REMARK VINA RESULT: -6.429608563      4.013      5.504
REMARK  2 active torsions:
REMARK  status: ('A' for Active; 'I' for Inactive)
REMARK    1  A    between atoms: C2_2  and  C3_3 
REMARK    2  A    between atoms: C6_6  and  C7_7 
ROOT
HETATM    1  C1  UNL     1       6.772  37.496 -14.552  1.00  0.00     0.044 C 
HETATM    2  C2  UNL     1       6.864  38.056 -15.982  1.00  0.00     0.063 C 
HETATM    3  C8  UNL     1       6.906  36.885 -16.881  1.00  0.00     0.047 C 
HETATM    4  C9  UNL     1       8.137  36.701 -17.716  1.00  0.00     0.085 C 
HETATM    5  S2  UNL     1       8.552  38.272 -18.584  1.00  0.00    -0.095 SA
HETATM    6  C10 UNL     1       8.513  39.458 -17.234  1.00  0.00     0.134 C 
HETATM    7  N1  UNL     1       8.929  40.668 -17.347  1.00  0.00    -0.380 N 
ATOM      8  H11 UNL     1       8.907  41.342 -16.581  1.00  0.00     0.158 HD
ATOM      9  H12 UNL     1       9.317  41.025 -18.220  1.00  0.00     0.158 HD
HETATM   10  N2  UNL     1       7.977  38.965 -16.028  1.00  0.00    -0.357 N 
ATOM     11  H2  UNL     1       8.397  39.267 -15.148  1.00  0.00     0.162 HD
ENDROOT
BRANCH   2  12
HETATM   12  C3  UNL     1       5.647  38.918 -16.264  1.00  0.00     0.011 A 
HETATM   13  C4  UNL     1       5.197  39.995 -15.559  1.00  0.00     0.018 A 
HETATM   14  C5  UNL     1       4.083  40.605 -15.995  1.00  0.00     0.021 A 
HETATM   15  C6  UNL     1       3.490  40.091 -17.114  1.00  0.00     0.047 A 
HETATM   16  S1  UNL     1       4.504  38.783 -17.522  1.00  0.00    -0.091 SA
BRANCH  15  17
HETATM   17  C7  UNL     1       2.257  40.563 -17.805  1.00  0.00     0.393 C 
HETATM   18  F1  UNL     1       1.491  41.346 -16.973  1.00  0.00    -0.208 F 
HETATM   19  F2  UNL     1       2.541  41.288 -18.936  1.00  0.00    -0.208 F 
ENDBRANCH  15  17
ENDBRANCH   2  12
TORSDOF 2
ENDMDL
MODEL 5
REMARK VINA RESULT: -6.422973689      4.136      5.664
REMARK  2 active torsions:
REMARK  status: ('A' for Active; 'I' for Inactive)
REMARK    1  A    between atoms: C2_2  and  C3_3 
REMARK    2  A    between atoms: C6_6  and  C7_7 
ROOT
HETATM    1  C1  UNL     1       8.467  40.716 -16.589  1.00  0.00     0.044 C 
HETATM    2  C2  UNL     1       7.570  39.637 -15.958  1.00  0.00     0.063 C 
HETATM    3  C8  UNL     1       7.873  39.642 -14.512  1.00  0.00     0.047 C 
HETATM    4  C9  UNL     1       8.451  38.390 -13.925  1.00  0.00     0.085 C 
HETATM    5  S2  UNL     1       7.442  36.933 -14.428  1.00  0.00    -0.095 SA
HETATM    6  C10 UNL     1       7.332  37.161 -16.208  1.00  0.00     0.134 C 
HETATM    7  N1  UNL     1       6.869  36.267 -17.006  1.00  0.00    -0.380 N 
ATOM      8  H11 UNL     1       6.806  36.396 -18.016  1.00  0.00     0.158 HD
ATOM      9  H12 UNL     1       6.539  35.363 -16.668  1.00  0.00     0.158 HD
HETATM   10  N2  UNL     1       7.787  38.410 -16.675  1.00  0.00    -0.357 N 
ATOM     11  H2  UNL     1       8.293  38.445 -17.560  1.00  0.00     0.162 HD
ENDROOT
BRANCH   2  12
HETATM   12  C3  UNL     1       6.114  39.982 -16.211  1.00  0.00     0.011 A 
HETATM   13  C4  UNL     1       5.220  40.544 -15.348  1.00  0.00     0.018 A 
HETATM   14  C5  UNL     1       3.970  40.753 -15.792  1.00  0.00     0.021 A 
HETATM   15  C6  UNL     1       3.698  40.382 -17.079  1.00  0.00     0.047 A 
HETATM   16  S1  UNL     1       5.187  39.759 -17.625  1.00  0.00    -0.091 SA
BRANCH  15  17
HETATM   17  C7  UNL     1       2.409  40.494 -17.819  1.00  0.00     0.393 C 
HETATM   18  F1  UNL     1       1.436  41.073 -17.037  1.00  0.00    -0.208 F 
HETATM   19  F2  UNL     1       2.534  41.234 -18.968  1.00  0.00    -0.208 F 
ENDBRANCH  15  17
ENDBRANCH   2  12
TORSDOF 2
ENDMDL
