MODEL 1
REMARK VINA RESULT: -5.322615221      0.000      0.000
REMARK  5 active torsions:
REMARK  status: ('A' for Active; 'I' for Inactive)
REMARK    1  A    between atoms: N1_1  and  C1_4 
REMARK    2  A    between atoms: C2_7  and  N3_8 
REMARK    3  A    between atoms: N3_8  and  C3_10 
REMARK    4  A    between atoms: C3_10  and  C4_11 
REMARK    5  A    between atoms: C4_11  and  N4_12 
ROOT
HETATM    1  C1  UNL     1      29.991  75.234  15.310  1.00  0.00     0.691 A 
HETATM    2  N2  UNL     1      29.803  75.069  13.988  1.00  0.00    -0.023 N 
ATOM      3  H2  UNL     1      29.945  75.873  13.377  1.00  0.00     0.203 HD
HETATM    4  C2  UNL     1      29.436  73.897  13.427  1.00  0.00     0.693 A 
HETATM    5  N5  UNL     1      29.260  72.859  14.291  1.00  0.00    -0.187 N 
ATOM      6  H5  UNL     1      28.981  71.953  13.914  1.00  0.00     0.185 HD
HETATM    7  C5  UNL     1      29.435  72.973  15.615  1.00  0.00     0.215 A 
HETATM    8  N6  UNL     1      29.800  74.164  16.117  1.00  0.00    -0.187 N 
ATOM      9  H6  UNL     1      29.937  74.264  17.123  1.00  0.00     0.185 HD
ENDROOT
BRANCH   4  10
HETATM   10  N3  UNL     1      29.241  73.737  12.038  1.00  0.00    -0.224 N 
ATOM     11  H3  UNL     1      29.788  74.292  11.379  1.00  0.00     0.177 HD
BRANCH  10  12
HETATM   12  C3  UNL     1      28.274  72.795  11.552  1.00  0.00     0.165 C 
BRANCH  12  13
HETATM   13  C4  UNL     1      28.888  71.565  10.944  1.00  0.00     0.249 C 
BRANCH  13  14
HETATM   14  N4  UNL     1      28.572  71.582   9.517  1.00  0.00    -0.078 N 
ATOM     15  H43 UNL     1      27.583  71.421   9.325  1.00  0.00     0.274 HD
ATOM     16  H42 UNL     1      28.636  72.513   9.105  1.00  0.00     0.274 HD
ATOM     17  H41 UNL     1      29.183  70.901   9.064  1.00  0.00     0.274 HD
ENDBRANCH  13  14
ENDBRANCH  12  13
ENDBRANCH  10  12
ENDBRANCH   4  10
BRANCH   1  18
HETATM   18  N1  UNL     1      30.342  76.351  15.854  1.00  0.00    -0.234 N 
ATOM     19  H12 UNL     1      29.647  76.856  16.405  1.00  0.00     0.174 HD
ATOM     20  H11 UNL     1      31.271  76.761  15.766  1.00  0.00     0.174 HD
ENDBRANCH   1  18
TORSDOF 5
ENDMDL
MODEL 2
REMARK VINA RESULT: -5.103385678      0.633      1.914
REMARK  5 active torsions:
REMARK  status: ('A' for Active; 'I' for Inactive)
REMARK    1  A    between atoms: N1_1  and  C1_4 
REMARK    2  A    between atoms: C2_7  and  N3_8 
REMARK    3  A    between atoms: N3_8  and  C3_10 
REMARK    4  A    between atoms: C3_10  and  C4_11 
REMARK    5  A    between atoms: C4_11  and  N4_12 
ROOT
HETATM    1  C1  UNL     1      29.405  73.156  15.615  1.00  0.00     0.691 A 
HETATM    2  N2  UNL     1      29.223  72.965  14.296  1.00  0.00    -0.023 N 
ATOM      3  H2  UNL     1      28.945  72.036  13.977  1.00  0.00     0.203 HD
HETATM    4  C2  UNL     1      29.388  73.935  13.371  1.00  0.00     0.693 A 
HETATM    5  N5  UNL     1      29.761  75.152  13.854  1.00  0.00    -0.187 N 
ATOM      6  H5  UNL     1      29.899  75.917  13.192  1.00  0.00     0.185 HD
HETATM    7  C5  UNL     1      29.954  75.393  15.157  1.00  0.00     0.215 A 
HETATM    8  N6  UNL     1      29.775  74.389  16.032  1.00  0.00    -0.187 N 
ATOM      9  H6  UNL     1      29.920  74.559  17.028  1.00  0.00     0.185 HD
ENDROOT
BRANCH   4  10
HETATM   10  N3  UNL     1      29.194  73.720  11.988  1.00  0.00    -0.224 N 
ATOM     11  H3  UNL     1      29.735  74.256  11.309  1.00  0.00     0.177 HD
BRANCH  10  12
HETATM   12  C3  UNL     1      28.238  72.750  11.540  1.00  0.00     0.165 C 
BRANCH  12  13
HETATM   13  C4  UNL     1      28.867  71.526  10.932  1.00  0.00     0.249 C 
BRANCH  13  14
HETATM   14  N4  UNL     1      28.559  71.544   9.503  1.00  0.00    -0.078 N 
ATOM     15  H43 UNL     1      28.403  70.613   9.116  1.00  0.00     0.274 HD
ATOM     16  H42 UNL     1      27.636  71.928   9.298  1.00  0.00     0.274 HD
ATOM     17  H41 UNL     1      29.314  72.049   9.037  1.00  0.00     0.274 HD
ENDBRANCH  13  14
ENDBRANCH  12  13
ENDBRANCH  10  12
ENDBRANCH   4  10
BRANCH   1  18
HETATM   18  N1  UNL     1      29.250  72.234  16.505  1.00  0.00    -0.234 N 
ATOM     19  H12 UNL     1      28.718  71.402  16.247  1.00  0.00     0.174 HD
ATOM     20  H11 UNL     1      29.625  72.287  17.451  1.00  0.00     0.174 HD
ENDBRANCH   1  18
TORSDOF 5
ENDMDL
MODEL 3
REMARK VINA RESULT: -5.057719324      1.345      5.062
REMARK  5 active torsions:
REMARK  status: ('A' for Active; 'I' for Inactive)
REMARK    1  A    between atoms: N1_1  and  C1_4 
REMARK    2  A    between atoms: C2_7  and  N3_8 
REMARK    3  A    between atoms: N3_8  and  C3_10 
REMARK    4  A    between atoms: C3_10  and  C4_11 
REMARK    5  A    between atoms: C4_11  and  N4_12 
ROOT
HETATM    1  C1  UNL     1      28.988  71.760  10.827  1.00  0.00     0.691 A 
HETATM    2  N2  UNL     1      28.889  72.949  11.447  1.00  0.00    -0.023 N 
ATOM      3  H2  UNL     1      28.340  73.683  10.999  1.00  0.00     0.203 HD
HETATM    4  C2  UNL     1      29.477  73.225  12.631  1.00  0.00     0.693 A 
HETATM    5  N5  UNL     1      30.197  72.210  13.183  1.00  0.00    -0.187 N 
ATOM      6  H5  UNL     1      30.661  72.371  14.077  1.00  0.00     0.185 HD
HETATM    7  C5  UNL     1      30.325  71.008  12.605  1.00  0.00     0.215 A 
HETATM    8  N6  UNL     1      29.718  70.790  11.426  1.00  0.00    -0.187 N 
ATOM      9  H6  UNL     1      29.808  69.880  10.975  1.00  0.00     0.185 HD
ENDROOT
BRANCH   4  10
HETATM   10  N3  UNL     1      29.366  74.479  13.272  1.00  0.00    -0.224 N 
ATOM     11  H3  UNL     1      29.319  75.333  12.715  1.00  0.00     0.177 HD
BRANCH  10  12
HETATM   12  C3  UNL     1      29.319  74.552  14.703  1.00  0.00     0.165 C 
BRANCH  12  13
HETATM   13  C4  UNL     1      30.335  75.494  15.289  1.00  0.00     0.249 C 
BRANCH  13  14
HETATM   14  N4  UNL     1      30.434  75.193  16.716  1.00  0.00    -0.078 N 
ATOM     15  H43 UNL     1      29.723  74.534  17.036  1.00  0.00     0.274 HD
ATOM     16  H42 UNL     1      31.251  74.629  16.950  1.00  0.00     0.274 HD
ATOM     17  H41 UNL     1      30.406  76.082  17.215  1.00  0.00     0.274 HD
ENDBRANCH  13  14
ENDBRANCH  12  13
ENDBRANCH  10  12
ENDBRANCH   4  10
BRANCH   1  18
HETATM   18  N1  UNL     1      28.429  71.489   9.695  1.00  0.00    -0.234 N 
ATOM     19  H12 UNL     1      27.772  72.167   9.309  1.00  0.00     0.174 HD
ATOM     20  H11 UNL     1      28.605  70.637   9.163  1.00  0.00     0.174 HD
ENDBRANCH   1  18
TORSDOF 5
ENDMDL
MODEL 4
REMARK VINA RESULT: -4.874309345      1.784      5.079
REMARK  5 active torsions:
REMARK  status: ('A' for Active; 'I' for Inactive)
REMARK    1  A    between atoms: N1_1  and  C1_4 
REMARK    2  A    between atoms: C2_7  and  N3_8 
REMARK    3  A    between atoms: N3_8  and  C3_10 
REMARK    4  A    between atoms: C3_10  and  C4_11 
REMARK    5  A    between atoms: C4_11  and  N4_12 
ROOT
HETATM    1  C1  UNL     1      30.163  70.770  12.285  1.00  0.00     0.691 A 
HETATM    2  N2  UNL     1      30.223  71.967  12.895  1.00  0.00    -0.023 N 
ATOM      3  H2  UNL     1      30.846  72.069  13.696  1.00  0.00     0.203 HD
HETATM    4  C2  UNL     1      29.503  73.041  12.505  1.00  0.00     0.693 A 
HETATM    5  N5  UNL     1      28.688  72.847  11.431  1.00  0.00    -0.187 N 
ATOM      6  H5  UNL     1      28.124  73.629  11.101  1.00  0.00     0.185 HD
HETATM    7  C5  UNL     1      28.593  71.674  10.790  1.00  0.00     0.215 A 
HETATM    8  N6  UNL     1      29.334  70.640  11.222  1.00  0.00    -0.187 N 
ATOM      9  H6  UNL     1      29.270  69.742  10.742  1.00  0.00     0.185 HD
ENDROOT
BRANCH   4  10
HETATM   10  N3  UNL     1      29.575  74.292  13.156  1.00  0.00    -0.224 N 
ATOM     11  H3  UNL     1      29.711  75.144  12.610  1.00  0.00     0.177 HD
BRANCH  10  12
HETATM   12  C3  UNL     1      29.457  74.367  14.584  1.00  0.00     0.165 C 
BRANCH  12  13
HETATM   13  C4  UNL     1      30.191  75.534  15.185  1.00  0.00     0.249 C 
BRANCH  13  14
HETATM   14  N4  UNL     1      30.389  75.238  16.603  1.00  0.00    -0.078 N 
ATOM     15  H43 UNL     1      29.880  74.410  16.913  1.00  0.00     0.274 HD
ATOM     16  H42 UNL     1      31.328  74.902  16.814  1.00  0.00     0.274 HD
ATOM     17  H41 UNL     1      30.139  76.079  17.125  1.00  0.00     0.274 HD
ENDBRANCH  13  14
ENDBRANCH  12  13
ENDBRANCH  10  12
ENDBRANCH   4  10
BRANCH   1  18
HETATM   18  N1  UNL     1      30.847  69.738  12.651  1.00  0.00    -0.234 N 
ATOM     19  H12 UNL     1      31.183  69.103  11.927  1.00  0.00     0.174 HD
ATOM     20  H11 UNL     1      31.070  69.519  13.622  1.00  0.00     0.174 HD
ENDBRANCH   1  18
TORSDOF 5
ENDMDL
MODEL 5
REMARK VINA RESULT: -4.859087361      1.469      5.124
REMARK  5 active torsions:
REMARK  status: ('A' for Active; 'I' for Inactive)
REMARK    1  A    between atoms: N1_1  and  C1_4 
REMARK    2  A    between atoms: C2_7  and  N3_8 
REMARK    3  A    between atoms: N3_8  and  C3_10 
REMARK    4  A    between atoms: C3_10  and  C4_11 
REMARK    5  A    between atoms: C4_11  and  N4_12 
ROOT
HETATM    1  C1  UNL     1      28.900  71.534  10.347  1.00  0.00     0.691 A 
HETATM    2  N2  UNL     1      28.716  72.463  11.301  1.00  0.00    -0.023 N 
ATOM      3  H2  UNL     1      28.081  73.237  11.105  1.00  0.00     0.203 HD
HETATM    4  C2  UNL     1      29.326  72.428  12.505  1.00  0.00     0.693 A 
HETATM    5  N5  UNL     1      30.163  71.374  12.712  1.00  0.00    -0.187 N 
ATOM      6  H5  UNL     1      30.648  71.305  13.607  1.00  0.00     0.185 HD
HETATM    7  C5  UNL     1      30.379  70.423  11.794  1.00  0.00     0.215 A 
HETATM    8  N6  UNL     1      29.744  70.510  10.613  1.00  0.00    -0.187 N 
ATOM      9  H6  UNL     1      29.901  69.792   9.904  1.00  0.00     0.185 HD
ENDROOT
BRANCH   4  10
HETATM   10  N3  UNL     1      29.125  73.412  13.499  1.00  0.00    -0.224 N 
ATOM     11  H3  UNL     1      28.181  73.734  13.713  1.00  0.00     0.177 HD
BRANCH  10  12
HETATM   12  C3  UNL     1      30.247  73.958  14.206  1.00  0.00     0.165 C 
BRANCH  12  13
HETATM   13  C4  UNL     1      29.925  75.221  14.957  1.00  0.00     0.249 C 
BRANCH  13  14
HETATM   14  N4  UNL     1      28.479  75.421  14.870  1.00  0.00    -0.078 N 
ATOM     15  H43 UNL     1      28.000  74.662  14.385  1.00  0.00     0.274 HD
ATOM     16  H42 UNL     1      28.008  75.322  15.769  1.00  0.00     0.274 HD
ATOM     17  H41 UNL     1      28.326  76.332  14.437  1.00  0.00     0.274 HD
ENDBRANCH  13  14
ENDBRANCH  12  13
ENDBRANCH  10  12
ENDBRANCH   4  10
BRANCH   1  18
HETATM   18  N1  UNL     1      28.321  71.560   9.193  1.00  0.00    -0.234 N 
ATOM     19  H12 UNL     1      27.301  71.541   9.168  1.00  0.00     0.174 HD
ATOM     20  H11 UNL     1      28.821  71.599   8.306  1.00  0.00     0.174 HD
ENDBRANCH   1  18
TORSDOF 5
ENDMDL
