MODEL 1
REMARK VINA RESULT: -5.129690872      0.000      0.000
REMARK  5 active torsions:
REMARK  status: ('A' for Active; 'I' for Inactive)
REMARK    1  A    between atoms: N1_1  and  C1_5 
REMARK    2  A    between atoms: C1_5  and  N2_6 
REMARK    3  A    between atoms: C1_5  and  C2_10 
REMARK    4  A    between atoms: C2_10  and  N3_11 
REMARK    5  A    between atoms: N3_11  and  C3_13 
ROOT
HETATM    1  C2  UNL     1      30.326  73.993  14.219  1.00  0.00     0.200 C 
ENDROOT
BRANCH   1   2
HETATM    2  C1  UNL     1      29.884  75.213  15.013  1.00  0.00     0.396 C 
BRANCH   2   3
HETATM    3  N1  UNL     1      30.321  75.040  16.384  1.00  0.00    -0.049 N 
ATOM      4  H13 UNL     1      31.013  75.726  16.684  1.00  0.00     0.276 HD
ATOM      5  H12 UNL     1      29.610  75.278  17.075  1.00  0.00     0.276 HD
ATOM      6  H11 UNL     1      30.647  74.074  16.443  1.00  0.00     0.276 HD
ENDBRANCH   2   3
BRANCH   2   7
HETATM    7  N2  UNL     1      28.411  75.214  15.071  1.00  0.00    -0.049 N 
ATOM      8  H23 UNL     1      28.037  75.291  16.017  1.00  0.00     0.276 HD
ATOM      9  H22 UNL     1      27.986  76.065  14.705  1.00  0.00     0.276 HD
ATOM     10  H21 UNL     1      28.122  74.367  14.582  1.00  0.00     0.276 HD
ENDBRANCH   2   7
ENDBRANCH   1   2
BRANCH   1  11
HETATM   11  N3  UNL     1      29.582  73.857  13.001  1.00  0.00    -0.223 N 
ATOM     12  H3  UNL     1      29.116  74.672  12.603  1.00  0.00     0.177 HD
BRANCH  11  13
HETATM   13  C3  UNL     1      29.482  72.596  12.336  1.00  0.00     0.669 C 
HETATM   14  N4  UNL     1      30.253  71.611  12.613  1.00  0.00    -0.227 N 
HETATM   15  C4  UNL     1      30.171  70.337  11.957  1.00  0.00     0.139 C 
ATOM     16  H4  UNL     1      30.961  71.738  13.335  1.00  0.00     0.177 HD
HETATM   17  C5  UNL     1      29.052  70.179  10.986  1.00  0.00     0.040 C 
HETATM   18  C6  UNL     1      28.647  71.457  10.322  1.00  0.00     0.139 C 
HETATM   19  N5  UNL     1      28.482  72.471  11.335  1.00  0.00    -0.227 N 
ATOM     20  H5  UNL     1      27.667  73.084  11.331  1.00  0.00     0.177 HD
ENDBRANCH  11  13
ENDBRANCH   1  11
TORSDOF 5
ENDMDL
MODEL 2
REMARK VINA RESULT: -5.098011210      0.858      1.732
REMARK  5 active torsions:
REMARK  status: ('A' for Active; 'I' for Inactive)
REMARK    1  A    between atoms: N1_1  and  C1_5 
REMARK    2  A    between atoms: C1_5  and  N2_6 
REMARK    3  A    between atoms: C1_5  and  C2_10 
REMARK    4  A    between atoms: C2_10  and  N3_11 
REMARK    5  A    between atoms: N3_11  and  C3_13 
ROOT
HETATM    1  C2  UNL     1      30.371  73.803  14.108  1.00  0.00     0.200 C 
ENDROOT
BRANCH   1   2
HETATM    2  C1  UNL     1      29.560  74.086  15.363  1.00  0.00     0.396 C 
BRANCH   2   3
HETATM    3  N1  UNL     1      28.814  72.889  15.695  1.00  0.00    -0.049 N 
ATOM      4  H13 UNL     1      29.215  72.355  16.466  1.00  0.00     0.276 HD
ATOM      5  H12 UNL     1      27.913  73.076  16.136  1.00  0.00     0.276 HD
ATOM      6  H11 UNL     1      28.745  72.364  14.823  1.00  0.00     0.276 HD
ENDBRANCH   2   3
BRANCH   2   7
HETATM    7  N2  UNL     1      28.543  75.100  15.034  1.00  0.00    -0.049 N 
ATOM      8  H23 UNL     1      28.228  75.067  14.064  1.00  0.00     0.276 HD
ATOM      9  H22 UNL     1      27.634  74.923  15.460  1.00  0.00     0.276 HD
ATOM     10  H21 UNL     1      28.956  75.993  15.302  1.00  0.00     0.276 HD
ENDBRANCH   2   7
ENDBRANCH   1   2
BRANCH   1  11
HETATM   11  N3  UNL     1      29.543  73.775  12.938  1.00  0.00    -0.223 N 
ATOM     12  H3  UNL     1      29.026  74.612  12.668  1.00  0.00     0.177 HD
BRANCH  11  13
HETATM   13  C3  UNL     1      29.431  72.593  12.143  1.00  0.00     0.669 C 
HETATM   14  N4  UNL     1      28.597  72.492  11.176  1.00  0.00    -0.227 N 
HETATM   15  C4  UNL     1      28.466  71.315  10.366  1.00  0.00     0.139 C 
ATOM     16  H4  UNL     1      27.995  73.289  10.971  1.00  0.00     0.177 HD
HETATM   17  C5  UNL     1      29.442  70.224  10.647  1.00  0.00     0.040 C 
HETATM   18  C6  UNL     1      29.900  70.179  12.070  1.00  0.00     0.139 C 
HETATM   19  N5  UNL     1      30.289  71.509  12.472  1.00  0.00    -0.227 N 
ATOM     20  H5  UNL     1      31.158  71.667  12.981  1.00  0.00     0.177 HD
ENDBRANCH  11  13
ENDBRANCH   1  11
TORSDOF 5
ENDMDL
MODEL 3
REMARK VINA RESULT: -4.839420603      1.619      5.087
REMARK  5 active torsions:
REMARK  status: ('A' for Active; 'I' for Inactive)
REMARK    1  A    between atoms: N1_1  and  C1_5 
REMARK    2  A    between atoms: C1_5  and  N2_6 
REMARK    3  A    between atoms: C1_5  and  C2_10 
REMARK    4  A    between atoms: C2_10  and  N3_11 
REMARK    5  A    between atoms: N3_11  and  C3_13 
ROOT
HETATM    1  C2  UNL     1      29.180  71.584  11.422  1.00  0.00     0.200 C 
ENDROOT
BRANCH   1   2
HETATM    2  C1  UNL     1      28.108  71.126  10.445  1.00  0.00     0.396 C 
BRANCH   2   3
HETATM    3  N1  UNL     1      28.174  69.682  10.350  1.00  0.00    -0.049 N 
ATOM      4  H13 UNL     1      28.469  69.226  11.214  1.00  0.00     0.276 HD
ATOM      5  H12 UNL     1      27.261  69.232  10.284  1.00  0.00     0.276 HD
ATOM      6  H11 UNL     1      28.786  69.492   9.556  1.00  0.00     0.276 HD
ENDBRANCH   2   3
BRANCH   2   7
HETATM    7  N2  UNL     1      28.466  71.621   9.105  1.00  0.00    -0.049 N 
ATOM      8  H23 UNL     1      27.665  71.925   8.551  1.00  0.00     0.276 HD
ATOM      9  H22 UNL     1      28.951  72.518   9.114  1.00  0.00     0.276 HD
ATOM     10  H21 UNL     1      29.003  70.868   8.674  1.00  0.00     0.276 HD
ENDBRANCH   2   7
ENDBRANCH   1   2
BRANCH   1  11
HETATM   11  N3  UNL     1      29.080  72.988  11.697  1.00  0.00    -0.223 N 
ATOM     12  H3  UNL     1      28.654  73.606  11.006  1.00  0.00     0.177 HD
BRANCH  11  13
HETATM   13  C3  UNL     1      29.569  73.536  12.923  1.00  0.00     0.669 C 
HETATM   14  N4  UNL     1      30.252  72.846  13.759  1.00  0.00    -0.227 N 
HETATM   15  C4  UNL     1      30.751  73.375  14.996  1.00  0.00     0.139 C 
ATOM     16  H4  UNL     1      30.450  71.872  13.535  1.00  0.00     0.177 HD
HETATM   17  C5  UNL     1      30.519  74.830  15.219  1.00  0.00     0.040 C 
HETATM   18  C6  UNL     1      29.280  75.348  14.560  1.00  0.00     0.139 C 
HETATM   19  N5  UNL     1      29.262  74.897  13.190  1.00  0.00    -0.227 N 
ATOM     20  H5  UNL     1      29.034  75.540  12.432  1.00  0.00     0.177 HD
ENDBRANCH  11  13
ENDBRANCH   1  11
TORSDOF 5
ENDMDL
MODEL 4
REMARK VINA RESULT: -4.838356626      1.102      1.847
REMARK  5 active torsions:
REMARK  status: ('A' for Active; 'I' for Inactive)
REMARK    1  A    between atoms: N1_1  and  C1_5 
REMARK    2  A    between atoms: C1_5  and  N2_6 
REMARK    3  A    between atoms: C1_5  and  C2_10 
REMARK    4  A    between atoms: C2_10  and  N3_11 
REMARK    5  A    between atoms: N3_11  and  C3_13 
ROOT
HETATM    1  C2  UNL     1      29.170  74.738  14.586  1.00  0.00     0.200 C 
ENDROOT
BRANCH   1   2
HETATM    2  C1  UNL     1      30.387  74.975  15.467  1.00  0.00     0.396 C 
BRANCH   2   3
HETATM    3  N1  UNL     1      30.307  74.072  16.597  1.00  0.00    -0.049 N 
ATOM      4  H13 UNL     1      30.083  74.535  17.478  1.00  0.00     0.276 HD
ATOM      5  H12 UNL     1      29.493  73.457  16.575  1.00  0.00     0.276 HD
ATOM      6  H11 UNL     1      31.198  73.575  16.609  1.00  0.00     0.276 HD
ENDBRANCH   2   3
BRANCH   2   7
HETATM    7  N2  UNL     1      30.282  76.328  16.042  1.00  0.00    -0.049 N 
ATOM      8  H23 UNL     1      30.431  76.359  17.050  1.00  0.00     0.276 HD
ATOM      9  H22 UNL     1      31.054  76.943  15.787  1.00  0.00     0.276 HD
ATOM     10  H21 UNL     1      29.367  76.674  15.750  1.00  0.00     0.276 HD
ENDBRANCH   2   7
ENDBRANCH   1   2
BRANCH   1  11
HETATM   11  N3  UNL     1      29.535  74.604  13.205  1.00  0.00    -0.223 N 
ATOM     12  H3  UNL     1      29.812  75.432  12.677  1.00  0.00     0.177 HD
BRANCH  11  13
HETATM   13  C3  UNL     1      29.516  73.331  12.558  1.00  0.00     0.669 C 
HETATM   14  N4  UNL     1      28.681  73.044  11.630  1.00  0.00    -0.227 N 
HETATM   15  C4  UNL     1      28.644  71.772  10.968  1.00  0.00     0.139 C 
ATOM     16  H4  UNL     1      28.009  73.756  11.347  1.00  0.00     0.177 HD
HETATM   17  C5  UNL     1      29.716  70.810  11.351  1.00  0.00     0.040 C 
HETATM   18  C6  UNL     1      30.196  70.975  12.758  1.00  0.00     0.139 C 
HETATM   19  N5  UNL     1      30.471  72.372  12.992  1.00  0.00    -0.227 N 
ATOM     20  H5  UNL     1      31.330  72.664  13.457  1.00  0.00     0.177 HD
ENDBRANCH  11  13
ENDBRANCH   1  11
TORSDOF 5
ENDMDL
MODEL 5
REMARK VINA RESULT: -4.721054653      1.543      5.209
REMARK  5 active torsions:
REMARK  status: ('A' for Active; 'I' for Inactive)
REMARK    1  A    between atoms: N1_1  and  C1_5 
REMARK    2  A    between atoms: C1_5  and  N2_6 
REMARK    3  A    between atoms: C1_5  and  C2_10 
REMARK    4  A    between atoms: C2_10  and  N3_11 
REMARK    5  A    between atoms: N3_11  and  C3_13 
ROOT
HETATM    1  C2  UNL     1      29.185  71.612  11.410  1.00  0.00     0.200 C 
ENDROOT
BRANCH   1   2
HETATM    2  C1  UNL     1      28.115  71.134  10.440  1.00  0.00     0.396 C 
BRANCH   2   3
HETATM    3  N1  UNL     1      28.190  69.690  10.363  1.00  0.00    -0.049 N 
ATOM      4  H13 UNL     1      29.095  69.310  10.641  1.00  0.00     0.276 HD
ATOM      5  H12 UNL     1      27.637  69.211  11.074  1.00  0.00     0.276 HD
ATOM      6  H11 UNL     1      27.923  69.456   9.407  1.00  0.00     0.276 HD
ENDBRANCH   2   3
BRANCH   2   7
HETATM    7  N2  UNL     1      28.469  71.615   9.093  1.00  0.00    -0.049 N 
ATOM      8  H23 UNL     1      27.663  71.778   8.489  1.00  0.00     0.276 HD
ATOM      9  H22 UNL     1      28.824  72.570   9.077  1.00  0.00     0.276 HD
ATOM     10  H21 UNL     1      29.126  70.926   8.725  1.00  0.00     0.276 HD
ENDBRANCH   2   7
ENDBRANCH   1   2
BRANCH   1  11
HETATM   11  N3  UNL     1      29.038  73.005  11.716  1.00  0.00    -0.223 N 
ATOM     12  H3  UNL     1      28.518  73.608  11.077  1.00  0.00     0.177 HD
BRANCH  11  13
HETATM   13  C3  UNL     1      29.609  73.564  12.900  1.00  0.00     0.669 C 
HETATM   14  N4  UNL     1      29.098  74.575  13.499  1.00  0.00    -0.227 N 
HETATM   15  C4  UNL     1      29.655  75.152  14.688  1.00  0.00     0.139 C 
ATOM     16  H4  UNL     1      28.252  74.990  13.110  1.00  0.00     0.177 HD
HETATM   17  C5  UNL     1      30.829  74.439  15.266  1.00  0.00     0.040 C 
HETATM   18  C6  UNL     1      31.661  73.729  14.246  1.00  0.00     0.139 C 
HETATM   19  N5  UNL     1      30.790  72.951  13.399  1.00  0.00    -0.227 N 
ATOM     20  H5  UNL     1      31.017  71.985  13.163  1.00  0.00     0.177 HD
ENDBRANCH  11  13
ENDBRANCH   1  11
TORSDOF 5
ENDMDL
