MODEL 1
REMARK VINA RESULT: -5.400804843      0.000      0.000
REMARK  6 active torsions:
REMARK  status: ('A' for Active; 'I' for Inactive)
REMARK    1  A    between atoms: N1_1  and  C1_4 
REMARK    2  A    between atoms: C5_10  and  C6_11 
REMARK    3  A    between atoms: C6_11  and  O1_12 
REMARK    4  A    between atoms: C6_11  and  C7_14 
REMARK    5  A    between atoms: C7_14  and  N3_15 
REMARK    6  A    between atoms: C7_14  and  C8_19 
ROOT
HETATM    1  C6  UNL     1      13.575  13.050  25.647  1.00  0.00     0.096 C 
ENDROOT
BRANCH   1   2
HETATM    2  C5  UNL     1      13.904  11.881  24.891  1.00  0.00     0.039 A 
HETATM    3  C1  UNL     1      13.782  10.626  25.528  1.00  0.00     0.111 A 
HETATM    4  N2  UNL     1      14.028   9.504  24.857  1.00  0.00    -0.352 N 
HETATM    5  C2  UNL     1      14.399   9.487  23.572  1.00  0.00     0.089 A 
ATOM      6  H2  UNL     1      13.931   8.614  25.346  1.00  0.00     0.166 HD
HETATM    7  C3  UNL     1      14.539  10.665  22.885  1.00  0.00     0.018 A 
HETATM    8  C4  UNL     1      14.283  11.862  23.572  1.00  0.00     0.019 A 
BRANCH   3   9
HETATM    9  N1  UNL     1      13.425  10.638  26.768  1.00  0.00    -0.385 N 
ATOM     10  H12 UNL     1      13.333   9.732  27.226  1.00  0.00     0.157 HD
ATOM     11  H11 UNL     1      13.239  11.499  27.282  1.00  0.00     0.157 HD
ENDBRANCH   3   9
ENDBRANCH   1   2
BRANCH   1  12
HETATM   12  O1  UNL     1      12.303  13.316  25.727  1.00  0.00    -0.361 OA
ATOM     13  H1  UNL     1      11.993  13.992  25.135  1.00  0.00     0.217 HD
ENDBRANCH   1  12
BRANCH   1  14
HETATM   14  C7  UNL     1      14.426  13.979  26.337  1.00  0.00     0.328 C 
BRANCH  14  15
HETATM   15  N3  UNL     1      15.852  13.761  25.993  1.00  0.00    -0.061 N 
ATOM     16  H33 UNL     1      16.075  12.768  25.932  1.00  0.00     0.275 HD
ATOM     17  H32 UNL     1      16.049  14.025  25.027  1.00  0.00     0.275 HD
ATOM     18  H31 UNL     1      16.468  14.244  26.646  1.00  0.00     0.275 HD
ENDBRANCH  14  15
BRANCH  14  19
HETATM   19  C8  UNL     1      14.337  14.154  27.775  1.00  0.00     0.268 C 
HETATM   20  N4  UNL     1      14.658  15.329  28.495  1.00  0.00    -0.060 NA
HETATM   21  O2  UNL     1      13.930  13.160  28.470  1.00  0.00    -0.274 OA
ENDBRANCH  14  19
ENDBRANCH   1  14
TORSDOF 6
ENDMDL
MODEL 2
REMARK VINA RESULT: -5.360631758      4.290      5.863
REMARK  6 active torsions:
REMARK  status: ('A' for Active; 'I' for Inactive)
REMARK    1  A    between atoms: N1_1  and  C1_4 
REMARK    2  A    between atoms: C5_10  and  C6_11 
REMARK    3  A    between atoms: C6_11  and  O1_12 
REMARK    4  A    between atoms: C6_11  and  C7_14 
REMARK    5  A    between atoms: C7_14  and  N3_15 
REMARK    6  A    between atoms: C7_14  and  C8_19 
ROOT
HETATM    1  C6  UNL     1      13.604  11.308  21.416  1.00  0.00     0.096 C 
ENDROOT
BRANCH   1   2
HETATM    2  C5  UNL     1      12.596  10.844  20.513  1.00  0.00     0.039 A 
HETATM    3  C1  UNL     1      13.003  10.040  19.425  1.00  0.00     0.111 A 
HETATM    4  N2  UNL     1      12.102   9.541  18.583  1.00  0.00    -0.352 N 
HETATM    5  C2  UNL     1      10.788   9.760  18.704  1.00  0.00     0.089 A 
ATOM      6  H2  UNL     1      12.429   8.964  17.808  1.00  0.00     0.166 HD
HETATM    7  C3  UNL     1      10.316  10.530  19.735  1.00  0.00     0.018 A 
HETATM    8  C4  UNL     1      11.247  11.066  20.637  1.00  0.00     0.019 A 
BRANCH   3   9
HETATM    9  N1  UNL     1      14.270   9.826  19.305  1.00  0.00    -0.385 N 
ATOM     10  H12 UNL     1      14.687  10.045  18.400  1.00  0.00     0.157 HD
ATOM     11  H11 UNL     1      14.844   9.457  20.063  1.00  0.00     0.157 HD
ENDBRANCH   3   9
ENDBRANCH   1   2
BRANCH   1  12
HETATM   12  O1  UNL     1      14.274  12.348  21.008  1.00  0.00    -0.361 OA
ATOM     13  H1  UNL     1      15.214  12.223  20.945  1.00  0.00     0.217 HD
ENDBRANCH   1  12
BRANCH   1  14
HETATM   14  C7  UNL     1      13.995  10.812  22.705  1.00  0.00     0.328 C 
BRANCH  14  15
HETATM   15  N3  UNL     1      13.985  11.891  23.723  1.00  0.00    -0.061 N 
ATOM     16  H33 UNL     1      13.974  12.814  23.290  1.00  0.00     0.275 HD
ATOM     17  H32 UNL     1      13.091  11.936  24.212  1.00  0.00     0.275 HD
ATOM     18  H31 UNL     1      14.764  11.792  24.374  1.00  0.00     0.275 HD
ENDBRANCH  14  15
BRANCH  14  19
HETATM   19  C8  UNL     1      15.218  10.049  22.877  1.00  0.00     0.268 C 
HETATM   20  N4  UNL     1      15.773   9.627  24.108  1.00  0.00    -0.060 NA
HETATM   21  O2  UNL     1      15.865   9.719  21.824  1.00  0.00    -0.274 OA
ENDBRANCH  14  19
ENDBRANCH   1  14
TORSDOF 6
ENDMDL
MODEL 3
REMARK VINA RESULT: -5.286624301      1.397      1.804
REMARK  6 active torsions:
REMARK  status: ('A' for Active; 'I' for Inactive)
REMARK    1  A    between atoms: N1_1  and  C1_4 
REMARK    2  A    between atoms: C5_10  and  C6_11 
REMARK    3  A    between atoms: C6_11  and  O1_12 
REMARK    4  A    between atoms: C6_11  and  C7_14 
REMARK    5  A    between atoms: C7_14  and  N3_15 
REMARK    6  A    between atoms: C7_14  and  C8_19 
ROOT
HETATM    1  C6  UNL     1      13.853  13.241  25.362  1.00  0.00     0.096 C 
ENDROOT
BRANCH   1   2
HETATM    2  C5  UNL     1      13.959  11.892  24.899  1.00  0.00     0.039 A 
HETATM    3  C1  UNL     1      13.696  10.855  25.821  1.00  0.00     0.111 A 
HETATM    4  N2  UNL     1      13.733   9.583  25.432  1.00  0.00    -0.352 N 
HETATM    5  C2  UNL     1      14.014   9.210  24.178  1.00  0.00     0.089 A 
ATOM      6  H2  UNL     1      13.538   8.858  26.122  1.00  0.00     0.166 HD
HETATM    7  C3  UNL     1      14.280  10.159  23.226  1.00  0.00     0.018 A 
HETATM    8  C4  UNL     1      14.246  11.508  23.613  1.00  0.00     0.019 A 
BRANCH   3   9
HETATM    9  N1  UNL     1      13.425  11.210  27.032  1.00  0.00    -0.385 N 
ATOM     10  H12 UNL     1      12.442  11.196  27.304  1.00  0.00     0.157 HD
ATOM     11  H11 UNL     1      14.142  11.493  27.699  1.00  0.00     0.157 HD
ENDBRANCH   3   9
ENDBRANCH   1   2
BRANCH   1  12
HETATM   12  O1  UNL     1      12.652  13.618  25.698  1.00  0.00    -0.361 OA
ATOM     13  H1  UNL     1      12.090  12.927  26.027  1.00  0.00     0.217 HD
ENDBRANCH   1  12
BRANCH   1  14
HETATM   14  C7  UNL     1      14.863  14.251  25.521  1.00  0.00     0.328 C 
BRANCH  14  15
HETATM   15  N3  UNL     1      15.561  14.114  26.822  1.00  0.00    -0.061 N 
ATOM     16  H33 UNL     1      15.386  14.916  27.428  1.00  0.00     0.275 HD
ATOM     17  H32 UNL     1      15.139  13.386  27.399  1.00  0.00     0.275 HD
ATOM     18  H31 UNL     1      16.560  13.956  26.691  1.00  0.00     0.275 HD
ENDBRANCH  14  15
BRANCH  14  19
HETATM   19  C8  UNL     1      14.558  15.656  25.324  1.00  0.00     0.268 C 
HETATM   20  N4  UNL     1      14.920  16.717  26.187  1.00  0.00    -0.060 NA
HETATM   21  O2  UNL     1      13.902  15.980  24.275  1.00  0.00    -0.274 OA
ENDBRANCH  14  19
ENDBRANCH   1  14
TORSDOF 6
ENDMDL
MODEL 4
REMARK VINA RESULT: -5.281670093      3.847      5.305
REMARK  6 active torsions:
REMARK  status: ('A' for Active; 'I' for Inactive)
REMARK    1  A    between atoms: N1_1  and  C1_4 
REMARK    2  A    between atoms: C5_10  and  C6_11 
REMARK    3  A    between atoms: C6_11  and  O1_12 
REMARK    4  A    between atoms: C6_11  and  C7_14 
REMARK    5  A    between atoms: C7_14  and  N3_15 
REMARK    6  A    between atoms: C7_14  and  C8_19 
ROOT
HETATM    1  C6  UNL     1      13.976  11.488  21.368  1.00  0.00     0.096 C 
ENDROOT
BRANCH   1   2
HETATM    2  C5  UNL     1      12.913  10.952  20.576  1.00  0.00     0.039 A 
HETATM    3  C1  UNL     1      13.242  10.004  19.582  1.00  0.00     0.111 A 
HETATM    4  N2  UNL     1      12.288   9.437  18.849  1.00  0.00    -0.352 N 
HETATM    5  C2  UNL     1      10.988   9.717  18.998  1.00  0.00     0.089 A 
ATOM      6  H2  UNL     1      12.559   8.756  18.140  1.00  0.00     0.166 HD
HETATM    7  C3  UNL     1      10.589  10.627  19.943  1.00  0.00     0.018 A 
HETATM    8  C4  UNL     1      11.579  11.237  20.729  1.00  0.00     0.019 A 
BRANCH   3   9
HETATM    9  N1  UNL     1      14.495   9.730  19.435  1.00  0.00    -0.385 N 
ATOM     10  H12 UNL     1      14.768   9.292  18.555  1.00  0.00     0.157 HD
ATOM     11  H11 UNL     1      15.194   9.934  20.149  1.00  0.00     0.157 HD
ENDBRANCH   3   9
ENDBRANCH   1   2
BRANCH   1  12
HETATM   12  O1  UNL     1      14.678  12.422  20.792  1.00  0.00    -0.361 OA
ATOM     13  H1  UNL     1      15.347  12.818  21.337  1.00  0.00     0.217 HD
ENDBRANCH   1  12
BRANCH   1  14
HETATM   14  C7  UNL     1      14.394  11.163  22.703  1.00  0.00     0.328 C 
BRANCH  14  15
HETATM   15  N3  UNL     1      13.911   9.820  23.107  1.00  0.00    -0.061 N 
ATOM     16  H33 UNL     1      13.424   9.352  22.343  1.00  0.00     0.275 HD
ATOM     17  H32 UNL     1      14.683   9.164  23.225  1.00  0.00     0.275 HD
ATOM     18  H31 UNL     1      13.331   9.872  23.944  1.00  0.00     0.275 HD
ENDBRANCH  14  15
BRANCH  14  19
HETATM   19  C8  UNL     1      14.155  12.073  23.808  1.00  0.00     0.268 C 
HETATM   20  N4  UNL     1      13.658  11.723  25.086  1.00  0.00    -0.060 NA
HETATM   21  O2  UNL     1      14.415  13.312  23.624  1.00  0.00    -0.274 OA
ENDBRANCH  14  19
ENDBRANCH   1  14
TORSDOF 6
ENDMDL
MODEL 5
REMARK VINA RESULT: -5.183889535      1.067      1.086
REMARK  6 active torsions:
REMARK  status: ('A' for Active; 'I' for Inactive)
REMARK    1  A    between atoms: N1_1  and  C1_4 
REMARK    2  A    between atoms: C5_10  and  C6_11 
REMARK    3  A    between atoms: C6_11  and  O1_12 
REMARK    4  A    between atoms: C6_11  and  C7_14 
REMARK    5  A    between atoms: C7_14  and  N3_15 
REMARK    6  A    between atoms: C7_14  and  C8_19 
ROOT
HETATM    1  C6  UNL     1      13.833  13.016  25.681  1.00  0.00     0.096 C 
ENDROOT
BRANCH   1   2
HETATM    2  C5  UNL     1      13.917  11.680  25.178  1.00  0.00     0.039 A 
HETATM    3  C1  UNL     1      13.659  10.618  26.074  1.00  0.00     0.111 A 
HETATM    4  N2  UNL     1      13.676   9.358  25.648  1.00  0.00    -0.352 N 
HETATM    5  C2  UNL     1      13.931   9.019  24.379  1.00  0.00     0.089 A 
ATOM      6  H2  UNL     1      13.486   8.615  26.320  1.00  0.00     0.166 HD
HETATM    7  C3  UNL     1      14.190   9.993  23.450  1.00  0.00     0.018 A 
HETATM    8  C4  UNL     1      14.176  11.330  23.876  1.00  0.00     0.019 A 
BRANCH   3   9
HETATM    9  N1  UNL     1      13.413  10.941  27.299  1.00  0.00    -0.385 N 
ATOM     10  H12 UNL     1      12.436  10.924  27.590  1.00  0.00     0.157 HD
ATOM     11  H11 UNL     1      14.145  11.203  27.960  1.00  0.00     0.157 HD
ENDBRANCH   3   9
ENDBRANCH   1   2
BRANCH   1  12
HETATM   12  O1  UNL     1      12.625  13.492  25.787  1.00  0.00    -0.361 OA
ATOM     13  H1  UNL     1      12.432  13.922  26.612  1.00  0.00     0.217 HD
ENDBRANCH   1  12
BRANCH   1  14
HETATM   14  C7  UNL     1      14.871  13.919  26.094  1.00  0.00     0.328 C 
BRANCH  14  15
HETATM   15  N3  UNL     1      16.208  13.424  25.686  1.00  0.00    -0.061 N 
ATOM     16  H33 UNL     1      16.943  13.788  26.292  1.00  0.00     0.275 HD
ATOM     17  H32 UNL     1      16.317  12.430  25.888  1.00  0.00     0.275 HD
ATOM     18  H31 UNL     1      16.396  13.631  24.705  1.00  0.00     0.275 HD
ENDBRANCH  14  15
BRANCH  14  19
HETATM   19  C8  UNL     1      14.965  14.377  27.468  1.00  0.00     0.268 C 
HETATM   20  N4  UNL     1      14.336  13.788  28.590  1.00  0.00    -0.060 NA
HETATM   21  O2  UNL     1      15.683  15.410  27.701  1.00  0.00    -0.274 OA
ENDBRANCH  14  19
ENDBRANCH   1  14
TORSDOF 6
ENDMDL
