MODEL 1
REMARK VINA RESULT: -6.191851796      0.000      0.000
REMARK  3 active torsions:
REMARK  status: ('A' for Active; 'I' for Inactive)
REMARK       I    between atoms: C1_2  and  N2_4 
REMARK    1  A    between atoms: N2_4  and  N3_6 
REMARK    2  A    between atoms: C2_8  and  N4_9 
REMARK    3  A    between atoms: N4_9  and  C3_11 
ROOT
HETATM    1  N4  UNL     1      14.462  10.191  20.668  1.00  0.00    -0.351 N 
ATOM      2  H4  UNL     1      15.193   9.514  20.454  1.00  0.00     0.166 HD
ENDROOT
BRANCH   1   3
HETATM    3  C2  UNL     1      13.444  10.454  19.729  1.00  0.00     0.197 C 
HETATM    4  N3  UNL     1      12.594   9.551  19.438  1.00  0.00    -0.293 N 
ATOM      5  H3  UNL     1      12.687   8.649  19.908  1.00  0.00     0.187 HD
BRANCH   4   6
HETATM    6  N2  UNL     1      11.551   9.696  18.532  1.00  0.00    -0.253 N 
HETATM    7  C1  UNL     1      10.226   9.946  19.005  1.00  0.00     0.347 C 
HETATM    8  N1  UNL     1       9.168  10.093  18.073  1.00  0.00    -0.038 NA
HETATM    9  O1  UNL     1      10.008  10.034  20.234  1.00  0.00    -0.249 OA
ATOM     10  H2  UNL     1      11.731   9.623  17.530  1.00  0.00     0.191 HD
ENDBRANCH   4   6
ENDBRANCH   1   3
BRANCH   1  11
HETATM   11  C3  UNL     1      14.462  10.876  21.915  1.00  0.00     0.039 A 
HETATM   12  C4  UNL     1      14.691  12.235  21.988  1.00  0.00     0.046 A 
HETATM   13  C5  UNL     1      14.689  12.896  23.209  1.00  0.00     0.093 A 
HETATM   14  N5  UNL     1      14.465  12.239  24.362  1.00  0.00    -0.334 N 
HETATM   15  C6  UNL     1      14.240  10.915  24.310  1.00  0.00     0.247 A 
ATOM     16  H5  UNL     1      14.466  12.733  25.254  1.00  0.00     0.168 HD
HETATM   17  O2  UNL     1      14.025  10.254  25.357  1.00  0.00    -0.268 OA
HETATM   18  C7  UNL     1      14.235  10.226  23.111  1.00  0.00     0.104 A 
ENDBRANCH   1  11
TORSDOF 3
ENDMDL
MODEL 2
REMARK VINA RESULT: -6.131312747      1.117      1.667
REMARK  3 active torsions:
REMARK  status: ('A' for Active; 'I' for Inactive)
REMARK       I    between atoms: C1_2  and  N2_4 
REMARK    1  A    between atoms: N2_4  and  N3_6 
REMARK    2  A    between atoms: C2_8  and  N4_9 
REMARK    3  A    between atoms: N4_9  and  C3_11 
ROOT
HETATM    1  N4  UNL     1      14.346  10.112  20.866  1.00  0.00    -0.351 N 
ATOM      2  H4  UNL     1      15.073   9.444  20.610  1.00  0.00     0.166 HD
ENDROOT
BRANCH   1   3
HETATM    3  C2  UNL     1      13.342  10.456  19.939  1.00  0.00     0.197 C 
HETATM    4  N3  UNL     1      12.578   9.555  19.462  1.00  0.00    -0.293 N 
ATOM      5  H3  UNL     1      12.727   8.596  19.778  1.00  0.00     0.187 HD
BRANCH   4   6
HETATM    6  N2  UNL     1      11.557   9.775  18.545  1.00  0.00    -0.253 N 
HETATM    7  C1  UNL     1      10.219   9.978  19.005  1.00  0.00     0.347 C 
HETATM    8  N1  UNL     1       9.184  10.203  18.063  1.00  0.00    -0.038 NA
HETATM    9  O1  UNL     1       9.970   9.958  20.231  1.00  0.00    -0.249 OA
ATOM     10  H2  UNL     1      11.762   9.791  17.546  1.00  0.00     0.191 HD
ENDBRANCH   4   6
ENDBRANCH   1   3
BRANCH   1  11
HETATM   11  C3  UNL     1      14.340  10.704  22.160  1.00  0.00     0.039 A 
HETATM   12  C4  UNL     1      14.251   9.933  23.301  1.00  0.00     0.046 A 
HETATM   13  C5  UNL     1      14.246  10.518  24.560  1.00  0.00     0.093 A 
HETATM   14  N5  UNL     1      14.328  11.853  24.714  1.00  0.00    -0.334 N 
HETATM   15  C6  UNL     1      14.415  12.619  23.614  1.00  0.00     0.247 A 
ATOM     16  H5  UNL     1      14.323  12.272  25.644  1.00  0.00     0.168 HD
HETATM   17  O2  UNL     1      14.493  13.869  23.701  1.00  0.00    -0.268 OA
HETATM   18  C7  UNL     1      14.422  12.069  22.345  1.00  0.00     0.104 A 
ENDBRANCH   1  11
TORSDOF 3
ENDMDL
MODEL 3
REMARK VINA RESULT: -6.041796712      0.977      1.051
REMARK  3 active torsions:
REMARK  status: ('A' for Active; 'I' for Inactive)
REMARK       I    between atoms: C1_2  and  N2_4 
REMARK    1  A    between atoms: N2_4  and  N3_6 
REMARK    2  A    between atoms: C2_8  and  N4_9 
REMARK    3  A    between atoms: N4_9  and  C3_11 
ROOT
HETATM    1  N4  UNL     1      14.485  10.235  20.522  1.00  0.00    -0.351 N 
ATOM      2  H4  UNL     1      15.053   9.388  20.513  1.00  0.00     0.166 HD
ENDROOT
BRANCH   1   3
HETATM    3  C2  UNL     1      13.454  10.407  19.577  1.00  0.00     0.197 C 
HETATM    4  N3  UNL     1      12.545   9.522  19.456  1.00  0.00    -0.293 N 
ATOM      5  H3  UNL     1      12.601   8.704  20.064  1.00  0.00     0.187 HD
BRANCH   4   6
HETATM    6  N2  UNL     1      11.483   9.584  18.562  1.00  0.00    -0.253 N 
HETATM    7  C1  UNL     1      10.172   9.903  19.035  1.00  0.00     0.347 C 
HETATM    8  N1  UNL     1       9.095   9.964  18.115  1.00  0.00    -0.038 NA
HETATM    9  O1  UNL     1       9.984  10.126  20.251  1.00  0.00    -0.249 OA
ATOM     10  H2  UNL     1      11.638   9.402  17.570  1.00  0.00     0.191 HD
ENDBRANCH   4   6
ENDBRANCH   1   3
BRANCH   1  11
HETATM   11  C3  UNL     1      14.729  11.251  21.489  1.00  0.00     0.039 A 
HETATM   12  C4  UNL     1      15.659  12.245  21.266  1.00  0.00     0.046 A 
HETATM   13  C5  UNL     1      15.890  13.232  22.215  1.00  0.00     0.093 A 
HETATM   14  N5  UNL     1      15.219  13.256  23.381  1.00  0.00    -0.334 N 
HETATM   15  C6  UNL     1      14.309  12.295  23.615  1.00  0.00     0.247 A 
ATOM     16  H5  UNL     1      15.396  13.986  24.071  1.00  0.00     0.168 HD
HETATM   17  O2  UNL     1      13.655  12.270  24.687  1.00  0.00    -0.268 OA
HETATM   18  C7  UNL     1      14.054  11.297  22.692  1.00  0.00     0.104 A 
ENDBRANCH   1  11
TORSDOF 3
ENDMDL
MODEL 4
REMARK VINA RESULT: -6.033692133      3.248      4.304
REMARK  3 active torsions:
REMARK  status: ('A' for Active; 'I' for Inactive)
REMARK       I    between atoms: C1_2  and  N2_4 
REMARK    1  A    between atoms: N2_4  and  N3_6 
REMARK    2  A    between atoms: C2_8  and  N4_9 
REMARK    3  A    between atoms: N4_9  and  C3_11 
ROOT
HETATM    1  N4  UNL     1      14.366   9.783  19.840  1.00  0.00    -0.351 N 
ATOM      2  H4  UNL     1      14.280   9.144  20.630  1.00  0.00     0.166 HD
ENDROOT
BRANCH   1   3
HETATM    3  C2  UNL     1      13.220  10.185  19.126  1.00  0.00     0.197 C 
HETATM    4  N3  UNL     1      12.205   9.417  19.062  1.00  0.00    -0.293 N 
ATOM      5  H3  UNL     1      12.264   8.519  19.543  1.00  0.00     0.187 HD
BRANCH   4   6
HETATM    6  N2  UNL     1      11.024   9.707  18.390  1.00  0.00    -0.253 N 
HETATM    7  C1  UNL     1       9.898  10.209  19.113  1.00  0.00     0.347 C 
HETATM    8  N1  UNL     1       8.697  10.503  18.419  1.00  0.00    -0.038 NA
HETATM    9  O1  UNL     1       9.979  10.388  20.349  1.00  0.00    -0.249 OA
ATOM     10  H2  UNL     1      10.960   9.561  17.382  1.00  0.00     0.191 HD
ENDBRANCH   4   6
ENDBRANCH   1   3
BRANCH   1  11
HETATM   11  C3  UNL     1      15.644  10.272  19.451  1.00  0.00     0.039 A 
HETATM   12  C4  UNL     1      16.744  10.142  20.274  1.00  0.00     0.046 A 
HETATM   13  C5  UNL     1      17.987  10.622  19.887  1.00  0.00     0.093 A 
HETATM   14  N5  UNL     1      18.167  11.231  18.699  1.00  0.00    -0.334 N 
HETATM   15  C6  UNL     1      17.106  11.367  17.885  1.00  0.00     0.247 A 
ATOM     16  H5  UNL     1      19.084  11.580  18.425  1.00  0.00     0.168 HD
HETATM   17  O2  UNL     1      17.218  11.927  16.766  1.00  0.00    -0.268 OA
HETATM   18  C7  UNL     1      15.854  10.900  18.239  1.00  0.00     0.104 A 
ENDBRANCH   1  11
TORSDOF 3
ENDMDL
MODEL 5
REMARK VINA RESULT: -5.997573783      2.240      3.211
REMARK  3 active torsions:
REMARK  status: ('A' for Active; 'I' for Inactive)
REMARK       I    between atoms: C1_2  and  N2_4 
REMARK    1  A    between atoms: N2_4  and  N3_6 
REMARK    2  A    between atoms: C2_8  and  N4_9 
REMARK    3  A    between atoms: N4_9  and  C3_11 
ROOT
HETATM    1  N4  UNL     1      14.227  12.235  23.360  1.00  0.00    -0.351 N 
ATOM      2  H4  UNL     1      14.560  13.112  22.959  1.00  0.00     0.166 HD
ENDROOT
BRANCH   1   3
HETATM    3  C2  UNL     1      13.917  11.146  22.522  1.00  0.00     0.197 C 
HETATM    4  N3  UNL     1      13.333  11.344  21.406  1.00  0.00    -0.293 N 
ATOM      5  H3  UNL     1      13.108  12.308  21.158  1.00  0.00     0.187 HD
BRANCH   4   6
HETATM    6  N2  UNL     1      12.979  10.351  20.501  1.00  0.00    -0.253 N 
HETATM    7  C1  UNL     1      11.654  10.315  19.966  1.00  0.00     0.347 C 
HETATM    8  N1  UNL     1      11.303   9.298  19.042  1.00  0.00    -0.038 NA
HETATM    9  O1  UNL     1      10.817  11.177  20.313  1.00  0.00    -0.249 OA
ATOM     10  H2  UNL     1      13.664   9.649  20.219  1.00  0.00     0.191 HD
ENDBRANCH   4   6
ENDBRANCH   1   3
BRANCH   1  11
HETATM   11  C3  UNL     1      14.073  12.104  24.769  1.00  0.00     0.039 A 
HETATM   12  C4  UNL     1      13.955  10.866  25.366  1.00  0.00     0.046 A 
HETATM   13  C5  UNL     1      13.806  10.747  26.741  1.00  0.00     0.093 A 
HETATM   14  N5  UNL     1      13.769  11.830  27.539  1.00  0.00    -0.334 N 
HETATM   15  C6  UNL     1      13.882  13.045  26.974  1.00  0.00     0.247 A 
ATOM     16  H5  UNL     1      13.659  11.732  28.548  1.00  0.00     0.168 HD
HETATM   17  O2  UNL     1      13.855  14.088  27.673  1.00  0.00    -0.268 OA
HETATM   18  C7  UNL     1      14.033  13.199  25.609  1.00  0.00     0.104 A 
ENDBRANCH   1  11
TORSDOF 3
ENDMDL
