MODEL 1
REMARK VINA RESULT: -8.168077873      0.000      0.000
REMARK  14 active torsions:
REMARK  status: ('A' for Active; 'I' for Inactive)
REMARK    1  A    between atoms: C2_3  and  O1_4 
REMARK    2  A    between atoms: N2_7  and  O2_8 
REMARK    3  A    between atoms: C4_10  and  S1_11 
REMARK    4  A    between atoms: S1_11  and  S2_12 
REMARK    5  A    between atoms: S2_12  and  C5_13 
REMARK    6  A    between atoms: C5_13  and  C6_14 
REMARK    7  A    between atoms: C8_19  and  N5_20 
REMARK    8  A    between atoms: N7_27  and  C10_28 
REMARK    9  A    between atoms: C10_28  and  C11_29 
REMARK   10  A    between atoms: C11_29  and  O4_30 
REMARK   11  A    between atoms: O4_30  and  C12_31 
REMARK   12  A    between atoms: C12_31  and  C13_32 
REMARK   13  A    between atoms: C13_32  and  O5_33 
REMARK   14  A    between atoms: C15_37  and  O7_39 
ROOT
HETATM    1  C6  UNL     1      16.604  12.414  24.237  1.00  0.00     0.166 C 
HETATM    2  N3  UNL     1      15.613  11.475  24.459  1.00  0.00    -0.122 N 
HETATM    3  C7  UNL     1      15.030  10.735  23.513  1.00  0.00     0.708 A 
HETATM    4  N4  UNL     1      14.095   9.767  23.758  1.00  0.00    -0.022 N 
ATOM      5  H4  UNL     1      13.691   9.234  22.988  1.00  0.00     0.203 HD
HETATM    6  C8  UNL     1      13.715   9.526  25.019  1.00  0.00     0.694 A 
HETATM    7  N6  UNL     1      14.271  10.251  25.999  1.00  0.00    -0.140 N 
ATOM      8  H6  UNL     1      13.990  10.081  26.965  1.00  0.00     0.189 HD
HETATM    9  C9  UNL     1      15.187  11.196  25.741  1.00  0.00     0.355 A 
HETATM   10  O3  UNL     1      15.714  11.893  26.618  1.00  0.00    -0.245 OA
HETATM   11  N7  UNL     1      15.259  11.033  22.116  1.00  0.00    -0.145 N 
HETATM   12  C14 UNL     1      16.122  12.147  21.860  1.00  0.00     0.274 C 
HETATM   13  O6  UNL     1      15.945  12.815  20.835  1.00  0.00    -0.269 OA
HETATM   14  C15 UNL     1      17.176  12.425  22.847  1.00  0.00     0.158 C 
HETATM   15  C16 UNL     1      18.270  11.393  22.615  1.00  0.00     0.059 C 
ENDROOT
BRANCH   1  16
HETATM   16  C5  UNL     1      17.776  12.544  25.175  1.00  0.00     0.116 C 
BRANCH  16  17
HETATM   17  S2  UNL     1      18.412  14.122  25.551  1.00  0.00    -0.087 SA
BRANCH  17  18
HETATM   18  S1  UNL     1      18.623  14.816  27.464  1.00  0.00    -0.019 SA
BRANCH  18  19
HETATM   19  C4  UNL     1      17.215  14.695  28.505  1.00  0.00     0.185 A 
HETATM   20  N1  UNL     1      17.237  14.540  29.857  1.00  0.00    -0.309 N 
HETATM   21  C1  UNL     1      18.462  14.484  30.639  1.00  0.00     0.160 C 
HETATM   22  C2  UNL     1      16.017  14.448  30.364  1.00  0.00     0.162 A 
HETATM   23  C3  UNL     1      15.156  14.545  29.320  1.00  0.00     0.181 A 
HETATM   24  N2  UNL     1      15.924  14.695  28.192  1.00  0.00    -0.208 N 
BRANCH  22  25
HETATM   25  O1  UNL     1      15.672  14.284  31.698  1.00  0.00    -0.345 OA
ATOM     26  H1  UNL     1      14.872  13.904  32.042  1.00  0.00     0.219 HD
ENDBRANCH  22  25
BRANCH  24  27
HETATM   27  O2  UNL     1      15.296  14.798  26.976  1.00  0.00    -0.281 OA
ATOM     28  H2  UNL     1      15.186  14.014  26.451  1.00  0.00     0.245 HD
ENDBRANCH  24  27
ENDBRANCH  18  19
ENDBRANCH  17  18
ENDBRANCH  16  17
ENDBRANCH   1  16
BRANCH  14  29
HETATM   29  O7  UNL     1      17.690  13.719  22.628  1.00  0.00    -0.378 OA
ATOM     30  H7  UNL     1      18.436  13.820  23.208  1.00  0.00     0.211 HD
ENDBRANCH  14  29
BRANCH  11  31
HETATM   31  C10 UNL     1      14.639  10.243  21.109  1.00  0.00     0.177 C 
BRANCH  31  32
HETATM   32  C11 UNL     1      13.315  10.872  20.632  1.00  0.00     0.188 C 
BRANCH  32  33
HETATM   33  O4  UNL     1      13.003  10.299  19.433  1.00  0.00    -0.387 OA
BRANCH  33  34
HETATM   34  C12 UNL     1      11.750   9.915  19.152  1.00  0.00     0.193 C 
BRANCH  34  35
HETATM   35  C13 UNL     1      10.612  10.548  19.901  1.00  0.00     0.190 C 
BRANCH  35  36
HETATM   36  O5  UNL     1       9.514   9.718  19.907  1.00  0.00    -0.399 OA
ATOM     37  H5  UNL     1       8.732  10.196  19.658  1.00  0.00     0.209 HD
ENDBRANCH  35  36
ENDBRANCH  34  35
ENDBRANCH  33  34
ENDBRANCH  32  33
ENDBRANCH  31  32
ENDBRANCH  11  31
BRANCH   6  38
HETATM   38  N5  UNL     1      12.837   8.624  25.321  1.00  0.00    -0.234 N 
ATOM     39  H52 UNL     1      13.030   7.647  25.099  1.00  0.00     0.174 HD
ATOM     40  H51 UNL     1      11.952   8.851  25.775  1.00  0.00     0.174 HD
ENDBRANCH   6  38
TORSDOF 14
ENDMDL
MODEL 2
REMARK VINA RESULT: -7.500553720      1.868      2.453
REMARK  14 active torsions:
REMARK  status: ('A' for Active; 'I' for Inactive)
REMARK    1  A    between atoms: C2_3  and  O1_4 
REMARK    2  A    between atoms: N2_7  and  O2_8 
REMARK    3  A    between atoms: C4_10  and  S1_11 
REMARK    4  A    between atoms: S1_11  and  S2_12 
REMARK    5  A    between atoms: S2_12  and  C5_13 
REMARK    6  A    between atoms: C5_13  and  C6_14 
REMARK    7  A    between atoms: C8_19  and  N5_20 
REMARK    8  A    between atoms: N7_27  and  C10_28 
REMARK    9  A    between atoms: C10_28  and  C11_29 
REMARK   10  A    between atoms: C11_29  and  O4_30 
REMARK   11  A    between atoms: O4_30  and  C12_31 
REMARK   12  A    between atoms: C12_31  and  C13_32 
REMARK   13  A    between atoms: C13_32  and  O5_33 
REMARK   14  A    between atoms: C15_37  and  O7_39 
ROOT
HETATM    1  C6  UNL     1      16.157  12.604  25.385  1.00  0.00     0.166 C 
HETATM    2  N3  UNL     1      15.263  11.549  25.395  1.00  0.00    -0.122 N 
HETATM    3  C7  UNL     1      15.172  10.610  24.451  1.00  0.00     0.708 A 
HETATM    4  N4  UNL     1      14.323   9.537  24.508  1.00  0.00    -0.022 N 
ATOM      5  H4  UNL     1      14.306   8.853  23.753  1.00  0.00     0.203 HD
HETATM    6  C8  UNL     1      13.515   9.397  25.566  1.00  0.00     0.694 A 
HETATM    7  N6  UNL     1      13.569  10.322  26.534  1.00  0.00    -0.140 N 
ATOM      8  H6  UNL     1      12.958  10.230  27.345  1.00  0.00     0.189 HD
HETATM    9  C9  UNL     1      14.408  11.366  26.463  1.00  0.00     0.355 A 
HETATM   10  O3  UNL     1      14.479  12.245  27.331  1.00  0.00    -0.245 OA
HETATM   11  N7  UNL     1      15.889  10.764  23.203  1.00  0.00    -0.145 N 
HETATM   12  C14 UNL     1      16.659  11.964  23.084  1.00  0.00     0.274 C 
HETATM   13  O6  UNL     1      16.822  12.460  21.963  1.00  0.00    -0.269 OA
HETATM   14  C15 UNL     1      17.216  12.535  24.320  1.00  0.00     0.158 C 
HETATM   15  C16 UNL     1      18.418  11.678  24.690  1.00  0.00     0.059 C 
ENDROOT
BRANCH   1  16
HETATM   16  C5  UNL     1      16.856  13.043  26.645  1.00  0.00     0.116 C 
BRANCH  16  17
HETATM   17  S2  UNL     1      16.984  14.741  27.016  1.00  0.00    -0.087 SA
BRANCH  17  18
HETATM   18  S1  UNL     1      18.716  15.617  27.661  1.00  0.00    -0.019 SA
BRANCH  18  19
HETATM   19  C4  UNL     1      19.210  15.264  29.308  1.00  0.00     0.185 A 
HETATM   20  N1  UNL     1      20.418  15.567  29.858  1.00  0.00    -0.309 N 
HETATM   21  C1  UNL     1      21.473  16.268  29.143  1.00  0.00     0.160 C 
HETATM   22  C2  UNL     1      20.510  15.147  31.111  1.00  0.00     0.162 A 
HETATM   23  C3  UNL     1      19.330  14.547  31.405  1.00  0.00     0.181 A 
HETATM   24  N2  UNL     1      18.553  14.635  30.277  1.00  0.00    -0.208 N 
BRANCH  22  25
HETATM   25  O1  UNL     1      21.594  15.286  31.965  1.00  0.00    -0.345 OA
ATOM     26  H1  UNL     1      21.593  15.206  32.912  1.00  0.00     0.219 HD
ENDBRANCH  22  25
BRANCH  24  27
HETATM   27  O2  UNL     1      17.297  14.083  30.296  1.00  0.00    -0.281 OA
ATOM     28  H2  UNL     1      17.183  13.223  30.682  1.00  0.00     0.245 HD
ENDBRANCH  24  27
ENDBRANCH  18  19
ENDBRANCH  17  18
ENDBRANCH  16  17
ENDBRANCH   1  16
BRANCH  14  29
HETATM   29  O7  UNL     1      17.634  13.859  24.075  1.00  0.00    -0.378 OA
ATOM     30  H7  UNL     1      17.195  14.143  23.281  1.00  0.00     0.211 HD
ENDBRANCH  14  29
BRANCH  11  31
HETATM   31  C10 UNL     1      15.792   9.762  22.199  1.00  0.00     0.177 C 
BRANCH  31  32
HETATM   32  C11 UNL     1      14.941  10.238  21.005  1.00  0.00     0.188 C 
BRANCH  32  33
HETATM   33  O4  UNL     1      13.661  10.388  21.454  1.00  0.00    -0.387 OA
BRANCH  33  34
HETATM   34  C12 UNL     1      12.746  11.050  20.732  1.00  0.00     0.193 C 
BRANCH  34  35
HETATM   35  C13 UNL     1      11.653  10.272  20.056  1.00  0.00     0.190 C 
BRANCH  35  36
HETATM   36  O5  UNL     1      12.163   9.512  19.029  1.00  0.00    -0.399 OA
ATOM     37  H5  UNL     1      12.980   9.102  19.288  1.00  0.00     0.209 HD
ENDBRANCH  35  36
ENDBRANCH  34  35
ENDBRANCH  33  34
ENDBRANCH  32  33
ENDBRANCH  31  32
ENDBRANCH  11  31
BRANCH   6  38
HETATM   38  N5  UNL     1      12.689   8.407  25.684  1.00  0.00    -0.234 N 
ATOM     39  H52 UNL     1      11.786   8.564  26.130  1.00  0.00     0.174 HD
ATOM     40  H51 UNL     1      12.905   7.469  25.346  1.00  0.00     0.174 HD
ENDBRANCH   6  38
TORSDOF 14
ENDMDL
MODEL 3
REMARK VINA RESULT: -7.492355166      3.654      5.690
REMARK  14 active torsions:
REMARK  status: ('A' for Active; 'I' for Inactive)
REMARK    1  A    between atoms: C2_3  and  O1_4 
REMARK    2  A    between atoms: N2_7  and  O2_8 
REMARK    3  A    between atoms: C4_10  and  S1_11 
REMARK    4  A    between atoms: S1_11  and  S2_12 
REMARK    5  A    between atoms: S2_12  and  C5_13 
REMARK    6  A    between atoms: C5_13  and  C6_14 
REMARK    7  A    between atoms: C8_19  and  N5_20 
REMARK    8  A    between atoms: N7_27  and  C10_28 
REMARK    9  A    between atoms: C10_28  and  C11_29 
REMARK   10  A    between atoms: C11_29  and  O4_30 
REMARK   11  A    between atoms: O4_30  and  C12_31 
REMARK   12  A    between atoms: C12_31  and  C13_32 
REMARK   13  A    between atoms: C13_32  and  O5_33 
REMARK   14  A    between atoms: C15_37  and  O7_39 
ROOT
HETATM    1  C6  UNL     1      17.902  14.349  27.013  1.00  0.00     0.166 C 
HETATM    2  N3  UNL     1      17.121  14.320  28.154  1.00  0.00    -0.122 N 
HETATM    3  C7  UNL     1      15.946  13.697  28.265  1.00  0.00     0.708 A 
HETATM    4  N4  UNL     1      15.215  13.627  29.420  1.00  0.00    -0.022 N 
ATOM      5  H4  UNL     1      14.324  13.130  29.437  1.00  0.00     0.203 HD
HETATM    6  C8  UNL     1      15.682  14.216  30.527  1.00  0.00     0.694 A 
HETATM    7  N6  UNL     1      16.856  14.859  30.459  1.00  0.00    -0.140 N 
ATOM      8  H6  UNL     1      17.223  15.316  31.293  1.00  0.00     0.189 HD
HETATM    9  C9  UNL     1      17.559  14.917  29.318  1.00  0.00     0.355 A 
HETATM   10  O3  UNL     1      18.641  15.510  29.213  1.00  0.00    -0.245 OA
HETATM   11  N7  UNL     1      15.290  13.170  27.087  1.00  0.00    -0.145 N 
HETATM   12  C14 UNL     1      15.987  13.379  25.854  1.00  0.00     0.274 C 
HETATM   13  O6  UNL     1      15.332  13.502  24.813  1.00  0.00    -0.269 OA
HETATM   14  C15 UNL     1      17.455  13.433  25.908  1.00  0.00     0.158 C 
HETATM   15  C16 UNL     1      17.936  11.997  26.055  1.00  0.00     0.059 C 
ENDROOT
BRANCH   1  16
HETATM   16  C5  UNL     1      19.401  14.211  27.093  1.00  0.00     0.116 C 
BRANCH  16  17
HETATM   17  S2  UNL     1      20.420  15.411  26.349  1.00  0.00    -0.087 SA
BRANCH  17  18
HETATM   18  S1  UNL     1      21.785  16.522  27.392  1.00  0.00    -0.019 SA
BRANCH  18  19
HETATM   19  C4  UNL     1      21.668  16.471  29.142  1.00  0.00     0.185 A 
HETATM   20  N1  UNL     1      21.316  17.512  29.947  1.00  0.00    -0.309 N 
HETATM   21  C1  UNL     1      20.952  18.828  29.444  1.00  0.00     0.160 C 
HETATM   22  C2  UNL     1      21.348  17.179  31.228  1.00  0.00     0.162 A 
HETATM   23  C3  UNL     1      21.731  15.880  31.281  1.00  0.00     0.181 A 
HETATM   24  N2  UNL     1      21.920  15.474  29.983  1.00  0.00    -0.208 N 
BRANCH  22  25
HETATM   25  O1  UNL     1      21.050  17.990  32.313  1.00  0.00    -0.345 OA
ATOM     26  H1  UNL     1      20.216  18.065  32.763  1.00  0.00     0.219 HD
ENDBRANCH  22  25
BRANCH  24  27
HETATM   27  O2  UNL     1      22.336  14.187  29.748  1.00  0.00    -0.281 OA
ATOM     28  H2  UNL     1      22.307  13.853  28.859  1.00  0.00     0.245 HD
ENDBRANCH  24  27
ENDBRANCH  18  19
ENDBRANCH  17  18
ENDBRANCH  16  17
ENDBRANCH   1  16
BRANCH  14  29
HETATM   29  O7  UNL     1      17.947  13.977  24.704  1.00  0.00    -0.378 OA
ATOM     30  H7  UNL     1      17.190  14.184  24.168  1.00  0.00     0.211 HD
ENDBRANCH  14  29
BRANCH  11  31
HETATM   31  C10 UNL     1      14.039  12.506  27.207  1.00  0.00     0.177 C 
BRANCH  31  32
HETATM   32  C11 UNL     1      14.169  10.998  26.916  1.00  0.00     0.188 C 
BRANCH  32  33
HETATM   33  O4  UNL     1      13.561  10.762  25.716  1.00  0.00    -0.387 OA
BRANCH  33  34
HETATM   34  C12 UNL     1      13.772   9.622  25.043  1.00  0.00     0.193 C 
BRANCH  34  35
HETATM   35  C13 UNL     1      13.580   8.314  25.755  1.00  0.00     0.190 C 
BRANCH  35  36
HETATM   36  O5  UNL     1      12.250   8.107  26.041  1.00  0.00    -0.399 OA
ATOM     37  H5  UNL     1      11.753   7.972  25.243  1.00  0.00     0.209 HD
ENDBRANCH  35  36
ENDBRANCH  34  35
ENDBRANCH  33  34
ENDBRANCH  32  33
ENDBRANCH  31  32
ENDBRANCH  11  31
BRANCH   6  38
HETATM   38  N5  UNL     1      15.043  14.187  31.653  1.00  0.00    -0.234 N 
ATOM     39  H52 UNL     1      14.225  13.584  31.746  1.00  0.00     0.174 HD
ATOM     40  H51 UNL     1      15.325  14.747  32.458  1.00  0.00     0.174 HD
ENDBRANCH   6  38
TORSDOF 14
ENDMDL
MODEL 4
REMARK VINA RESULT: -7.459348204      3.149      4.450
REMARK  14 active torsions:
REMARK  status: ('A' for Active; 'I' for Inactive)
REMARK    1  A    between atoms: C2_3  and  O1_4 
REMARK    2  A    between atoms: N2_7  and  O2_8 
REMARK    3  A    between atoms: C4_10  and  S1_11 
REMARK    4  A    between atoms: S1_11  and  S2_12 
REMARK    5  A    between atoms: S2_12  and  C5_13 
REMARK    6  A    between atoms: C5_13  and  C6_14 
REMARK    7  A    between atoms: C8_19  and  N5_20 
REMARK    8  A    between atoms: N7_27  and  C10_28 
REMARK    9  A    between atoms: C10_28  and  C11_29 
REMARK   10  A    between atoms: C11_29  and  O4_30 
REMARK   11  A    between atoms: O4_30  and  C12_31 
REMARK   12  A    between atoms: C12_31  and  C13_32 
REMARK   13  A    between atoms: C13_32  and  O5_33 
REMARK   14  A    between atoms: C15_37  and  O7_39 
ROOT
HETATM    1  C6  UNL     1      16.306  12.799  25.686  1.00  0.00     0.166 C 
HETATM    2  N3  UNL     1      15.445  11.724  25.558  1.00  0.00    -0.122 N 
HETATM    3  C7  UNL     1      15.598  10.716  24.697  1.00  0.00     0.708 A 
HETATM    4  N4  UNL     1      14.770   9.629  24.626  1.00  0.00    -0.022 N 
ATOM      5  H4  UNL     1      14.946   8.890  23.946  1.00  0.00     0.203 HD
HETATM    6  C8  UNL     1      13.725   9.545  25.459  1.00  0.00     0.694 A 
HETATM    7  N6  UNL     1      13.530  10.541  26.336  1.00  0.00    -0.140 N 
ATOM      8  H6  UNL     1      12.737  10.493  26.975  1.00  0.00     0.189 HD
HETATM    9  C9  UNL     1      14.353  11.598  26.392  1.00  0.00     0.355 A 
HETATM   10  O3  UNL     1      14.200  12.541  27.180  1.00  0.00    -0.245 OA
HETATM   11  N7  UNL     1      16.601  10.796  23.657  1.00  0.00    -0.145 N 
HETATM   12  C14 UNL     1      17.369  12.004  23.639  1.00  0.00     0.274 C 
HETATM   13  O6  UNL     1      17.801  12.420  22.558  1.00  0.00    -0.269 OA
HETATM   14  C15 UNL     1      17.598  12.679  24.925  1.00  0.00     0.158 C 
HETATM   15  C16 UNL     1      18.675  11.884  25.646  1.00  0.00     0.059 C 
ENDROOT
BRANCH   1  16
HETATM   16  C5  UNL     1      16.668  13.348  27.043  1.00  0.00     0.116 C 
BRANCH  16  17
HETATM   17  S2  UNL     1      17.023  15.044  27.221  1.00  0.00    -0.087 SA
BRANCH  17  18
HETATM   18  S1  UNL     1      18.861  15.750  27.777  1.00  0.00    -0.019 SA
BRANCH  18  19
HETATM   19  C4  UNL     1      19.395  15.356  29.402  1.00  0.00     0.185 A 
HETATM   20  N1  UNL     1      20.611  15.661  29.935  1.00  0.00    -0.309 N 
HETATM   21  C1  UNL     1      21.639  16.399  29.218  1.00  0.00     0.160 C 
HETATM   22  C2  UNL     1      20.736  15.206  31.172  1.00  0.00     0.162 A 
HETATM   23  C3  UNL     1      19.572  14.580  31.474  1.00  0.00     0.181 A 
HETATM   24  N2  UNL     1      18.769  14.689  30.366  1.00  0.00    -0.208 N 
BRANCH  22  25
HETATM   25  O1  UNL     1      21.836  15.337  32.007  1.00  0.00    -0.345 OA
ATOM     26  H1  UNL     1      22.733  15.082  31.820  1.00  0.00     0.219 HD
ENDBRANCH  22  25
BRANCH  24  27
HETATM   27  O2  UNL     1      17.523  14.117  30.394  1.00  0.00    -0.281 OA
ATOM     28  H2  UNL     1      17.352  13.367  29.838  1.00  0.00     0.245 HD
ENDBRANCH  24  27
ENDBRANCH  18  19
ENDBRANCH  17  18
ENDBRANCH  16  17
ENDBRANCH   1  16
BRANCH  14  29
HETATM   29  O7  UNL     1      18.053  13.992  24.688  1.00  0.00    -0.378 OA
ATOM     30  H7  UNL     1      18.996  13.980  24.805  1.00  0.00     0.211 HD
ENDBRANCH  14  29
BRANCH  11  31
HETATM   31  C10 UNL     1      16.764   9.720  22.741  1.00  0.00     0.177 C 
BRANCH  31  32
HETATM   32  C11 UNL     1      18.093   8.976  22.973  1.00  0.00     0.188 C 
BRANCH  32  33
HETATM   33  O4  UNL     1      17.818   7.885  23.746  1.00  0.00    -0.387 OA
BRANCH  33  34
HETATM   34  C12 UNL     1      18.697   6.881  23.869  1.00  0.00     0.193 C 
BRANCH  34  35
HETATM   35  C13 UNL     1      20.154   7.160  23.636  1.00  0.00     0.190 C 
BRANCH  35  36
HETATM   36  O5  UNL     1      20.627   6.422  22.575  1.00  0.00    -0.399 OA
ATOM     37  H5  UNL     1      20.618   5.495  22.782  1.00  0.00     0.209 HD
ENDBRANCH  35  36
ENDBRANCH  34  35
ENDBRANCH  33  34
ENDBRANCH  32  33
ENDBRANCH  31  32
ENDBRANCH  11  31
BRANCH   6  38
HETATM   38  N5  UNL     1      12.903   8.546  25.446  1.00  0.00    -0.234 N 
ATOM     39  H52 UNL     1      12.061   8.588  26.020  1.00  0.00     0.174 HD
ATOM     40  H51 UNL     1      13.063   7.711  24.882  1.00  0.00     0.174 HD
ENDBRANCH   6  38
TORSDOF 14
ENDMDL
MODEL 5
REMARK VINA RESULT: -7.419779865      2.938      4.308
REMARK  14 active torsions:
REMARK  status: ('A' for Active; 'I' for Inactive)
REMARK    1  A    between atoms: C2_3  and  O1_4 
REMARK    2  A    between atoms: N2_7  and  O2_8 
REMARK    3  A    between atoms: C4_10  and  S1_11 
REMARK    4  A    between atoms: S1_11  and  S2_12 
REMARK    5  A    between atoms: S2_12  and  C5_13 
REMARK    6  A    between atoms: C5_13  and  C6_14 
REMARK    7  A    between atoms: C8_19  and  N5_20 
REMARK    8  A    between atoms: N7_27  and  C10_28 
REMARK    9  A    between atoms: C10_28  and  C11_29 
REMARK   10  A    between atoms: C11_29  and  O4_30 
REMARK   11  A    between atoms: O4_30  and  C12_31 
REMARK   12  A    between atoms: C12_31  and  C13_32 
REMARK   13  A    between atoms: C13_32  and  O5_33 
REMARK   14  A    between atoms: C15_37  and  O7_39 
ROOT
HETATM    1  C6  UNL     1      15.574  12.521  26.382  1.00  0.00     0.166 C 
HETATM    2  N3  UNL     1      14.812  11.377  26.229  1.00  0.00    -0.122 N 
HETATM    3  C7  UNL     1      14.709  10.667  25.104  1.00  0.00     0.708 A 
HETATM    4  N4  UNL     1      13.999   9.502  24.987  1.00  0.00    -0.022 N 
ATOM      5  H4  UNL     1      13.965   9.006  24.097  1.00  0.00     0.203 HD
HETATM    6  C8  UNL     1      13.350   9.022  26.054  1.00  0.00     0.694 A 
HETATM    7  N6  UNL     1      13.420   9.708  27.204  1.00  0.00    -0.140 N 
ATOM      8  H6  UNL     1      12.929   9.356  28.025  1.00  0.00     0.189 HD
HETATM    9  C9  UNL     1      14.122  10.847  27.300  1.00  0.00     0.355 A 
HETATM   10  O3  UNL     1      14.202  11.514  28.340  1.00  0.00    -0.245 OA
HETATM   11  N7  UNL     1      15.244  11.190  23.864  1.00  0.00    -0.145 N 
HETATM   12  C14 UNL     1      15.855  12.481  23.958  1.00  0.00     0.274 C 
HETATM   13  O6  UNL     1      15.820  13.230  22.975  1.00  0.00    -0.269 OA
HETATM   14  C15 UNL     1      16.494  12.836  25.234  1.00  0.00     0.158 C 
HETATM   15  C16 UNL     1      17.820  12.092  25.276  1.00  0.00     0.059 C 
ENDROOT
BRANCH   1  16
HETATM   16  C5  UNL     1      16.371  12.762  27.638  1.00  0.00     0.116 C 
BRANCH  16  17
HETATM   17  S2  UNL     1      16.066  14.185  28.595  1.00  0.00    -0.087 SA
BRANCH  17  18
HETATM   18  S1  UNL     1      17.065  14.601  30.331  1.00  0.00    -0.019 SA
BRANCH  18  19
HETATM   19  C4  UNL     1      18.792  14.884  30.197  1.00  0.00     0.185 A 
HETATM   20  N1  UNL     1      19.436  15.357  29.095  1.00  0.00    -0.309 N 
HETATM   21  C1  UNL     1      18.755  15.729  27.864  1.00  0.00     0.160 C 
HETATM   22  C2  UNL     1      20.745  15.434  29.283  1.00  0.00     0.162 A 
HETATM   23  C3  UNL     1      20.980  15.001  30.546  1.00  0.00     0.181 A 
HETATM   24  N2  UNL     1      19.761  14.669  31.080  1.00  0.00    -0.208 N 
BRANCH  22  25
HETATM   25  O1  UNL     1      21.699  15.872  28.375  1.00  0.00    -0.345 OA
ATOM     26  H1  UNL     1      22.086  15.374  27.665  1.00  0.00     0.219 HD
ENDBRANCH  22  25
BRANCH  24  27
HETATM   27  O2  UNL     1      19.713  14.176  32.360  1.00  0.00    -0.281 OA
ATOM     28  H2  UNL     1      20.457  13.686  32.689  1.00  0.00     0.245 HD
ENDBRANCH  24  27
ENDBRANCH  18  19
ENDBRANCH  17  18
ENDBRANCH  16  17
ENDBRANCH   1  16
BRANCH  14  29
HETATM   29  O7  UNL     1      16.727  14.225  25.269  1.00  0.00    -0.378 OA
ATOM     30  H7  UNL     1      17.642  14.355  25.049  1.00  0.00     0.211 HD
ENDBRANCH  14  29
BRANCH  11  31
HETATM   31  C10 UNL     1      15.135  10.432  22.666  1.00  0.00     0.177 C 
BRANCH  31  32
HETATM   32  C11 UNL     1      16.521  10.045  22.115  1.00  0.00     0.188 C 
BRANCH  32  33
HETATM   33  O4  UNL     1      17.067   9.144  22.984  1.00  0.00    -0.387 OA
BRANCH  33  34
HETATM   34  C12 UNL     1      18.392   9.071  23.166  1.00  0.00     0.193 C 
BRANCH  34  35
HETATM   35  C13 UNL     1      19.015   7.731  23.434  1.00  0.00     0.190 C 
BRANCH  35  36
HETATM   36  O5  UNL     1      18.063   6.826  23.845  1.00  0.00    -0.399 OA
ATOM     37  H5  UNL     1      17.497   7.212  24.503  1.00  0.00     0.209 HD
ENDBRANCH  35  36
ENDBRANCH  34  35
ENDBRANCH  33  34
ENDBRANCH  32  33
ENDBRANCH  31  32
ENDBRANCH  11  31
BRANCH   6  38
HETATM   38  N5  UNL     1      12.661   7.927  26.014  1.00  0.00    -0.234 N 
ATOM     39  H52 UNL     1      12.732   7.266  26.789  1.00  0.00     0.174 HD
ATOM     40  H51 UNL     1      12.044   7.694  25.235  1.00  0.00     0.174 HD
ENDBRANCH   6  38
TORSDOF 14
ENDMDL
