MODEL 1
REMARK VINA RESULT: -9.463498618      0.000      0.000
REMARK  12 active torsions:
REMARK  status: ('A' for Active; 'I' for Inactive)
REMARK    1  A    between atoms: O1_2  and  C2_3 
REMARK    2  A    between atoms: C3_6  and  N2_7 
REMARK    3  A    between atoms: N2_7  and  C4_9 
REMARK    4  A    between atoms: C4_9  and  C5_10 
REMARK    5  A    between atoms: C5_10  and  N3_11 
REMARK    6  A    between atoms: N3_11  and  C6_13 
REMARK    7  A    between atoms: N8_27  and  C11_28 
REMARK    8  A    between atoms: C11_28  and  C12_29 
REMARK    9  A    between atoms: C14_40  and  N14_41 
REMARK   10  A    between atoms: N14_41  and  C15_43 
REMARK   11  A    between atoms: C15_43  and  C16_44 
REMARK   12  A    between atoms: C16_44  and  C17_45 
ROOT
HETATM    1  C6  UNL     1      15.579  14.579  27.813  1.00  0.00     0.147 A 
HETATM    2  N4  UNL     1      14.979  14.514  29.012  1.00  0.00    -0.175 N 
ATOM      3  H4  UNL     1      13.962  14.488  29.085  1.00  0.00     0.186 HD
HETATM    4  C7  UNL     1      15.751  14.484  30.113  1.00  0.00     0.679 A 
HETATM    5  N5  UNL     1      15.186  14.419  31.294  1.00  0.00    -0.234 N 
ATOM      6  H51 UNL     1      15.772  14.397  32.129  1.00  0.00     0.174 HD
ATOM      7  H52 UNL     1      14.170  14.394  31.368  1.00  0.00     0.174 HD
HETATM    8  N6  UNL     1      17.095  14.516  30.015  1.00  0.00    -0.174 N 
ATOM      9  H6  UNL     1      17.645  14.491  30.873  1.00  0.00     0.186 HD
HETATM   10  C8  UNL     1      17.742  14.580  28.839  1.00  0.00     0.155 A 
HETATM   11  C9  UNL     1      16.949  14.613  27.685  1.00  0.00     0.123 A 
HETATM   12  N7  UNL     1      17.808  14.682  26.657  1.00  0.00    -0.346 N 
ATOM     13  H7  UNL     1      17.527  14.722  25.677  1.00  0.00     0.167 HD
HETATM   14  C10 UNL     1      19.078  14.693  27.075  1.00  0.00     0.185 A 
HETATM   15  N8  UNL     1      19.009  14.628  28.442  1.00  0.00    -0.320 N 
ENDROOT
BRANCH   1  16
HETATM   16  N3  UNL     1      14.858  14.610  26.761  1.00  0.00    -0.372 N 
ATOM     17  H3  UNL     1      14.922  15.401  26.119  1.00  0.00     0.161 HD
BRANCH  16  18
HETATM   18  C5  UNL     1      13.955  13.528  26.484  1.00  0.00     0.141 C 
BRANCH  18  19
HETATM   19  C4  UNL     1      14.694  12.521  25.615  1.00  0.00     0.157 C 
BRANCH  19  20
HETATM   20  N2  UNL     1      13.942  12.257  24.430  1.00  0.00    -0.224 N 
ATOM     21  H2  UNL     1      13.057  12.747  24.294  1.00  0.00     0.177 HD
BRANCH  20  22
HETATM   22  C3  UNL     1      14.339  11.415  23.512  1.00  0.00     0.695 A 
HETATM   23  N1  UNL     1      15.392  10.592  23.701  1.00  0.00    -0.154 N 
HETATM   24  C2  UNL     1      15.798   9.728  22.754  1.00  0.00     0.252 A 
ATOM     25  H1  UNL     1      15.894  10.626  24.588  1.00  0.00     0.188 HD
HETATM   26  N15 UNL     1      15.132   9.684  21.583  1.00  0.00    -0.154 N 
HETATM   27  C14 UNL     1      14.065  10.497  21.351  1.00  0.00     0.695 A 
ATOM     28  H15 UNL     1      15.433   9.032  20.859  1.00  0.00     0.188 HD
HETATM   29  N13 UNL     1      13.709  11.332  22.326  1.00  0.00    -0.022 N 
ATOM     30  H13 UNL     1      12.912  11.947  22.163  1.00  0.00     0.203 HD
BRANCH  24  31
HETATM   31  O1  UNL     1      16.872   8.864  22.904  1.00  0.00    -0.326 OA
HETATM   32  C1  UNL     1      18.153   9.435  23.082  1.00  0.00     0.213 C 
ENDBRANCH  24  31
BRANCH  27  33
HETATM   33  N14 UNL     1      13.476  10.401  20.207  1.00  0.00    -0.225 N 
ATOM     34  H14 UNL     1      14.018  10.282  19.351  1.00  0.00     0.177 HD
BRANCH  33  35
HETATM   35  C15 UNL     1      12.047  10.467  20.165  1.00  0.00     0.148 C 
BRANCH  35  36
HETATM   36  C16 UNL     1      11.470   9.801  18.932  1.00  0.00     0.133 C 
BRANCH  36  37
HETATM   37  C17 UNL     1       9.994   9.932  18.973  1.00  0.00     0.174 C 
HETATM   38  O2  UNL     1       9.400   9.676  20.056  1.00  0.00    -0.648 OA
HETATM   39  O3  UNL     1       9.284  10.330  17.840  1.00  0.00    -0.648 OA
ENDBRANCH  36  37
ENDBRANCH  35  36
ENDBRANCH  33  35
ENDBRANCH  27  33
ENDBRANCH  20  22
ENDBRANCH  19  20
ENDBRANCH  18  19
ENDBRANCH  16  18
ENDBRANCH   1  16
BRANCH  15  40
HETATM   40  C11 UNL     1      20.197  14.595  29.290  1.00  0.00     0.211 C 
BRANCH  40  41
HETATM   41  C12 UNL     1      20.444  15.890  29.936  1.00  0.00     0.133 A 
HETATM   42  N9  UNL     1      20.144  16.120  31.238  1.00  0.00    -0.271 N 
HETATM   43  N10 UNL     1      20.488  17.350  31.525  1.00  0.00    -0.227 N 
ATOM     44  H9  UNL     1      19.723  15.450  31.883  1.00  0.00     0.190 HD
HETATM   45  N11 UNL     1      20.993  17.872  30.424  1.00  0.00    -0.225 N 
ATOM     46  H10 UNL     1      20.386  17.816  32.426  1.00  0.00     0.210 HD
HETATM   47  N12 UNL     1      20.976  16.986  29.430  1.00  0.00    -0.266 N 
ATOM     48  H11 UNL     1      21.349  18.825  30.344  1.00  0.00     0.210 HD
HETATM   49  C13 UNL     1      21.477  17.278  28.105  1.00  0.00     0.181 C 
ENDBRANCH  40  41
ENDBRANCH  15  40
TORSDOF 12
ENDMDL
MODEL 2
REMARK VINA RESULT: -9.239419771      1.322      1.477
REMARK  12 active torsions:
REMARK  status: ('A' for Active; 'I' for Inactive)
REMARK    1  A    between atoms: O1_2  and  C2_3 
REMARK    2  A    between atoms: C3_6  and  N2_7 
REMARK    3  A    between atoms: N2_7  and  C4_9 
REMARK    4  A    between atoms: C4_9  and  C5_10 
REMARK    5  A    between atoms: C5_10  and  N3_11 
REMARK    6  A    between atoms: N3_11  and  C6_13 
REMARK    7  A    between atoms: N8_27  and  C11_28 
REMARK    8  A    between atoms: C11_28  and  C12_29 
REMARK    9  A    between atoms: C14_40  and  N14_41 
REMARK   10  A    between atoms: N14_41  and  C15_43 
REMARK   11  A    between atoms: C15_43  and  C16_44 
REMARK   12  A    between atoms: C16_44  and  C17_45 
ROOT
HETATM    1  C6  UNL     1      16.017  12.846  28.624  1.00  0.00     0.147 A 
HETATM    2  N4  UNL     1      15.299  13.143  29.718  1.00  0.00    -0.175 N 
ATOM      3  H4  UNL     1      14.469  12.601  29.960  1.00  0.00     0.186 HD
HETATM    4  C7  UNL     1      15.700  14.171  30.487  1.00  0.00     0.679 A 
HETATM    5  N5  UNL     1      15.014  14.479  31.561  1.00  0.00    -0.234 N 
ATOM      6  H51 UNL     1      15.318  15.258  32.144  1.00  0.00     0.174 HD
ATOM      7  H52 UNL     1      14.184  13.938  31.803  1.00  0.00     0.174 HD
HETATM    8  N6  UNL     1      16.797  14.885  30.168  1.00  0.00    -0.174 N 
ATOM      9  H6  UNL     1      17.069  15.657  30.776  1.00  0.00     0.186 HD
HETATM   10  C8  UNL     1      17.550  14.626  29.084  1.00  0.00     0.155 A 
HETATM   11  C9  UNL     1      17.142  13.558  28.276  1.00  0.00     0.123 A 
HETATM   12  N7  UNL     1      18.031  13.503  27.272  1.00  0.00    -0.346 N 
ATOM     13  H7  UNL     1      17.997  12.823  26.513  1.00  0.00     0.167 HD
HETATM   14  C10 UNL     1      18.966  14.452  27.389  1.00  0.00     0.185 A 
HETATM   15  N8  UNL     1      18.643  15.139  28.530  1.00  0.00    -0.320 N 
ENDROOT
BRANCH   1  16
HETATM   16  N3  UNL     1      15.646  11.874  27.886  1.00  0.00    -0.372 N 
ATOM     17  H3  UNL     1      16.323  11.395  27.291  1.00  0.00     0.161 HD
BRANCH  16  18
HETATM   18  C5  UNL     1      14.271  11.456  27.894  1.00  0.00     0.141 C 
BRANCH  18  19
HETATM   19  C4  UNL     1      14.029  10.636  26.635  1.00  0.00     0.157 C 
BRANCH  19  20
HETATM   20  N2  UNL     1      14.229  11.451  25.480  1.00  0.00    -0.224 N 
ATOM     21  H2  UNL     1      14.066  12.456  25.556  1.00  0.00     0.177 HD
BRANCH  20  22
HETATM   22  C3  UNL     1      14.613  10.964  24.327  1.00  0.00     0.695 A 
HETATM   23  N1  UNL     1      15.665  10.128  24.218  1.00  0.00    -0.154 N 
HETATM   24  C2  UNL     1      16.057   9.630  23.031  1.00  0.00     0.252 A 
ATOM     25  H1  UNL     1      16.179   9.865  25.059  1.00  0.00     0.188 HD
HETATM   26  N15 UNL     1      15.376   9.979  21.921  1.00  0.00    -0.154 N 
HETATM   27  C14 UNL     1      14.308  10.820  21.988  1.00  0.00     0.695 A 
ATOM     28  H15 UNL     1      15.666   9.606  21.017  1.00  0.00     0.188 HD
HETATM   29  N13 UNL     1      13.967  11.281  23.191  1.00  0.00    -0.022 N 
ATOM     30  H13 UNL     1      13.169  11.913  23.253  1.00  0.00     0.203 HD
BRANCH  24  31
HETATM   31  O1  UNL     1      17.131   8.768  22.870  1.00  0.00    -0.326 OA
HETATM   32  C1  UNL     1      18.428   9.291  23.072  1.00  0.00     0.213 C 
ENDBRANCH  24  31
BRANCH  27  33
HETATM   33  N14 UNL     1      13.705  11.111  20.886  1.00  0.00    -0.225 N 
ATOM     34  H14 UNL     1      14.175  11.654  20.161  1.00  0.00     0.177 HD
BRANCH  33  35
HETATM   35  C15 UNL     1      12.361  10.655  20.701  1.00  0.00     0.148 C 
BRANCH  35  36
HETATM   36  C16 UNL     1      12.115  10.119  19.304  1.00  0.00     0.133 C 
BRANCH  36  37
HETATM   37  C17 UNL     1      10.686   9.738  19.191  1.00  0.00     0.174 C 
HETATM   38  O2  UNL     1      10.341   8.988  18.237  1.00  0.00    -0.648 OA
HETATM   39  O3  UNL     1       9.753  10.200  20.119  1.00  0.00    -0.648 OA
ENDBRANCH  36  37
ENDBRANCH  35  36
ENDBRANCH  33  35
ENDBRANCH  27  33
ENDBRANCH  20  22
ENDBRANCH  19  20
ENDBRANCH  18  19
ENDBRANCH  16  18
ENDBRANCH   1  16
BRANCH  15  40
HETATM   40  C11 UNL     1      19.440  16.256  29.030  1.00  0.00     0.211 C 
BRANCH  40  41
HETATM   41  C12 UNL     1      20.456  15.814  29.993  1.00  0.00     0.133 A 
HETATM   42  N9  UNL     1      20.231  15.804  31.331  1.00  0.00    -0.271 N 
HETATM   43  N10 UNL     1      21.309  15.351  31.921  1.00  0.00    -0.227 N 
ATOM     44  H9  UNL     1      19.372  16.098  31.796  1.00  0.00     0.190 HD
HETATM   45  N11 UNL     1      22.183  15.085  30.969  1.00  0.00    -0.225 N 
ATOM     46  H10 UNL     1      21.446  15.228  32.924  1.00  0.00     0.210 HD
HETATM   47  N12 UNL     1      21.676  15.363  29.771  1.00  0.00    -0.266 N 
ATOM     48  H11 UNL     1      23.120  14.715  31.131  1.00  0.00     0.210 HD
HETATM   49  C13 UNL     1      22.407  15.161  28.540  1.00  0.00     0.181 C 
ENDBRANCH  40  41
ENDBRANCH  15  40
TORSDOF 12
ENDMDL
MODEL 3
REMARK VINA RESULT: -9.048259305      1.396      1.563
REMARK  12 active torsions:
REMARK  status: ('A' for Active; 'I' for Inactive)
REMARK    1  A    between atoms: O1_2  and  C2_3 
REMARK    2  A    between atoms: C3_6  and  N2_7 
REMARK    3  A    between atoms: N2_7  and  C4_9 
REMARK    4  A    between atoms: C4_9  and  C5_10 
REMARK    5  A    between atoms: C5_10  and  N3_11 
REMARK    6  A    between atoms: N3_11  and  C6_13 
REMARK    7  A    between atoms: N8_27  and  C11_28 
REMARK    8  A    between atoms: C11_28  and  C12_29 
REMARK    9  A    between atoms: C14_40  and  N14_41 
REMARK   10  A    between atoms: N14_41  and  C15_43 
REMARK   11  A    between atoms: C15_43  and  C16_44 
REMARK   12  A    between atoms: C16_44  and  C17_45 
ROOT
HETATM    1  C6  UNL     1      15.596  14.523  27.949  1.00  0.00     0.147 A 
HETATM    2  N4  UNL     1      15.047  14.394  29.166  1.00  0.00    -0.175 N 
ATOM      3  H4  UNL     1      14.037  14.312  29.277  1.00  0.00     0.186 HD
HETATM    4  C7  UNL     1      15.861  14.376  30.237  1.00  0.00     0.679 A 
HETATM    5  N5  UNL     1      15.346  14.250  31.436  1.00  0.00    -0.234 N 
ATOM      6  H51 UNL     1      15.964  14.237  32.248  1.00  0.00     0.174 HD
ATOM      7  H52 UNL     1      14.336  14.169  31.547  1.00  0.00     0.174 HD
HETATM    8  N6  UNL     1      17.196  14.483  30.091  1.00  0.00    -0.174 N 
ATOM      9  H6  UNL     1      17.780  14.465  30.927  1.00  0.00     0.186 HD
HETATM   10  C8  UNL     1      17.794  14.613  28.894  1.00  0.00     0.155 A 
HETATM   11  C9  UNL     1      16.957  14.633  27.771  1.00  0.00     0.123 A 
HETATM   12  N7  UNL     1      17.771  14.776  26.714  1.00  0.00    -0.346 N 
ATOM     13  H7  UNL     1      17.451  14.827  25.747  1.00  0.00     0.167 HD
HETATM   14  C10 UNL     1      19.054  14.844  27.086  1.00  0.00     0.185 A 
HETATM   15  N8  UNL     1      19.040  14.738  28.452  1.00  0.00    -0.320 N 
ENDROOT
BRANCH   1  16
HETATM   16  N3  UNL     1      14.835  14.543  26.925  1.00  0.00    -0.372 N 
ATOM     17  H3  UNL     1      14.845  15.346  26.295  1.00  0.00     0.161 HD
BRANCH  16  18
HETATM   18  C5  UNL     1      13.963  13.432  26.663  1.00  0.00     0.141 C 
BRANCH  18  19
HETATM   19  C4  UNL     1      13.658  13.425  25.173  1.00  0.00     0.157 C 
BRANCH  19  20
HETATM   20  N2  UNL     1      14.131  12.213  24.586  1.00  0.00    -0.224 N 
ATOM     21  H2  UNL     1      14.215  11.384  25.176  1.00  0.00     0.177 HD
BRANCH  20  22
HETATM   22  C3  UNL     1      14.461  12.118  23.323  1.00  0.00     0.695 A 
HETATM   23  N1  UNL     1      15.471  12.837  22.792  1.00  0.00    -0.154 N 
HETATM   24  C2  UNL     1      15.807  12.738  21.493  1.00  0.00     0.252 A 
ATOM     25  H1  UNL     1      15.996  13.473  23.392  1.00  0.00     0.188 HD
HETATM   26  N15 UNL     1      15.112  11.896  20.702  1.00  0.00    -0.154 N 
HETATM   27  C14 UNL     1      14.086  11.152  21.199  1.00  0.00     0.695 A 
ATOM     28  H15 UNL     1      15.360  11.814  19.716  1.00  0.00     0.188 HD
HETATM   29  N13 UNL     1      13.799  11.293  22.492  1.00  0.00    -0.022 N 
ATOM     30  H13 UNL     1      13.031  10.742  22.876  1.00  0.00     0.203 HD
BRANCH  24  31
HETATM   31  O1  UNL     1      16.837  13.455  20.903  1.00  0.00    -0.326 OA
HETATM   32  C1  UNL     1      16.655  13.886  19.569  1.00  0.00     0.213 C 
ENDBRANCH  24  31
BRANCH  27  33
HETATM   33  N14 UNL     1      13.465  10.368  20.384  1.00  0.00    -0.225 N 
ATOM     34  H14 UNL     1      13.977   9.684  19.828  1.00  0.00     0.177 HD
BRANCH  33  35
HETATM   35  C15 UNL     1      12.042  10.481  20.278  1.00  0.00     0.148 C 
BRANCH  35  36
HETATM   36  C16 UNL     1      11.504   9.873  18.998  1.00  0.00     0.133 C 
BRANCH  36  37
HETATM   37  C17 UNL     1      10.023   9.942  19.029  1.00  0.00     0.174 C 
HETATM   38  O2  UNL     1       9.432   9.634  20.100  1.00  0.00    -0.648 OA
HETATM   39  O3  UNL     1       9.307  10.340  17.900  1.00  0.00    -0.648 OA
ENDBRANCH  36  37
ENDBRANCH  35  36
ENDBRANCH  33  35
ENDBRANCH  27  33
ENDBRANCH  20  22
ENDBRANCH  19  20
ENDBRANCH  18  19
ENDBRANCH  16  18
ENDBRANCH   1  16
BRANCH  15  40
HETATM   40  C11 UNL     1      20.261  14.747  29.255  1.00  0.00     0.211 C 
BRANCH  40  41
HETATM   41  C12 UNL     1      20.460  16.033  29.933  1.00  0.00     0.133 A 
HETATM   42  N9  UNL     1      20.181  16.210  31.249  1.00  0.00    -0.271 N 
HETATM   43  N10 UNL     1      20.472  17.447  31.564  1.00  0.00    -0.227 N 
ATOM     44  H9  UNL     1      19.808  15.502  31.882  1.00  0.00     0.190 HD
HETATM   45  N11 UNL     1      20.924  18.024  30.468  1.00  0.00    -0.225 N 
ATOM     46  H10 UNL     1      20.369  17.880  32.481  1.00  0.00     0.210 HD
HETATM   47  N12 UNL     1      20.925  17.168  29.449  1.00  0.00    -0.266 N 
ATOM     48  H11 UNL     1      21.231  18.995  30.409  1.00  0.00     0.210 HD
HETATM   49  C13 UNL     1      21.380  17.523  28.122  1.00  0.00     0.181 C 
ENDBRANCH  40  41
ENDBRANCH  15  40
TORSDOF 12
ENDMDL
MODEL 4
REMARK VINA RESULT: -9.004971017      1.774      2.207
REMARK  12 active torsions:
REMARK  status: ('A' for Active; 'I' for Inactive)
REMARK    1  A    between atoms: O1_2  and  C2_3 
REMARK    2  A    between atoms: C3_6  and  N2_7 
REMARK    3  A    between atoms: N2_7  and  C4_9 
REMARK    4  A    between atoms: C4_9  and  C5_10 
REMARK    5  A    between atoms: C5_10  and  N3_11 
REMARK    6  A    between atoms: N3_11  and  C6_13 
REMARK    7  A    between atoms: N8_27  and  C11_28 
REMARK    8  A    between atoms: C11_28  and  C12_29 
REMARK    9  A    between atoms: C14_40  and  N14_41 
REMARK   10  A    between atoms: N14_41  and  C15_43 
REMARK   11  A    between atoms: C15_43  and  C16_44 
REMARK   12  A    between atoms: C16_44  and  C17_45 
ROOT
HETATM    1  C6  UNL     1      14.836  13.088  28.043  1.00  0.00     0.147 A 
HETATM    2  N4  UNL     1      14.586  13.266  29.349  1.00  0.00    -0.175 N 
ATOM      3  H4  UNL     1      13.777  12.828  29.790  1.00  0.00     0.186 HD
HETATM    4  C7  UNL     1      15.429  14.034  30.063  1.00  0.00     0.679 A 
HETATM    5  N5  UNL     1      15.205  14.220  31.341  1.00  0.00    -0.234 N 
ATOM      6  H51 UNL     1      15.843  14.803  31.883  1.00  0.00     0.174 HD
ATOM      7  H52 UNL     1      14.396  13.784  31.782  1.00  0.00     0.174 HD
HETATM    8  N6  UNL     1      16.499  14.610  29.481  1.00  0.00    -0.174 N 
ATOM      9  H6  UNL     1      17.114  15.185  30.056  1.00  0.00     0.186 HD
HETATM   10  C8  UNL     1      16.792  14.462  28.177  1.00  0.00     0.155 A 
HETATM   11  C9  UNL     1      15.922  13.665  27.424  1.00  0.00     0.123 A 
HETATM   12  N7  UNL     1      16.412  13.675  26.174  1.00  0.00    -0.346 N 
ATOM     13  H7  UNL     1      15.989  13.180  25.389  1.00  0.00     0.167 HD
HETATM   14  C10 UNL     1      17.523  14.414  26.086  1.00  0.00     0.185 A 
HETATM   15  N8  UNL     1      17.738  14.894  27.351  1.00  0.00    -0.320 N 
ENDROOT
BRANCH   1  16
HETATM   16  N3  UNL     1      14.043  12.363  27.354  1.00  0.00    -0.372 N 
ATOM     17  H3  UNL     1      13.245  12.785  26.880  1.00  0.00     0.161 HD
BRANCH  16  18
HETATM   18  C5  UNL     1      14.280  10.950  27.250  1.00  0.00     0.141 C 
BRANCH  18  19
HETATM   19  C4  UNL     1      13.908  10.523  25.838  1.00  0.00     0.157 C 
BRANCH  19  20
HETATM   20  N2  UNL     1      13.753  11.674  25.007  1.00  0.00    -0.224 N 
ATOM     21  H2  UNL     1      13.290  12.497  25.395  1.00  0.00     0.177 HD
BRANCH  20  22
HETATM   22  C3  UNL     1      14.179  11.719  23.771  1.00  0.00     0.695 A 
HETATM   23  N1  UNL     1      15.240  12.469  23.406  1.00  0.00    -0.154 N 
HETATM   24  C2  UNL     1      15.674  12.514  22.134  1.00  0.00     0.252 A 
ATOM     25  H1  UNL     1      15.726  13.017  24.115  1.00  0.00     0.188 HD
HETATM   26  N15 UNL     1      15.029  11.787  21.199  1.00  0.00    -0.154 N 
HETATM   27  C14 UNL     1      13.955  11.017  21.526  1.00  0.00     0.695 A 
ATOM     28  H15 UNL     1      15.352  11.814  20.232  1.00  0.00     0.188 HD
HETATM   29  N13 UNL     1      13.571  11.014  22.801  1.00  0.00    -0.022 N 
ATOM     30  H13 UNL     1      12.766  10.441  23.057  1.00  0.00     0.203 HD
BRANCH  24  31
HETATM   31  O1  UNL     1      16.759  13.268  21.712  1.00  0.00    -0.326 OA
HETATM   32  C1  UNL     1      17.970  13.130  22.427  1.00  0.00     0.213 C 
ENDBRANCH  24  31
BRANCH  27  33
HETATM   33  N14 UNL     1      13.387  10.350  20.579  1.00  0.00    -0.225 N 
ATOM     34  H14 UNL     1      13.925   9.707  19.999  1.00  0.00     0.177 HD
BRANCH  33  35
HETATM   35  C15 UNL     1      11.984  10.531  20.361  1.00  0.00     0.148 C 
BRANCH  35  36
HETATM   36  C16 UNL     1      11.520   9.950  19.041  1.00  0.00     0.133 C 
BRANCH  36  37
HETATM   37  C17 UNL     1      10.037   9.937  19.026  1.00  0.00     0.174 C 
HETATM   38  O2  UNL     1       9.431   9.630  20.089  1.00  0.00    -0.648 OA
HETATM   39  O3  UNL     1       9.336  10.260  17.864  1.00  0.00    -0.648 OA
ENDBRANCH  36  37
ENDBRANCH  35  36
ENDBRANCH  33  35
ENDBRANCH  27  33
ENDBRANCH  20  22
ENDBRANCH  19  20
ENDBRANCH  18  19
ENDBRANCH  16  18
ENDBRANCH   1  16
BRANCH  15  40
HETATM   40  C11 UNL     1      18.881  15.739  27.689  1.00  0.00     0.211 C 
BRANCH  40  41
HETATM   41  C12 UNL     1      19.928  14.987  28.390  1.00  0.00     0.133 A 
HETATM   42  N9  UNL     1      20.769  14.140  27.745  1.00  0.00    -0.271 N 
HETATM   43  N10 UNL     1      21.594  13.634  28.627  1.00  0.00    -0.227 N 
ATOM     44  H9  UNL     1      20.761  13.934  26.746  1.00  0.00     0.190 HD
HETATM   45  N11 UNL     1      21.272  14.156  29.795  1.00  0.00    -0.225 N 
ATOM     46  H10 UNL     1      22.340  12.964  28.446  1.00  0.00     0.210 HD
HETATM   47  N12 UNL     1      20.247  14.995  29.671  1.00  0.00    -0.266 N 
ATOM     48  H11 UNL     1      21.746  13.946  30.674  1.00  0.00     0.210 HD
HETATM   49  C13 UNL     1      19.684  15.723  30.787  1.00  0.00     0.181 C 
ENDBRANCH  40  41
ENDBRANCH  15  40
TORSDOF 12
ENDMDL
MODEL 5
REMARK VINA RESULT: -8.985380898      0.919      2.095
REMARK  12 active torsions:
REMARK  status: ('A' for Active; 'I' for Inactive)
REMARK    1  A    between atoms: O1_2  and  C2_3 
REMARK    2  A    between atoms: C3_6  and  N2_7 
REMARK    3  A    between atoms: N2_7  and  C4_9 
REMARK    4  A    between atoms: C4_9  and  C5_10 
REMARK    5  A    between atoms: C5_10  and  N3_11 
REMARK    6  A    between atoms: N3_11  and  C6_13 
REMARK    7  A    between atoms: N8_27  and  C11_28 
REMARK    8  A    between atoms: C11_28  and  C12_29 
REMARK    9  A    between atoms: C14_40  and  N14_41 
REMARK   10  A    between atoms: N14_41  and  C15_43 
REMARK   11  A    between atoms: C15_43  and  C16_44 
REMARK   12  A    between atoms: C16_44  and  C17_45 
ROOT
HETATM    1  C6  UNL     1      16.168  14.367  26.713  1.00  0.00     0.147 A 
HETATM    2  N4  UNL     1      17.054  14.299  25.708  1.00  0.00    -0.175 N 
ATOM      3  H4  UNL     1      16.749  14.381  24.738  1.00  0.00     0.186 HD
HETATM    4  C7  UNL     1      18.352  14.122  26.010  1.00  0.00     0.679 A 
HETATM    5  N5  UNL     1      19.236  14.054  25.044  1.00  0.00    -0.234 N 
ATOM      6  H51 UNL     1      20.220  13.919  25.273  1.00  0.00     0.174 HD
ATOM      7  H52 UNL     1      18.931  14.134  24.074  1.00  0.00     0.174 HD
HETATM    8  N6  UNL     1      18.754  14.017  27.292  1.00  0.00    -0.174 N 
ATOM      9  H6  UNL     1      19.748  13.883  27.481  1.00  0.00     0.186 HD
HETATM   10  C8  UNL     1      17.906  14.079  28.333  1.00  0.00     0.155 A 
HETATM   11  C9  UNL     1      16.551  14.263  28.030  1.00  0.00     0.123 A 
HETATM   12  N7  UNL     1      15.916  14.286  29.212  1.00  0.00    -0.346 N 
ATOM     13  H7  UNL     1      14.909  14.405  29.319  1.00  0.00     0.167 HD
HETATM   14  C10 UNL     1      16.767  14.133  30.233  1.00  0.00     0.185 A 
HETATM   15  N8  UNL     1      18.003  14.006  29.656  1.00  0.00    -0.320 N 
ENDROOT
BRANCH   1  16
HETATM   16  N3  UNL     1      14.933  14.534  26.439  1.00  0.00    -0.372 N 
ATOM     17  H3  UNL     1      14.602  15.433  26.087  1.00  0.00     0.161 HD
BRANCH  16  18
HETATM   18  C5  UNL     1      14.008  13.450  26.628  1.00  0.00     0.141 C 
BRANCH  18  19
HETATM   19  C4  UNL     1      14.541  12.250  25.860  1.00  0.00     0.157 C 
BRANCH  19  20
HETATM   20  N2  UNL     1      13.944  12.199  24.564  1.00  0.00    -0.224 N 
ATOM     21  H2  UNL     1      13.167  12.827  24.359  1.00  0.00     0.177 HD
BRANCH  20  22
HETATM   22  C3  UNL     1      14.352  11.382  23.627  1.00  0.00     0.695 A 
HETATM   23  N1  UNL     1      15.405  10.557  23.805  1.00  0.00    -0.154 N 
HETATM   24  C2  UNL     1      15.823   9.719  22.840  1.00  0.00     0.252 A 
ATOM     25  H1  UNL     1      15.899  10.570  24.698  1.00  0.00     0.188 HD
HETATM   26  N15 UNL     1      15.168   9.704  21.662  1.00  0.00    -0.154 N 
HETATM   27  C14 UNL     1      14.100  10.520  21.441  1.00  0.00     0.695 A 
ATOM     28  H15 UNL     1      15.477   9.071  20.924  1.00  0.00     0.188 HD
HETATM   29  N13 UNL     1      13.734  11.329  22.434  1.00  0.00    -0.022 N 
ATOM     30  H13 UNL     1      12.936  11.945  22.280  1.00  0.00     0.203 HD
BRANCH  24  31
HETATM   31  O1  UNL     1      16.898   8.854  22.977  1.00  0.00    -0.326 OA
HETATM   32  C1  UNL     1      18.185   9.424  23.103  1.00  0.00     0.213 C 
ENDBRANCH  24  31
BRANCH  27  33
HETATM   33  N14 UNL     1      13.523  10.453  20.289  1.00  0.00    -0.225 N 
ATOM     34  H14 UNL     1      14.074  10.388  19.434  1.00  0.00     0.177 HD
BRANCH  33  35
HETATM   35  C15 UNL     1      12.093  10.471  20.239  1.00  0.00     0.148 C 
BRANCH  35  36
HETATM   36  C16 UNL     1      11.547   9.841  18.974  1.00  0.00     0.133 C 
BRANCH  36  37
HETATM   37  C17 UNL     1      10.067   9.927  19.005  1.00  0.00     0.174 C 
HETATM   38  O2  UNL     1       9.474   9.652  20.084  1.00  0.00    -0.648 OA
HETATM   39  O3  UNL     1       9.353  10.306  17.867  1.00  0.00    -0.648 OA
ENDBRANCH  36  37
ENDBRANCH  35  36
ENDBRANCH  33  35
ENDBRANCH  27  33
ENDBRANCH  20  22
ENDBRANCH  19  20
ENDBRANCH  18  19
ENDBRANCH  16  18
ENDBRANCH   1  16
BRANCH  15  40
HETATM   40  C11 UNL     1      19.225  13.841  30.439  1.00  0.00     0.211 C 
BRANCH  40  41
HETATM   41  C12 UNL     1      20.011  15.079  30.494  1.00  0.00     0.133 A 
HETATM   42  N9  UNL     1      19.664  16.124  31.286  1.00  0.00    -0.271 N 
HETATM   43  N10 UNL     1      20.558  17.068  31.130  1.00  0.00    -0.227 N 
ATOM     44  H9  UNL     1      18.849  16.167  31.898  1.00  0.00     0.190 HD
HETATM   45  N11 UNL     1      21.442  16.618  30.260  1.00  0.00    -0.225 N 
ATOM     46  H10 UNL     1      20.569  17.977  31.591  1.00  0.00     0.210 HD
HETATM   47  N12 UNL     1      21.123  15.391  29.855  1.00  0.00    -0.266 N 
ATOM     48  H11 UNL     1      22.259  17.139  29.941  1.00  0.00     0.210 HD
HETATM   49  C13 UNL     1      21.919  14.641  28.908  1.00  0.00     0.181 C 
ENDBRANCH  40  41
ENDBRANCH  15  40
TORSDOF 12
ENDMDL
