MODEL 1
REMARK VINA RESULT: -6.221723242      0.000      0.000
REMARK  11 active torsions:
REMARK  status: ('A' for Active; 'I' for Inactive)
REMARK    1  A    between atoms: C1_4  and  C2_5 
REMARK    2  A    between atoms: C2_5  and  C3_6 
REMARK    3  A    between atoms: C3_6  and  N2_7 
REMARK    4  A    between atoms: N2_7  and  N3_9 
REMARK    5  A    between atoms: N3_9  and  C4_11 
REMARK    6  A    between atoms: N7_20  and  C6_21 
REMARK    7  A    between atoms: C6_21  and  O1_22 
REMARK    8  A    between atoms: C6_21  and  N8_24 
REMARK    9  A    between atoms: N8_24  and  C7_26 
REMARK   10  A    between atoms: C7_26  and  C8_27 
REMARK   11  A    between atoms: C8_27  and  N9_28 
ROOT
HETATM    1  C4  UNL     1      23.505  30.144  39.623  1.00  0.00     0.180 A 
HETATM    2  N4  UNL     1      24.045  28.894  39.585  1.00  0.00    -0.171 N 
ATOM      3  H4  UNL     1      25.050  28.799  39.724  1.00  0.00     0.186 HD
HETATM    4  C5  UNL     1      23.333  27.790  39.377  1.00  0.00     0.692 A 
HETATM    5  N5  UNL     1      23.910  26.627  39.354  1.00  0.00    -0.233 N 
ATOM      6  H51 UNL     1      23.365  25.780  39.194  1.00  0.00     0.174 HD
ATOM      7  H52 UNL     1      24.916  26.524  39.492  1.00  0.00     0.174 HD
HETATM    8  N6  UNL     1      22.007  27.924  39.195  1.00  0.00    -0.125 N 
ATOM      9  H6  UNL     1      21.448  27.086  39.034  1.00  0.00     0.206 HD
HETATM   10  N7  UNL     1      21.399  29.095  39.215  1.00  0.00    -0.212 N 
HETATM   11  C9  UNL     1      22.140  30.203  39.427  1.00  0.00     0.167 A 
HETATM   12  N10 UNL     1      21.555  31.331  39.447  1.00  0.00    -0.381 N 
ATOM     13 1H10 UNL     1      20.547  31.374  39.302  1.00  0.00     0.157 HD
ATOM     14 2H10 UNL     1      22.115  32.168  39.608  1.00  0.00     0.157 HD
ENDROOT
BRANCH  10  15
HETATM   15  C6  UNL     1      19.946  29.178  39.006  1.00  0.00     0.347 C 
BRANCH  15  16
HETATM   16  O1  UNL     1      19.783  29.600  37.690  1.00  0.00    -0.358 OA
ATOM     17  H1  UNL     1      18.846  29.604  37.539  1.00  0.00     0.214 HD
ENDBRANCH  15  16
BRANCH  15  18
HETATM   18  N8  UNL     1      19.369  27.919  39.322  1.00  0.00    -0.378 N 
ATOM     19  H8  UNL     1      19.427  27.138  38.670  1.00  0.00     0.157 HD
BRANCH  18  20
HETATM   20  C7  UNL     1      18.712  27.781  40.569  1.00  0.00     0.145 C 
BRANCH  20  21
HETATM   21  C8  UNL     1      19.459  27.065  41.651  1.00  0.00     0.248 C 
BRANCH  21  22
HETATM   22  N9  UNL     1      20.193  28.070  42.412  1.00  0.00    -0.078 N 
ATOM     23  H93 UNL     1      20.941  28.508  41.875  1.00  0.00     0.274 HD
ATOM     24  H92 UNL     1      19.646  28.913  42.589  1.00  0.00     0.274 HD
ATOM     25  H91 UNL     1      20.524  27.623  43.267  1.00  0.00     0.274 HD
ENDBRANCH  21  22
ENDBRANCH  20  21
ENDBRANCH  18  20
ENDBRANCH  15  18
ENDBRANCH  10  15
BRANCH   1  26
HETATM   26  N3  UNL     1      24.222  31.200  39.825  1.00  0.00    -0.286 N 
ATOM     27  H3  UNL     1      23.951  31.868  40.546  1.00  0.00     0.188 HD
BRANCH  26  28
HETATM   28  N2  UNL     1      25.367  31.430  39.061  1.00  0.00    -0.334 N 
ATOM     29  H2  UNL     1      25.398  31.138  38.085  1.00  0.00     0.180 HD
BRANCH  28  30
HETATM   30  C3  UNL     1      26.506  32.083  39.657  1.00  0.00     0.144 C 
BRANCH  30  31
HETATM   31  C2  UNL     1      27.731  31.219  39.659  1.00  0.00     0.065 C 
BRANCH  31  32
HETATM   32  C1  UNL     1      27.335  29.901  39.047  1.00  0.00     0.054 C 
HETATM   33  N1  UNL     1      27.966  29.479  38.000  1.00  0.00    -0.411 N 
ATOM     34  H12 UNL     1      28.719  30.042  37.606  1.00  0.00     0.155 HD
ATOM     35  H11 UNL     1      27.697  28.587  37.586  1.00  0.00     0.155 HD
ENDBRANCH  31  32
ENDBRANCH  30  31
ENDBRANCH  28  30
ENDBRANCH  26  28
ENDBRANCH   1  26
TORSDOF 11
ENDMDL
MODEL 2
REMARK VINA RESULT: -5.859002056      1.750      6.053
REMARK  11 active torsions:
REMARK  status: ('A' for Active; 'I' for Inactive)
REMARK    1  A    between atoms: C1_4  and  C2_5 
REMARK    2  A    between atoms: C2_5  and  C3_6 
REMARK    3  A    between atoms: C3_6  and  N2_7 
REMARK    4  A    between atoms: N2_7  and  N3_9 
REMARK    5  A    between atoms: N3_9  and  C4_11 
REMARK    6  A    between atoms: N7_20  and  C6_21 
REMARK    7  A    between atoms: C6_21  and  O1_22 
REMARK    8  A    between atoms: C6_21  and  N8_24 
REMARK    9  A    between atoms: N8_24  and  C7_26 
REMARK   10  A    between atoms: C7_26  and  C8_27 
REMARK   11  A    between atoms: C8_27  and  N9_28 
ROOT
HETATM    1  C4  UNL     1      21.628  28.808  38.988  1.00  0.00     0.180 A 
HETATM    2  N4  UNL     1      22.372  27.667  38.996  1.00  0.00    -0.171 N 
ATOM      3  H4  UNL     1      21.897  26.781  38.821  1.00  0.00     0.186 HD
HETATM    4  C5  UNL     1      23.683  27.643  39.220  1.00  0.00     0.692 A 
HETATM    5  N5  UNL     1      24.333  26.518  39.212  1.00  0.00    -0.233 N 
ATOM      6  H51 UNL     1      25.338  26.500  39.384  1.00  0.00     0.174 HD
ATOM      7  H52 UNL     1      23.864  25.629  39.038  1.00  0.00     0.174 HD
HETATM    8  N6  UNL     1      24.300  28.815  39.449  1.00  0.00    -0.125 N 
ATOM      9  H6  UNL     1      25.305  28.812  39.622  1.00  0.00     0.206 HD
HETATM   10  N7  UNL     1      23.661  29.969  39.461  1.00  0.00    -0.212 N 
HETATM   11  C9  UNL     1      22.330  29.971  39.232  1.00  0.00     0.167 A 
HETATM   12  N10 UNL     1      21.714  31.082  39.243  1.00  0.00    -0.381 N 
ATOM     13 1H10 UNL     1      22.233  31.941  39.423  1.00  0.00     0.157 HD
ATOM     14 2H10 UNL     1      20.709  31.083  39.070  1.00  0.00     0.157 HD
ENDROOT
BRANCH  10  15
HETATM   15  C6  UNL     1      24.392  31.218  39.721  1.00  0.00     0.347 C 
BRANCH  15  16
HETATM   16  O1  UNL     1      24.593  31.251  41.098  1.00  0.00    -0.358 OA
ATOM     17  H1  UNL     1      24.931  32.118  41.284  1.00  0.00     0.214 HD
ENDBRANCH  15  16
BRANCH  15  18
HETATM   18  N8  UNL     1      25.571  31.227  38.929  1.00  0.00    -0.378 N 
ATOM     19  H8  UNL     1      25.530  31.058  37.924  1.00  0.00     0.157 HD
BRANCH  18  20
HETATM   20  C7  UNL     1      26.806  31.478  39.576  1.00  0.00     0.145 C 
BRANCH  20  21
HETATM   21  C8  UNL     1      27.849  30.409  39.479  1.00  0.00     0.248 C 
BRANCH  21  22
HETATM   22  N9  UNL     1      27.571  29.636  38.274  1.00  0.00    -0.078 N 
ATOM     23  H93 UNL     1      27.951  30.064  37.430  1.00  0.00     0.274 HD
ATOM     24  H92 UNL     1      28.098  28.764  38.230  1.00  0.00     0.274 HD
ATOM     25  H91 UNL     1      26.562  29.495  38.230  1.00  0.00     0.274 HD
ENDBRANCH  21  22
ENDBRANCH  20  21
ENDBRANCH  18  20
ENDBRANCH  15  18
ENDBRANCH  10  15
BRANCH   1  26
HETATM   26  N3  UNL     1      20.354  28.801  38.770  1.00  0.00    -0.286 N 
ATOM     27  H3  UNL     1      19.961  29.393  38.039  1.00  0.00     0.188 HD
BRANCH  26  28
HETATM   28  N2  UNL     1      19.514  27.986  39.530  1.00  0.00    -0.334 N 
ATOM     29  H2  UNL     1      19.244  27.066  39.183  1.00  0.00     0.180 HD
BRANCH  28  30
HETATM   30  C3  UNL     1      19.031  28.448  40.807  1.00  0.00     0.144 C 
BRANCH  30  31
HETATM   31  C2  UNL     1      19.913  28.029  41.944  1.00  0.00     0.065 C 
BRANCH  31  32
HETATM   32  C1  UNL     1      20.524  29.285  42.507  1.00  0.00     0.054 C 
HETATM   33  N1  UNL     1      19.930  30.416  42.309  1.00  0.00    -0.411 N 
ATOM     34  H12 UNL     1      19.060  30.440  41.776  1.00  0.00     0.155 HD
ATOM     35  H11 UNL     1      20.344  31.267  42.690  1.00  0.00     0.155 HD
ENDBRANCH  31  32
ENDBRANCH  30  31
ENDBRANCH  28  30
ENDBRANCH  26  28
ENDBRANCH   1  26
TORSDOF 11
ENDMDL
MODEL 3
REMARK VINA RESULT: -5.833582710      2.129      6.342
REMARK  11 active torsions:
REMARK  status: ('A' for Active; 'I' for Inactive)
REMARK    1  A    between atoms: C1_4  and  C2_5 
REMARK    2  A    between atoms: C2_5  and  C3_6 
REMARK    3  A    between atoms: C3_6  and  N2_7 
REMARK    4  A    between atoms: N2_7  and  N3_9 
REMARK    5  A    between atoms: N3_9  and  C4_11 
REMARK    6  A    between atoms: N7_20  and  C6_21 
REMARK    7  A    between atoms: C6_21  and  O1_22 
REMARK    8  A    between atoms: C6_21  and  N8_24 
REMARK    9  A    between atoms: N8_24  and  C7_26 
REMARK   10  A    between atoms: C7_26  and  C8_27 
REMARK   11  A    between atoms: C8_27  and  N9_28 
ROOT
HETATM    1  C4  UNL     1      21.285  27.753  39.808  1.00  0.00     0.180 A 
HETATM    2  N4  UNL     1      20.514  28.614  39.087  1.00  0.00    -0.171 N 
ATOM      3  H4  UNL     1      19.539  28.365  38.922  1.00  0.00     0.186 HD
HETATM    4  C5  UNL     1      20.962  29.761  38.585  1.00  0.00     0.692 A 
HETATM    5  N5  UNL     1      20.173  30.538  37.907  1.00  0.00    -0.233 N 
ATOM      6  H51 UNL     1      20.516  31.417  37.522  1.00  0.00     0.174 HD
ATOM      7  H52 UNL     1      19.196  30.295  37.738  1.00  0.00     0.174 HD
HETATM    8  N6  UNL     1      22.249  30.082  38.807  1.00  0.00    -0.125 N 
ATOM      9  H6  UNL     1      22.607  30.959  38.429  1.00  0.00     0.206 HD
HETATM   10  N7  UNL     1      23.069  29.310  39.494  1.00  0.00    -0.212 N 
HETATM   11  C9  UNL     1      22.594  28.149  39.995  1.00  0.00     0.167 A 
HETATM   12  N10 UNL     1      23.384  27.405  40.656  1.00  0.00    -0.381 N 
ATOM     13 1H10 UNL     1      24.351  27.698  40.794  1.00  0.00     0.157 HD
ATOM     14 2H10 UNL     1      23.025  26.528  41.034  1.00  0.00     0.157 HD
ENDROOT
BRANCH  10  15
HETATM   15  C6  UNL     1      24.468  29.714  39.701  1.00  0.00     0.347 C 
BRANCH  15  16
HETATM   16  O1  UNL     1      25.171  29.183  38.623  1.00  0.00    -0.358 OA
ATOM     17  H1  UNL     1      25.220  29.884  37.984  1.00  0.00     0.214 HD
ENDBRANCH  15  16
BRANCH  15  18
HETATM   18  N8  UNL     1      24.518  31.127  39.829  1.00  0.00    -0.378 N 
ATOM     19  H8  UNL     1      23.763  31.713  39.474  1.00  0.00     0.157 HD
BRANCH  18  20
HETATM   20  C7  UNL     1      25.647  31.700  40.464  1.00  0.00     0.145 C 
BRANCH  20  21
HETATM   21  C8  UNL     1      26.737  32.210  39.575  1.00  0.00     0.248 C 
BRANCH  21  22
HETATM   22  N9  UNL     1      27.670  31.111  39.354  1.00  0.00    -0.078 N 
ATOM     23  H93 UNL     1      27.292  30.206  39.635  1.00  0.00     0.274 HD
ATOM     24  H92 UNL     1      27.806  30.896  38.366  1.00  0.00     0.274 HD
ATOM     25  H91 UNL     1      28.538  31.347  39.835  1.00  0.00     0.274 HD
ENDBRANCH  21  22
ENDBRANCH  20  21
ENDBRANCH  18  20
ENDBRANCH  15  18
ENDBRANCH  10  15
BRANCH   1  26
HETATM   26  N3  UNL     1      20.824  26.643  40.282  1.00  0.00    -0.286 N 
ATOM     27  H3  UNL     1      21.183  25.754  39.935  1.00  0.00     0.188 HD
BRANCH  26  28
HETATM   28  N2  UNL     1      19.835  26.655  41.267  1.00  0.00    -0.334 N 
ATOM     29  H2  UNL     1      18.859  26.806  41.010  1.00  0.00     0.180 HD
BRANCH  28  30
HETATM   30  C3  UNL     1      20.197  26.454  42.648  1.00  0.00     0.144 C 
BRANCH  30  31
HETATM   31  C2  UNL     1      20.274  27.738  43.417  1.00  0.00     0.065 C 
BRANCH  31  32
HETATM   32  C1  UNL     1      21.722  27.943  43.778  1.00  0.00     0.054 C 
HETATM   33  N1  UNL     1      22.137  27.572  44.945  1.00  0.00    -0.411 N 
ATOM     34  H12 UNL     1      21.481  27.147  45.600  1.00  0.00     0.155 HD
ATOM     35  H11 UNL     1      23.117  27.711  45.189  1.00  0.00     0.155 HD
ENDBRANCH  31  32
ENDBRANCH  30  31
ENDBRANCH  28  30
ENDBRANCH  26  28
ENDBRANCH   1  26
TORSDOF 11
ENDMDL
MODEL 4
REMARK VINA RESULT: -5.829164604      2.043      2.895
REMARK  11 active torsions:
REMARK  status: ('A' for Active; 'I' for Inactive)
REMARK    1  A    between atoms: C1_4  and  C2_5 
REMARK    2  A    between atoms: C2_5  and  C3_6 
REMARK    3  A    between atoms: C3_6  and  N2_7 
REMARK    4  A    between atoms: N2_7  and  N3_9 
REMARK    5  A    between atoms: N3_9  and  C4_11 
REMARK    6  A    between atoms: N7_20  and  C6_21 
REMARK    7  A    between atoms: C6_21  and  O1_22 
REMARK    8  A    between atoms: C6_21  and  N8_24 
REMARK    9  A    between atoms: N8_24  and  C7_26 
REMARK   10  A    between atoms: C7_26  and  C8_27 
REMARK   11  A    between atoms: C8_27  and  N9_28 
ROOT
HETATM    1  C4  UNL     1      22.666  30.752  39.721  1.00  0.00     0.180 A 
HETATM    2  N4  UNL     1      21.899  30.651  38.600  1.00  0.00    -0.171 N 
ATOM      3  H4  UNL     1      22.287  30.989  37.719  1.00  0.00     0.186 HD
HETATM    4  C5  UNL     1      20.672  30.138  38.589  1.00  0.00     0.692 A 
HETATM    5  N5  UNL     1      19.995  30.071  37.483  1.00  0.00    -0.233 N 
ATOM      6  H51 UNL     1      19.054  29.677  37.475  1.00  0.00     0.174 HD
ATOM      7  H52 UNL     1      20.377  30.406  36.599  1.00  0.00     0.174 HD
HETATM    8  N6  UNL     1      20.169  29.695  39.755  1.00  0.00    -0.125 N 
ATOM      9  H6  UNL     1      19.229  29.299  39.762  1.00  0.00     0.206 HD
HETATM   10  N7  UNL     1      20.839  29.752  40.890  1.00  0.00    -0.212 N 
HETATM   11  C9  UNL     1      22.082  30.278  40.879  1.00  0.00     0.167 A 
HETATM   12  N10 UNL     1      22.728  30.333  41.971  1.00  0.00    -0.381 N 
ATOM     13 1H10 UNL     1      22.297  29.983  42.826  1.00  0.00     0.157 HD
ATOM     14 2H10 UNL     1      23.668  30.730  41.963  1.00  0.00     0.157 HD
ENDROOT
BRANCH  10  15
HETATM   15  C6  UNL     1      20.233  29.254  42.134  1.00  0.00     0.347 C 
BRANCH  15  16
HETATM   16  O1  UNL     1      19.537  30.336  42.666  1.00  0.00    -0.358 OA
ATOM     17  H1  UNL     1      19.823  31.091  42.168  1.00  0.00     0.214 HD
ENDBRANCH  15  16
BRANCH  15  18
HETATM   18  N8  UNL     1      19.448  28.110  41.830  1.00  0.00    -0.378 N 
ATOM     19  H8  UNL     1      18.533  28.204  41.388  1.00  0.00     0.157 HD
BRANCH  18  20
HETATM   20  C7  UNL     1      19.971  26.836  42.158  1.00  0.00     0.145 C 
BRANCH  20  21
HETATM   21  C8  UNL     1      20.511  26.016  41.028  1.00  0.00     0.248 C 
BRANCH  21  22
HETATM   22  N9  UNL     1      19.558  26.108  39.928  1.00  0.00    -0.078 N 
ATOM     23  H93 UNL     1      19.811  25.521  39.133  1.00  0.00     0.274 HD
ATOM     24  H92 UNL     1      18.663  25.667  40.139  1.00  0.00     0.274 HD
ATOM     25  H91 UNL     1      19.470  27.094  39.683  1.00  0.00     0.274 HD
ENDBRANCH  21  22
ENDBRANCH  20  21
ENDBRANCH  18  20
ENDBRANCH  15  18
ENDBRANCH  10  15
BRANCH   1  26
HETATM   26  N3  UNL     1      23.855  31.258  39.702  1.00  0.00    -0.286 N 
ATOM     27  H3  UNL     1      24.033  32.155  40.154  1.00  0.00     0.188 HD
BRANCH  26  28
HETATM   28  N2  UNL     1      24.897  30.582  39.067  1.00  0.00    -0.334 N 
ATOM     29  H2  UNL     1      24.864  30.420  38.060  1.00  0.00     0.180 HD
BRANCH  28  30
HETATM   30  C3  UNL     1      26.022  30.112  39.838  1.00  0.00     0.144 C 
BRANCH  30  31
HETATM   31  C2  UNL     1      25.819  28.725  40.368  1.00  0.00     0.065 C 
BRANCH  31  32
HETATM   32  C1  UNL     1      25.270  27.901  39.234  1.00  0.00     0.054 C 
HETATM   33  N1  UNL     1      26.080  27.170  38.539  1.00  0.00    -0.411 N 
ATOM     34  H12 UNL     1      27.073  27.162  38.769  1.00  0.00     0.155 HD
ATOM     35  H11 UNL     1      25.708  26.612  37.770  1.00  0.00     0.155 HD
ENDBRANCH  31  32
ENDBRANCH  30  31
ENDBRANCH  28  30
ENDBRANCH  26  28
ENDBRANCH   1  26
TORSDOF 11
ENDMDL
MODEL 5
REMARK VINA RESULT: -5.827335668      1.902      2.761
REMARK  11 active torsions:
REMARK  status: ('A' for Active; 'I' for Inactive)
REMARK    1  A    between atoms: C1_4  and  C2_5 
REMARK    2  A    between atoms: C2_5  and  C3_6 
REMARK    3  A    between atoms: C3_6  and  N2_7 
REMARK    4  A    between atoms: N2_7  and  N3_9 
REMARK    5  A    between atoms: N3_9  and  C4_11 
REMARK    6  A    between atoms: N7_20  and  C6_21 
REMARK    7  A    between atoms: C6_21  and  O1_22 
REMARK    8  A    between atoms: C6_21  and  N8_24 
REMARK    9  A    between atoms: N8_24  and  C7_26 
REMARK   10  A    between atoms: C7_26  and  C8_27 
REMARK   11  A    between atoms: C8_27  and  N9_28 
ROOT
HETATM    1  C4  UNL     1      22.155  30.115  40.237  1.00  0.00     0.180 A 
HETATM    2  N4  UNL     1      21.638  30.605  39.076  1.00  0.00    -0.171 N 
ATOM      3  H4  UNL     1      22.136  31.361  38.608  1.00  0.00     0.186 HD
HETATM    4  C5  UNL     1      20.518  30.151  38.518  1.00  0.00     0.692 A 
HETATM    5  N5  UNL     1      20.081  30.663  37.407  1.00  0.00    -0.233 N 
ATOM      6  H51 UNL     1      19.222  30.316  36.980  1.00  0.00     0.174 HD
ATOM      7  H52 UNL     1      20.574  31.420  36.934  1.00  0.00     0.174 HD
HETATM    8  N6  UNL     1      19.867  29.153  39.141  1.00  0.00    -0.125 N 
ATOM      9  H6  UNL     1      19.008  28.795  38.725  1.00  0.00     0.206 HD
HETATM   10  N7  UNL     1      20.294  28.618  40.269  1.00  0.00    -0.212 N 
HETATM   11  C9  UNL     1      21.432  29.093  40.819  1.00  0.00     0.167 A 
HETATM   12  N10 UNL     1      21.843  28.578  41.905  1.00  0.00    -0.381 N 
ATOM     13 1H10 UNL     1      21.309  27.823  42.335  1.00  0.00     0.157 HD
ATOM     14 2H10 UNL     1      22.703  28.937  42.320  1.00  0.00     0.157 HD
ENDROOT
BRANCH  10  15
HETATM   15  C6  UNL     1      19.536  27.530  40.905  1.00  0.00     0.347 C 
BRANCH  15  16
HETATM   16  O1  UNL     1      18.203  27.928  40.857  1.00  0.00    -0.358 OA
ATOM     17  H1  UNL     1      17.809  27.592  41.652  1.00  0.00     0.214 HD
ENDBRANCH  15  16
BRANCH  15  18
HETATM   18  N8  UNL     1      19.837  26.315  40.235  1.00  0.00    -0.378 N 
ATOM     19  H8  UNL     1      19.548  26.163  39.269  1.00  0.00     0.157 HD
BRANCH  18  20
HETATM   20  C7  UNL     1      20.550  25.320  40.947  1.00  0.00     0.145 C 
BRANCH  20  21
HETATM   21  C8  UNL     1      20.509  25.396  42.441  1.00  0.00     0.248 C 
BRANCH  21  22
HETATM   22  N9  UNL     1      20.952  24.106  42.956  1.00  0.00    -0.078 N 
ATOM     23  H93 UNL     1      20.182  23.460  43.128  1.00  0.00     0.274 HD
ATOM     24  H92 UNL     1      21.442  23.546  42.258  1.00  0.00     0.274 HD
ATOM     25  H91 UNL     1      21.513  24.288  43.788  1.00  0.00     0.274 HD
ENDBRANCH  21  22
ENDBRANCH  20  21
ENDBRANCH  18  20
ENDBRANCH  15  18
ENDBRANCH  10  15
BRANCH   1  26
HETATM   26  N3  UNL     1      23.244  30.577  40.757  1.00  0.00    -0.286 N 
ATOM     27  H3  UNL     1      23.443  30.416  41.744  1.00  0.00     0.188 HD
BRANCH  26  28
HETATM   28  N2  UNL     1      24.149  31.294  39.974  1.00  0.00    -0.334 N 
ATOM     29  H2  UNL     1      23.919  31.523  39.007  1.00  0.00     0.180 HD
BRANCH  28  30
HETATM   30  C3  UNL     1      25.409  31.711  40.536  1.00  0.00     0.144 C 
BRANCH  30  31
HETATM   31  C2  UNL     1      26.518  31.714  39.527  1.00  0.00     0.065 C 
BRANCH  31  32
HETATM   32  C1  UNL     1      26.412  30.423  38.760  1.00  0.00     0.054 C 
HETATM   33  N1  UNL     1      27.495  29.805  38.418  1.00  0.00    -0.411 N 
ATOM     34  H12 UNL     1      28.401  30.199  38.672  1.00  0.00     0.155 HD
ATOM     35  H11 UNL     1      27.423  28.930  37.898  1.00  0.00     0.155 HD
ENDBRANCH  31  32
ENDBRANCH  30  31
ENDBRANCH  28  30
ENDBRANCH  26  28
ENDBRANCH   1  26
TORSDOF 11
ENDMDL
