MODEL 1
REMARK VINA RESULT: -6.453859183      0.000      0.000
REMARK  12 active torsions:
REMARK  status: ('A' for Active; 'I' for Inactive)
REMARK    1  A    between atoms: N1_1  and  N2_4 
REMARK    2  A    between atoms: N2_4  and  C1_5 
REMARK    3  A    between atoms: C2_9  and  N4_10 
REMARK    4  A    between atoms: N4_10  and  C3_12 
REMARK    5  A    between atoms: C4_13  and  O1_14 
REMARK    6  A    between atoms: N5_16  and  C5_17 
REMARK    7  A    between atoms: C5_17  and  C6_18 
REMARK    8  A    between atoms: C6_18  and  N6_19 
REMARK    9  A    between atoms: N6_19  and  N7_20 
REMARK   10  A    between atoms: N6_19  and  C7_23 
REMARK   11  A    between atoms: C7_23  and  C8_24 
REMARK   12  A    between atoms: C8_24  and  O2_25 
ROOT
HETATM    1  C3  UNL     1      22.299  30.550  39.695  1.00  0.00     0.152 A 
HETATM    2  C4  UNL     1      21.189  30.455  39.010  1.00  0.00     0.178 A 
HETATM    3  N5  UNL     1      20.481  30.040  40.170  1.00  0.00    -0.286 N 
HETATM    4  C9  UNL     1      21.695  30.142  40.928  1.00  0.00     0.281 A 
HETATM    5  O3  UNL     1      22.087  29.970  42.105  1.00  0.00    -0.265 OA
ENDROOT
BRANCH   1   6
HETATM    6  N4  UNL     1      23.622  30.936  39.266  1.00  0.00    -0.333 N 
ATOM      7  H4  UNL     1      23.838  31.073  38.279  1.00  0.00     0.164 HD
BRANCH   6   8
HETATM    8  C2  UNL     1      24.635  31.124  40.287  1.00  0.00     0.436 C 
HETATM    9  N3  UNL     1      25.353  32.364  40.188  1.00  0.00     0.012 N 
HETATM   10  C1  UNL     1      26.317  31.593  39.437  1.00  0.00     0.445 C 
ATOM     11  H32 UNL     1      25.613  32.911  41.009  1.00  0.00     0.287 HD
ATOM     12  H31 UNL     1      24.927  33.214  39.818  1.00  0.00     0.287 HD
HETATM   13  O4  UNL     1      25.804  30.440  39.980  1.00  0.00    -0.296 OA
BRANCH  10  14
HETATM   14  N2  UNL     1      27.675  31.912  39.845  1.00  0.00    -0.087 NA
BRANCH  14  15
HETATM   15  N1  UNL     1      28.519  30.864  39.415  1.00  0.00    -0.344 N 
ATOM     16  H12 UNL     1      28.257  30.132  38.754  1.00  0.00     0.172 HD
ATOM     17  H11 UNL     1      29.421  30.973  39.879  1.00  0.00     0.172 HD
ENDBRANCH  14  15
ENDBRANCH  10  14
ENDBRANCH   6   8
ENDBRANCH   1   6
BRANCH   2  18
HETATM   18  O1  UNL     1      20.787  30.661  37.677  1.00  0.00    -0.344 OA
ATOM     19  H1  UNL     1      20.090  31.125  37.229  1.00  0.00     0.219 HD
ENDBRANCH   2  18
BRANCH   3  20
HETATM   20  C5  UNL     1      19.192  29.587  40.617  1.00  0.00     0.180 C 
BRANCH  20  21
HETATM   21  C6  UNL     1      18.908  28.142  40.583  1.00  0.00     0.102 C 
BRANCH  21  22
HETATM   22  N6  UNL     1      19.737  27.266  41.233  1.00  0.00    -0.310 N 
BRANCH  22  23
HETATM   23  N7  UNL     1      19.922  27.487  42.605  1.00  0.00    -0.344 N 
ATOM     24  H72 UNL     1      19.077  27.703  43.132  1.00  0.00     0.177 HD
ATOM     25  H71 UNL     1      20.884  27.456  42.942  1.00  0.00     0.177 HD
ENDBRANCH  22  23
BRANCH  22  26
HETATM   26  C7  UNL     1      20.369  26.150  40.720  1.00  0.00     0.173 C 
BRANCH  26  27
HETATM   27  C8  UNL     1      21.822  26.608  40.364  1.00  0.00     0.185 C 
BRANCH  27  28
HETATM   28  O2  UNL     1      21.797  26.988  39.050  1.00  0.00    -0.399 OA
ATOM     29  H2  UNL     1      21.893  26.193  38.539  1.00  0.00     0.209 HD
ENDBRANCH  27  28
ENDBRANCH  26  27
ENDBRANCH  22  26
ENDBRANCH  21  22
ENDBRANCH  20  21
ENDBRANCH   3  20
TORSDOF 12
ENDMDL
MODEL 2
REMARK VINA RESULT: -6.260117819      1.506      2.306
REMARK  12 active torsions:
REMARK  status: ('A' for Active; 'I' for Inactive)
REMARK    1  A    between atoms: N1_1  and  N2_4 
REMARK    2  A    between atoms: N2_4  and  C1_5 
REMARK    3  A    between atoms: C2_9  and  N4_10 
REMARK    4  A    between atoms: N4_10  and  C3_12 
REMARK    5  A    between atoms: C4_13  and  O1_14 
REMARK    6  A    between atoms: N5_16  and  C5_17 
REMARK    7  A    between atoms: C5_17  and  C6_18 
REMARK    8  A    between atoms: C6_18  and  N6_19 
REMARK    9  A    between atoms: N6_19  and  N7_20 
REMARK   10  A    between atoms: N6_19  and  C7_23 
REMARK   11  A    between atoms: C7_23  and  C8_24 
REMARK   12  A    between atoms: C8_24  and  O2_25 
ROOT
HETATM    1  C3  UNL     1      23.060  29.197  40.170  1.00  0.00     0.152 A 
HETATM    2  C4  UNL     1      22.952  28.058  39.535  1.00  0.00     0.178 A 
HETATM    3  N5  UNL     1      22.394  27.442  40.687  1.00  0.00    -0.286 N 
HETATM    4  C9  UNL     1      22.509  28.688  41.389  1.00  0.00     0.281 A 
HETATM    5  O3  UNL     1      22.259  29.156  42.524  1.00  0.00    -0.265 OA
ENDROOT
BRANCH   1   6
HETATM    6  N4  UNL     1      23.573  30.466  39.713  1.00  0.00    -0.333 N 
ATOM      7  H4  UNL     1      23.267  30.872  38.829  1.00  0.00     0.164 HD
BRANCH   6   8
HETATM    8  C2  UNL     1      24.539  31.146  40.554  1.00  0.00     0.436 C 
HETATM    9  N3  UNL     1      25.211  32.244  39.918  1.00  0.00     0.012 N 
HETATM   10  C1  UNL     1      26.231  31.269  39.610  1.00  0.00     0.445 C 
ATOM     11  H32 UNL     1      25.419  33.115  40.407  1.00  0.00     0.287 HD
ATOM     12  H31 UNL     1      24.765  32.813  39.198  1.00  0.00     0.287 HD
HETATM   13  O4  UNL     1      25.744  30.458  40.607  1.00  0.00    -0.296 OA
BRANCH  10  14
HETATM   14  N2  UNL     1      27.560  31.807  39.851  1.00  0.00    -0.087 NA
BRANCH  14  15
HETATM   15  N1  UNL     1      28.505  30.853  39.413  1.00  0.00    -0.344 N 
ATOM     16  H12 UNL     1      28.561  30.470  38.469  1.00  0.00     0.172 HD
ATOM     17  H11 UNL     1      29.110  30.622  40.201  1.00  0.00     0.172 HD
ENDBRANCH  14  15
ENDBRANCH  10  14
ENDBRANCH   6   8
ENDBRANCH   1   6
BRANCH   2  18
HETATM   18  O1  UNL     1      23.246  27.570  38.248  1.00  0.00    -0.344 OA
ATOM     19  H1  UNL     1      23.360  27.937  37.379  1.00  0.00     0.219 HD
ENDBRANCH   2  18
BRANCH   3  20
HETATM   20  C5  UNL     1      21.938  26.177  41.195  1.00  0.00     0.180 C 
BRANCH  20  21
HETATM   21  C6  UNL     1      20.509  25.845  41.064  1.00  0.00     0.102 C 
BRANCH  21  22
HETATM   22  N6  UNL     1      19.557  26.753  41.444  1.00  0.00    -0.310 N 
BRANCH  22  23
HETATM   23  N7  UNL     1      19.648  27.239  42.756  1.00  0.00    -0.344 N 
ATOM     24  H72 UNL     1      19.726  28.251  42.844  1.00  0.00     0.177 HD
ATOM     25  H71 UNL     1      19.675  26.538  43.497  1.00  0.00     0.177 HD
ENDBRANCH  22  23
BRANCH  22  26
HETATM   26  C7  UNL     1      18.548  27.304  40.677  1.00  0.00     0.173 C 
BRANCH  26  27
HETATM   27  C8  UNL     1      19.168  28.576  40.008  1.00  0.00     0.185 C 
BRANCH  27  28
HETATM   28  O2  UNL     1      18.766  29.644  40.762  1.00  0.00    -0.399 OA
ATOM     29  H2  UNL     1      19.554  30.020  41.138  1.00  0.00     0.209 HD
ENDBRANCH  27  28
ENDBRANCH  26  27
ENDBRANCH  22  26
ENDBRANCH  21  22
ENDBRANCH  20  21
ENDBRANCH   3  20
TORSDOF 12
ENDMDL
MODEL 3
REMARK VINA RESULT: -6.256294469      2.212      6.265
REMARK  12 active torsions:
REMARK  status: ('A' for Active; 'I' for Inactive)
REMARK    1  A    between atoms: N1_1  and  N2_4 
REMARK    2  A    between atoms: N2_4  and  C1_5 
REMARK    3  A    between atoms: C2_9  and  N4_10 
REMARK    4  A    between atoms: N4_10  and  C3_12 
REMARK    5  A    between atoms: C4_13  and  O1_14 
REMARK    6  A    between atoms: N5_16  and  C5_17 
REMARK    7  A    between atoms: C5_17  and  C6_18 
REMARK    8  A    between atoms: C6_18  and  N6_19 
REMARK    9  A    between atoms: N6_19  and  N7_20 
REMARK   10  A    between atoms: N6_19  and  C7_23 
REMARK   11  A    between atoms: C7_23  and  C8_24 
REMARK   12  A    between atoms: C8_24  and  O2_25 
ROOT
HETATM    1  C3  UNL     1      22.246  29.563  39.200  1.00  0.00     0.152 A 
HETATM    2  C4  UNL     1      22.748  28.372  38.996  1.00  0.00     0.178 A 
HETATM    3  N5  UNL     1      23.473  28.442  40.215  1.00  0.00    -0.286 N 
HETATM    4  C9  UNL     1      22.927  29.749  40.446  1.00  0.00     0.281 A 
HETATM    5  O3  UNL     1      22.986  30.655  41.310  1.00  0.00    -0.265 OA
ENDROOT
BRANCH   1   6
HETATM    6  N4  UNL     1      21.335  30.336  38.390  1.00  0.00    -0.333 N 
ATOM      7  H4  UNL     1      21.632  31.202  37.943  1.00  0.00     0.164 HD
BRANCH   6   8
HETATM    8  C2  UNL     1      19.982  29.837  38.234  1.00  0.00     0.436 C 
HETATM    9  N3  UNL     1      19.081  30.228  39.282  1.00  0.00     0.012 N 
HETATM   10  C1  UNL     1      19.433  28.959  39.877  1.00  0.00     0.445 C 
ATOM     11  H32 UNL     1      18.114  30.494  39.099  1.00  0.00     0.287 HD
ATOM     12  H31 UNL     1      19.178  31.110  39.783  1.00  0.00     0.287 HD
HETATM   13  O4  UNL     1      19.873  28.517  38.652  1.00  0.00    -0.296 OA
BRANCH  10  14
HETATM   14  N2  UNL     1      18.257  28.277  40.390  1.00  0.00    -0.087 NA
BRANCH  14  15
HETATM   15  N1  UNL     1      18.579  26.911  40.552  1.00  0.00    -0.344 N 
ATOM     16  H12 UNL     1      18.779  26.259  39.793  1.00  0.00     0.172 HD
ATOM     17  H11 UNL     1      18.575  26.701  41.551  1.00  0.00     0.172 HD
ENDBRANCH  14  15
ENDBRANCH  10  14
ENDBRANCH   6   8
ENDBRANCH   1   6
BRANCH   2  18
HETATM   18  O1  UNL     1      22.653  27.377  38.005  1.00  0.00    -0.344 OA
ATOM     19  H1  UNL     1      22.856  26.452  37.932  1.00  0.00     0.219 HD
ENDBRANCH   2  18
BRANCH   3  20
HETATM   20  C5  UNL     1      24.432  27.728  41.014  1.00  0.00     0.180 C 
BRANCH  20  21
HETATM   21  C6  UNL     1      25.844  27.747  40.594  1.00  0.00     0.102 C 
BRANCH  21  22
HETATM   22  N6  UNL     1      26.362  28.858  39.983  1.00  0.00    -0.310 N 
BRANCH  22  23
HETATM   23  N7  UNL     1      26.615  28.751  38.608  1.00  0.00    -0.344 N 
ATOM     24  H72 UNL     1      26.691  27.800  38.250  1.00  0.00     0.177 HD
ATOM     25  H71 UNL     1      26.746  29.628  38.103  1.00  0.00     0.177 HD
ENDBRANCH  22  23
BRANCH  22  26
HETATM   26  C7  UNL     1      26.611  30.099  40.538  1.00  0.00     0.173 C 
BRANCH  26  27
HETATM   27  C8  UNL     1      27.219  30.966  39.387  1.00  0.00     0.185 C 
BRANCH  27  28
HETATM   28  O2  UNL     1      28.569  31.004  39.602  1.00  0.00    -0.399 OA
ATOM     29  H2  UNL     1      28.782  30.231  40.112  1.00  0.00     0.209 HD
ENDBRANCH  27  28
ENDBRANCH  26  27
ENDBRANCH  22  26
ENDBRANCH  21  22
ENDBRANCH  20  21
ENDBRANCH   3  20
TORSDOF 12
ENDMDL
MODEL 4
REMARK VINA RESULT: -6.245494477      1.684      2.948
REMARK  12 active torsions:
REMARK  status: ('A' for Active; 'I' for Inactive)
REMARK    1  A    between atoms: N1_1  and  N2_4 
REMARK    2  A    between atoms: N2_4  and  C1_5 
REMARK    3  A    between atoms: C2_9  and  N4_10 
REMARK    4  A    between atoms: N4_10  and  C3_12 
REMARK    5  A    between atoms: C4_13  and  O1_14 
REMARK    6  A    between atoms: N5_16  and  C5_17 
REMARK    7  A    between atoms: C5_17  and  C6_18 
REMARK    8  A    between atoms: C6_18  and  N6_19 
REMARK    9  A    between atoms: N6_19  and  N7_20 
REMARK   10  A    between atoms: N6_19  and  C7_23 
REMARK   11  A    between atoms: C7_23  and  C8_24 
REMARK   12  A    between atoms: C8_24  and  O2_25 
ROOT
HETATM    1  C3  UNL     1      23.733  28.055  40.570  1.00  0.00     0.152 A 
HETATM    2  C4  UNL     1      23.052  27.522  39.588  1.00  0.00     0.178 A 
HETATM    3  N5  UNL     1      21.880  27.486  40.388  1.00  0.00    -0.286 N 
HETATM    4  C9  UNL     1      22.620  28.071  41.470  1.00  0.00     0.281 A 
HETATM    5  O3  UNL     1      22.427  28.438  42.652  1.00  0.00    -0.265 OA
ENDROOT
BRANCH   1   6
HETATM    6  N4  UNL     1      25.120  28.451  40.628  1.00  0.00    -0.333 N 
ATOM      7  H4  UNL     1      25.705  28.208  41.428  1.00  0.00     0.164 HD
BRANCH   6   8
HETATM    8  C2  UNL     1      25.654  29.206  39.511  1.00  0.00     0.436 C 
HETATM    9  N3  UNL     1      26.986  29.702  39.714  1.00  0.00     0.012 N 
HETATM   10  C1  UNL     1      26.328  30.908  40.157  1.00  0.00     0.445 C 
ATOM     11  H32 UNL     1      27.687  29.704  38.972  1.00  0.00     0.287 HD
ATOM     12  H31 UNL     1      27.670  29.210  40.290  1.00  0.00     0.287 HD
HETATM   13  O4  UNL     1      25.184  30.513  39.506  1.00  0.00    -0.296 OA
BRANCH  10  14
HETATM   14  N2  UNL     1      26.971  32.090  39.606  1.00  0.00    -0.087 NA
BRANCH  14  15
HETATM   15  N1  UNL     1      26.050  33.160  39.671  1.00  0.00    -0.344 N 
ATOM     16  H12 UNL     1      25.089  33.130  39.331  1.00  0.00     0.172 HD
ATOM     17  H11 UNL     1      26.517  33.952  40.113  1.00  0.00     0.172 HD
ENDBRANCH  14  15
ENDBRANCH  10  14
ENDBRANCH   6   8
ENDBRANCH   1   6
BRANCH   2  18
HETATM   18  O1  UNL     1      23.309  27.123  38.263  1.00  0.00    -0.344 OA
ATOM     19  H1  UNL     1      22.827  27.091  37.445  1.00  0.00     0.219 HD
ENDBRANCH   2  18
BRANCH   3  20
HETATM   20  C5  UNL     1      20.512  27.043  40.387  1.00  0.00     0.180 C 
BRANCH  20  21
HETATM   21  C6  UNL     1      19.491  27.928  39.800  1.00  0.00     0.102 C 
BRANCH  21  22
HETATM   22  N6  UNL     1      19.698  29.281  39.760  1.00  0.00    -0.310 N 
BRANCH  22  23
HETATM   23  N7  UNL     1      19.459  29.982  40.951  1.00  0.00    -0.344 N 
ATOM     24  H72 UNL     1      18.663  30.619  40.932  1.00  0.00     0.177 HD
ATOM     25  H71 UNL     1      20.124  29.827  41.709  1.00  0.00     0.177 HD
ENDBRANCH  22  23
BRANCH  22  26
HETATM   26  C7  UNL     1      20.175  30.041  38.710  1.00  0.00     0.173 C 
BRANCH  26  27
HETATM   27  C8  UNL     1      21.414  30.814  39.271  1.00  0.00     0.185 C 
BRANCH  27  28
HETATM   28  O2  UNL     1      22.418  30.652  38.355  1.00  0.00    -0.399 OA
ATOM     29  H2  UNL     1      23.087  30.129  38.781  1.00  0.00     0.209 HD
ENDBRANCH  27  28
ENDBRANCH  26  27
ENDBRANCH  22  26
ENDBRANCH  21  22
ENDBRANCH  20  21
ENDBRANCH   3  20
TORSDOF 12
ENDMDL
MODEL 5
REMARK VINA RESULT: -6.216600412      1.478      2.636
REMARK  12 active torsions:
REMARK  status: ('A' for Active; 'I' for Inactive)
REMARK    1  A    between atoms: N1_1  and  N2_4 
REMARK    2  A    between atoms: N2_4  and  C1_5 
REMARK    3  A    between atoms: C2_9  and  N4_10 
REMARK    4  A    between atoms: N4_10  and  C3_12 
REMARK    5  A    between atoms: C4_13  and  O1_14 
REMARK    6  A    between atoms: N5_16  and  C5_17 
REMARK    7  A    between atoms: C5_17  and  C6_18 
REMARK    8  A    between atoms: C6_18  and  N6_19 
REMARK    9  A    between atoms: N6_19  and  N7_20 
REMARK   10  A    between atoms: N6_19  and  C7_23 
REMARK   11  A    between atoms: C7_23  and  C8_24 
REMARK   12  A    between atoms: C8_24  and  O2_25 
ROOT
HETATM    1  C3  UNL     1      23.110  29.376  40.163  1.00  0.00     0.152 A 
HETATM    2  C4  UNL     1      22.473  28.962  41.228  1.00  0.00     0.178 A 
HETATM    3  N5  UNL     1      22.486  27.626  40.745  1.00  0.00    -0.286 N 
HETATM    4  C9  UNL     1      23.185  28.073  39.574  1.00  0.00     0.281 A 
HETATM    5  O3  UNL     1      23.657  27.592  38.518  1.00  0.00    -0.265 OA
ENDROOT
BRANCH   1   6
HETATM    6  N4  UNL     1      23.540  30.705  39.800  1.00  0.00    -0.333 N 
ATOM      7  H4  UNL     1      23.136  31.190  38.998  1.00  0.00     0.164 HD
BRANCH   6   8
HETATM    8  C2  UNL     1      24.566  31.329  40.613  1.00  0.00     0.436 C 
HETATM    9  N3  UNL     1      25.267  32.401  39.963  1.00  0.00     0.012 N 
HETATM   10  C1  UNL     1      26.228  31.383  39.609  1.00  0.00     0.445 C 
ATOM     11  H32 UNL     1      25.533  33.255  40.454  1.00  0.00     0.287 HD
ATOM     12  H31 UNL     1      24.824  32.999  39.266  1.00  0.00     0.287 HD
HETATM   13  O4  UNL     1      25.739  30.584  40.615  1.00  0.00    -0.296 OA
BRANCH  10  14
HETATM   14  N2  UNL     1      27.589  31.855  39.807  1.00  0.00    -0.087 NA
BRANCH  14  15
HETATM   15  N1  UNL     1      28.471  30.826  39.407  1.00  0.00    -0.344 N 
ATOM     16  H12 UNL     1      28.552  30.456  38.460  1.00  0.00     0.172 HD
ATOM     17  H11 UNL     1      29.003  30.529  40.226  1.00  0.00     0.172 HD
ENDBRANCH  14  15
ENDBRANCH  10  14
ENDBRANCH   6   8
ENDBRANCH   1   6
BRANCH   2  18
HETATM   18  O1  UNL     1      21.958  29.540  42.403  1.00  0.00    -0.344 OA
ATOM     19  H1  UNL     1      21.875  29.293  43.316  1.00  0.00     0.219 HD
ENDBRANCH   2  18
BRANCH   3  20
HETATM   20  C5  UNL     1      22.014  26.302  41.044  1.00  0.00     0.180 C 
BRANCH  20  21
HETATM   21  C6  UNL     1      20.590  25.999  40.821  1.00  0.00     0.102 C 
BRANCH  21  22
HETATM   22  N6  UNL     1      19.626  26.829  41.331  1.00  0.00    -0.310 N 
BRANCH  22  23
HETATM   23  N7  UNL     1      19.754  27.173  42.684  1.00  0.00    -0.344 N 
ATOM     24  H72 UNL     1      20.698  27.111  43.064  1.00  0.00     0.177 HD
ATOM     25  H71 UNL     1      18.891  27.408  43.175  1.00  0.00     0.177 HD
ENDBRANCH  22  23
BRANCH  22  26
HETATM   26  C7  UNL     1      18.572  27.424  40.664  1.00  0.00     0.173 C 
BRANCH  26  27
HETATM   27  C8  UNL     1      19.151  28.735  40.037  1.00  0.00     0.185 C 
BRANCH  27  28
HETATM   28  O2  UNL     1      18.995  29.716  40.978  1.00  0.00    -0.399 OA
ATOM     29  H2  UNL     1      18.282  30.267  40.677  1.00  0.00     0.209 HD
ENDBRANCH  27  28
ENDBRANCH  26  27
ENDBRANCH  22  26
ENDBRANCH  21  22
ENDBRANCH  20  21
ENDBRANCH   3  20
TORSDOF 12
ENDMDL
