MODEL 1
REMARK VINA RESULT: -6.636747056      0.000      0.000
REMARK  5 active torsions:
REMARK  status: ('A' for Active; 'I' for Inactive)
REMARK    1  A    between atoms: C2_2  and  C3_3 
REMARK    2  A    between atoms: C3_3  and  N1_4 
REMARK    3  A    between atoms: C5_9  and  C6_10 
REMARK       I    between atoms: C6_10  and  N3_12 
REMARK    4  A    between atoms: N3_12  and  N4_14 
REMARK    5  A    between atoms: N4_14  and  N5_15 
ROOT
HETATM    1  N1  UNL     1       3.379  -8.268  41.662  1.00  0.00    -0.133 N 
HETATM    2  C4  UNL     1       3.158  -7.863  40.394  1.00  0.00     0.342 A 
HETATM    3  O1  UNL     1       2.404  -6.851  40.229  1.00  0.00    -0.246 OA
HETATM    4  N2  UNL     1       3.693  -8.478  39.336  1.00  0.00    -0.289 N 
ATOM      5  H2  UNL     1       3.494  -8.131  38.397  1.00  0.00     0.172 HD
HETATM    6  C5  UNL     1       4.496  -9.556  39.496  1.00  0.00     0.194 A 
HETATM    7  N6  UNL     1       4.737  -9.983  40.735  1.00  0.00    -0.171 N 
ATOM      8  H6  UNL     1       5.339 -10.792  40.887  1.00  0.00     0.186 HD
HETATM    9  C7  UNL     1       4.178  -9.337  41.803  1.00  0.00     0.683 A 
HETATM   10  N7  UNL     1       4.430  -9.754  42.987  1.00  0.00    -0.234 N 
ATOM     11  H71 UNL     1       5.037 -10.566  43.094  1.00  0.00     0.174 HD
ATOM     12  H72 UNL     1       4.013  -9.272  43.783  1.00  0.00     0.174 HD
ENDROOT
BRANCH   6  13
HETATM   13  C6  UNL     1       5.077 -10.233  38.353  1.00  0.00     0.303 C 
HETATM   14  O2  UNL     1       4.365 -10.392  37.331  1.00  0.00    -0.263 OA
HETATM   15  N3  UNL     1       6.388 -10.703  38.364  1.00  0.00    -0.247 N 
ATOM     16  H3  UNL     1       6.973 -10.576  39.190  1.00  0.00     0.187 HD
BRANCH  15  17
HETATM   17  N4  UNL     1       6.904 -11.358  37.222  1.00  0.00    -0.027 NA
BRANCH  17  18
HETATM   18  N5  UNL     1       7.059 -10.346  36.252  1.00  0.00    -0.329 N 
ATOM     19  H52 UNL     1       7.475  -9.426  36.395  1.00  0.00     0.174 HD
ATOM     20  H51 UNL     1       6.671 -10.735  35.394  1.00  0.00     0.174 HD
ENDBRANCH  17  18
ENDBRANCH  15  17
ENDBRANCH   6  13
BRANCH   1  21
HETATM   21  C3  UNL     1       2.765  -7.541  42.735  1.00  0.00     0.152 C 
BRANCH  21  22
HETATM   22  C2  UNL     1       3.449  -6.284  43.139  1.00  0.00     0.016 C 
HETATM   23  C1  UNL     1       2.590  -5.218  43.721  1.00  0.00     0.006 C 
ENDBRANCH  21  22
ENDBRANCH   1  21
TORSDOF 5
ENDMDL
MODEL 2
REMARK VINA RESULT: -6.604682386      2.519      2.983
REMARK  5 active torsions:
REMARK  status: ('A' for Active; 'I' for Inactive)
REMARK    1  A    between atoms: C2_2  and  C3_3 
REMARK    2  A    between atoms: C3_3  and  N1_4 
REMARK    3  A    between atoms: C5_9  and  C6_10 
REMARK       I    between atoms: C6_10  and  N3_12 
REMARK    4  A    between atoms: N3_12  and  N4_14 
REMARK    5  A    between atoms: N4_14  and  N5_15 
ROOT
HETATM    1  N1  UNL     1       4.223  -7.456  41.356  1.00  0.00    -0.133 N 
HETATM    2  C4  UNL     1       3.693  -7.511  40.116  1.00  0.00     0.342 A 
HETATM    3  O1  UNL     1       2.430  -7.647  40.029  1.00  0.00    -0.246 OA
HETATM    4  N2  UNL     1       4.434  -7.430  39.008  1.00  0.00    -0.289 N 
ATOM      5  H2  UNL     1       3.982  -7.477  38.095  1.00  0.00     0.172 HD
HETATM    6  C5  UNL     1       5.778  -7.287  39.085  1.00  0.00     0.194 A 
HETATM    7  N6  UNL     1       6.336  -7.229  40.294  1.00  0.00    -0.171 N 
ATOM      8  H6  UNL     1       7.347  -7.121  40.384  1.00  0.00     0.186 HD
HETATM    9  C7  UNL     1       5.556  -7.313  41.414  1.00  0.00     0.683 A 
HETATM   10  N7  UNL     1       6.109  -7.244  42.567  1.00  0.00    -0.234 N 
ATOM     11  H71 UNL     1       7.122  -7.135  42.612  1.00  0.00     0.174 HD
ATOM     12  H72 UNL     1       5.527  -7.307  43.402  1.00  0.00     0.174 HD
ENDROOT
BRANCH   6  13
HETATM   13  C6  UNL     1       6.591  -7.204  37.889  1.00  0.00     0.303 C 
HETATM   14  O2  UNL     1       7.820  -6.983  38.021  1.00  0.00    -0.263 OA
HETATM   15  N3  UNL     1       6.048  -7.360  36.615  1.00  0.00    -0.247 N 
ATOM     16  H3  UNL     1       5.051  -7.540  36.501  1.00  0.00     0.187 HD
BRANCH  15  17
HETATM   17  N4  UNL     1       6.888  -7.267  35.483  1.00  0.00    -0.027 NA
BRANCH  17  18
HETATM   18  N5  UNL     1       7.177  -8.600  35.124  1.00  0.00    -0.329 N 
ATOM     19  H52 UNL     1       6.576  -9.411  35.264  1.00  0.00     0.174 HD
ATOM     20  H51 UNL     1       8.105  -8.569  34.701  1.00  0.00     0.174 HD
ENDBRANCH  17  18
ENDBRANCH  15  17
ENDBRANCH   6  13
BRANCH   1  21
HETATM   21  C3  UNL     1       3.345  -7.546  42.486  1.00  0.00     0.152 C 
BRANCH  21  22
HETATM   22  C2  UNL     1       2.869  -8.913  42.828  1.00  0.00     0.016 C 
HETATM   23  C1  UNL     1       3.889  -9.858  43.358  1.00  0.00     0.006 C 
ENDBRANCH  21  22
ENDBRANCH   1  21
TORSDOF 5
ENDMDL
MODEL 3
REMARK VINA RESULT: -6.537135144      2.062      2.327
REMARK  5 active torsions:
REMARK  status: ('A' for Active; 'I' for Inactive)
REMARK    1  A    between atoms: C2_2  and  C3_3 
REMARK    2  A    between atoms: C3_3  and  N1_4 
REMARK    3  A    between atoms: C5_9  and  C6_10 
REMARK       I    between atoms: C6_10  and  N3_12 
REMARK    4  A    between atoms: N3_12  and  N4_14 
REMARK    5  A    between atoms: N4_14  and  N5_15 
ROOT
HETATM    1  N1  UNL     1       4.594  -9.253  42.183  1.00  0.00    -0.133 N 
HETATM    2  C4  UNL     1       4.251  -9.616  40.929  1.00  0.00     0.342 A 
HETATM    3  O1  UNL     1       3.008  -9.685  40.662  1.00  0.00    -0.246 OA
HETATM    4  N2  UNL     1       5.153  -9.897  39.985  1.00  0.00    -0.289 N 
ATOM      5  H2  UNL     1       4.841 -10.166  39.052  1.00  0.00     0.172 HD
HETATM    6  C5  UNL     1       6.478  -9.829  40.254  1.00  0.00     0.194 A 
HETATM    7  N6  UNL     1       6.854  -9.473  41.483  1.00  0.00    -0.171 N 
ATOM      8  H6  UNL     1       7.845  -9.413  41.715  1.00  0.00     0.186 HD
HETATM    9  C7  UNL     1       5.911  -9.190  42.432  1.00  0.00     0.683 A 
HETATM   10  N7  UNL     1       6.290  -8.839  43.604  1.00  0.00    -0.234 N 
ATOM     11  H71 UNL     1       7.291  -8.790  43.793  1.00  0.00     0.174 HD
ATOM     12  H72 UNL     1       5.587  -8.627  44.311  1.00  0.00     0.174 HD
ENDROOT
BRANCH   6  13
HETATM   13  C6  UNL     1       7.466 -10.137  39.239  1.00  0.00     0.303 C 
HETATM   14  O2  UNL     1       8.680 -10.012  39.533  1.00  0.00    -0.263 OA
HETATM   15  N3  UNL     1       7.103 -10.563  37.963  1.00  0.00    -0.247 N 
ATOM     16  H3  UNL     1       6.118 -10.668  37.717  1.00  0.00     0.187 HD
BRANCH  15  17
HETATM   17  N4  UNL     1       8.107 -10.848  37.010  1.00  0.00    -0.027 NA
BRANCH  17  18
HETATM   18  N5  UNL     1       8.775 -11.987  37.505  1.00  0.00    -0.329 N 
ATOM     19  H52 UNL     1       9.671 -12.354  37.183  1.00  0.00     0.174 HD
ATOM     20  H51 UNL     1       8.173 -12.353  38.242  1.00  0.00     0.174 HD
ENDBRANCH  17  18
ENDBRANCH  15  17
ENDBRANCH   6  13
BRANCH   1  21
HETATM   21  C3  UNL     1       3.553  -8.965  43.126  1.00  0.00     0.152 C 
BRANCH  21  22
HETATM   22  C2  UNL     1       2.769  -7.729  42.866  1.00  0.00     0.016 C 
HETATM   23  C1  UNL     1       3.523  -6.447  42.892  1.00  0.00     0.006 C 
ENDBRANCH  21  22
ENDBRANCH   1  21
TORSDOF 5
ENDMDL
MODEL 4
REMARK VINA RESULT: -6.511804600      3.288      3.641
REMARK  5 active torsions:
REMARK  status: ('A' for Active; 'I' for Inactive)
REMARK    1  A    between atoms: C2_2  and  C3_3 
REMARK    2  A    between atoms: C3_3  and  N1_4 
REMARK    3  A    between atoms: C5_9  and  C6_10 
REMARK       I    between atoms: C6_10  and  N3_12 
REMARK    4  A    between atoms: N3_12  and  N4_14 
REMARK    5  A    between atoms: N4_14  and  N5_15 
ROOT
HETATM    1  N1  UNL     1       5.030  -9.479  42.207  1.00  0.00    -0.133 N 
HETATM    2  C4  UNL     1       5.106  -9.855  40.913  1.00  0.00     0.342 A 
HETATM    3  O1  UNL     1       4.019 -10.183  40.337  1.00  0.00    -0.246 OA
HETATM    4  N2  UNL     1       6.257  -9.893  40.237  1.00  0.00    -0.289 N 
ATOM      5  H2  UNL     1       6.259 -10.184  39.259  1.00  0.00     0.172 HD
HETATM    6  C5  UNL     1       7.421  -9.548  40.836  1.00  0.00     0.194 A 
HETATM    7  N6  UNL     1       7.385  -9.171  42.114  1.00  0.00    -0.171 N 
ATOM      8  H6  UNL     1       8.246  -8.905  42.592  1.00  0.00     0.186 HD
HETATM    9  C7  UNL     1       6.194  -9.140  42.785  1.00  0.00     0.683 A 
HETATM   10  N7  UNL     1       6.175  -8.764  44.009  1.00  0.00    -0.234 N 
ATOM     11  H71 UNL     1       7.059  -8.506  44.448  1.00  0.00     0.174 HD
ATOM     12  H72 UNL     1       5.286  -8.741  44.509  1.00  0.00     0.174 HD
ENDROOT
BRANCH   6  13
HETATM   13  C6  UNL     1       8.677  -9.590  40.112  1.00  0.00     0.303 C 
HETATM   14  O2  UNL     1       8.757 -10.334  39.104  1.00  0.00    -0.263 OA
HETATM   15  N3  UNL     1       9.780  -8.836  40.505  1.00  0.00    -0.247 N 
ATOM     16  H3  UNL     1       9.721  -8.228  41.323  1.00  0.00     0.187 HD
BRANCH  15  17
HETATM   17  N4  UNL     1      10.980  -8.916  39.764  1.00  0.00    -0.027 NA
BRANCH  17  18
HETATM   18  N5  UNL     1      11.803  -7.893  40.277  1.00  0.00    -0.329 N 
ATOM     19  H52 UNL     1      12.297  -7.181  39.737  1.00  0.00     0.174 HD
ATOM     20  H51 UNL     1      11.794  -8.022  41.288  1.00  0.00     0.174 HD
ENDBRANCH  17  18
ENDBRANCH  15  17
ENDBRANCH   6  13
BRANCH   1  21
HETATM   21  C3  UNL     1       3.747  -9.465  42.847  1.00  0.00     0.152 C 
BRANCH  21  22
HETATM   22  C2  UNL     1       2.842  -8.352  42.457  1.00  0.00     0.016 C 
HETATM   23  C1  UNL     1       3.274  -6.981  42.840  1.00  0.00     0.006 C 
ENDBRANCH  21  22
ENDBRANCH   1  21
TORSDOF 5
ENDMDL
MODEL 5
REMARK VINA RESULT: -6.474377876      3.814      4.249
REMARK  5 active torsions:
REMARK  status: ('A' for Active; 'I' for Inactive)
REMARK    1  A    between atoms: C2_2  and  C3_3 
REMARK    2  A    between atoms: C3_3  and  N1_4 
REMARK    3  A    between atoms: C5_9  and  C6_10 
REMARK       I    between atoms: C6_10  and  N3_12 
REMARK    4  A    between atoms: N3_12  and  N4_14 
REMARK    5  A    between atoms: N4_14  and  N5_15 
ROOT
HETATM    1  N1  UNL     1       5.661  -9.394  42.425  1.00  0.00    -0.133 N 
HETATM    2  C4  UNL     1       5.774  -9.678  41.111  1.00  0.00     0.342 A 
HETATM    3  O1  UNL     1       4.753 -10.172  40.532  1.00  0.00    -0.246 OA
HETATM    4  N2  UNL     1       6.896  -9.463  40.418  1.00  0.00    -0.289 N 
ATOM      5  H2  UNL     1       6.928  -9.695  39.425  1.00  0.00     0.172 HD
HETATM    6  C5  UNL     1       7.989  -8.939  41.020  1.00  0.00     0.194 A 
HETATM    7  N6  UNL     1       7.914  -8.645  42.318  1.00  0.00    -0.171 N 
ATOM      8  H6  UNL     1       8.722  -8.249  42.798  1.00  0.00     0.186 HD
HETATM    9  C7  UNL     1       6.755  -8.875  43.005  1.00  0.00     0.683 A 
HETATM   10  N7  UNL     1       6.696  -8.576  44.249  1.00  0.00    -0.234 N 
ATOM     11  H71 UNL     1       7.526  -8.181  44.690  1.00  0.00     0.174 HD
ATOM     12  H72 UNL     1       5.831  -8.747  44.762  1.00  0.00     0.174 HD
ENDROOT
BRANCH   6  13
HETATM   13  C6  UNL     1       9.213  -8.706  40.278  1.00  0.00     0.303 C 
HETATM   14  O2  UNL     1       9.757  -9.684  39.707  1.00  0.00    -0.263 OA
HETATM   15  N3  UNL     1       9.790  -7.442  40.186  1.00  0.00    -0.247 N 
ATOM     16  H3  UNL     1       9.352  -6.643  40.645  1.00  0.00     0.187 HD
BRANCH  15  17
HETATM   17  N4  UNL     1      10.984  -7.272  39.450  1.00  0.00    -0.027 NA
BRANCH  17  18
HETATM   18  N5  UNL     1      12.002  -7.812  40.263  1.00  0.00    -0.329 N 
ATOM     19  H52 UNL     1      12.477  -7.344  41.035  1.00  0.00     0.174 HD
ATOM     20  H51 UNL     1      12.152  -8.758  39.913  1.00  0.00     0.174 HD
ENDBRANCH  17  18
ENDBRANCH  15  17
ENDBRANCH   6  13
BRANCH   1  21
HETATM   21  C3  UNL     1       4.414  -9.655  43.082  1.00  0.00     0.152 C 
BRANCH  21  22
HETATM   22  C2  UNL     1       3.431  -8.540  43.071  1.00  0.00     0.016 C 
HETATM   23  C1  UNL     1       2.063  -8.865  42.585  1.00  0.00     0.006 C 
ENDBRANCH  21  22
ENDBRANCH   1  21
TORSDOF 5
ENDMDL
