MODEL 1
REMARK VINA RESULT: -6.751302163      0.000      0.000
REMARK  6 active torsions:
REMARK  status: ('A' for Active; 'I' for Inactive)
REMARK    1  A    between atoms: N1_1  and  C1_4 
REMARK    2  A    between atoms: C3_8  and  C4_9 
REMARK    3  A    between atoms: C4_9  and  N3_10 
REMARK    4  A    between atoms: C4_9  and  C5_14 
REMARK       I    between atoms: C5_14  and  N4_16 
REMARK    5  A    between atoms: N4_16  and  N5_18 
REMARK    6  A    between atoms: C6_23  and  N7_24 
ROOT
HETATM    1  C1  UNL     1       6.338 -10.059  37.166  1.00  0.00     0.150 A 
HETATM    2  N2  UNL     1       5.164  -9.448  36.935  1.00  0.00    -0.347 N 
ATOM      3  H2  UNL     1       4.929  -9.138  35.992  1.00  0.00     0.167 HD
HETATM    4  C2  UNL     1       4.285  -9.240  37.960  1.00  0.00     0.117 A 
HETATM    5  C3  UNL     1       4.570  -9.646  39.238  1.00  0.00     0.066 A 
HETATM    6  N6  UNL     1       5.746 -10.257  39.464  1.00  0.00    -0.335 N 
ATOM      7  H6  UNL     1       5.975 -10.563  40.409  1.00  0.00     0.167 HD
HETATM    8  C6  UNL     1       6.636 -10.474  38.459  1.00  0.00     0.218 A 
ENDROOT
BRANCH   5   9
HETATM    9  C4  UNL     1       3.613  -9.418  40.344  1.00  0.00     0.327 C 
BRANCH   9  10
HETATM   10  N3  UNL     1       2.858  -8.198  40.167  1.00  0.00    -0.061 N 
ATOM     11  H33 UNL     1       3.472  -7.412  39.953  1.00  0.00     0.275 HD
ATOM     12  H32 UNL     1       2.317  -8.221  39.302  1.00  0.00     0.275 HD
ATOM     13  H31 UNL     1       2.263  -7.996  40.970  1.00  0.00     0.275 HD
ENDBRANCH   9  10
BRANCH   9  14
HETATM   14  C5  UNL     1       4.259  -9.399  41.662  1.00  0.00     0.272 C 
HETATM   15  O1  UNL     1       4.321 -10.418  42.419  1.00  0.00    -0.269 OA
HETATM   16  N4  UNL     1       4.846  -8.196  42.125  1.00  0.00    -0.275 N 
ATOM     17  H4  UNL     1       4.808  -7.367  41.533  1.00  0.00     0.189 HD
BRANCH  16  18
HETATM   18  N5  UNL     1       5.476  -8.112  43.371  1.00  0.00    -0.343 N 
ATOM     19  H52 UNL     1       5.645  -8.978  43.881  1.00  0.00     0.176 HD
ATOM     20  H51 UNL     1       5.764  -7.219  43.771  1.00  0.00     0.176 HD
ENDBRANCH  16  18
ENDBRANCH   9  14
ENDBRANCH   5   9
BRANCH   8  21
HETATM   21  N7  UNL     1       7.853 -11.121  38.767  1.00  0.00    -0.094 N 
HETATM   22  O2  UNL     1       8.529 -10.779  39.781  1.00  0.00    -0.530 OA
HETATM   23  O3  UNL     1       8.360 -12.142  37.993  1.00  0.00    -0.530 OA
ENDBRANCH   8  21
BRANCH   1  24
HETATM   24  N1  UNL     1       7.214 -10.285  36.237  1.00  0.00    -0.382 N 
ATOM     25  H12 UNL     1       6.903 -10.767  35.393  1.00  0.00     0.157 HD
ATOM     26  H11 UNL     1       8.192 -10.003  36.312  1.00  0.00     0.157 HD
ENDBRANCH   1  24
TORSDOF 6
ENDMDL
MODEL 2
REMARK VINA RESULT: -6.655320689      2.218      2.536
REMARK  6 active torsions:
REMARK  status: ('A' for Active; 'I' for Inactive)
REMARK    1  A    between atoms: N1_1  and  C1_4 
REMARK    2  A    between atoms: C3_8  and  C4_9 
REMARK    3  A    between atoms: C4_9  and  N3_10 
REMARK    4  A    between atoms: C4_9  and  C5_14 
REMARK       I    between atoms: C5_14  and  N4_16 
REMARK    5  A    between atoms: N4_16  and  N5_18 
REMARK    6  A    between atoms: C6_23  and  N7_24 
ROOT
HETATM    1  C1  UNL     1       6.225  -9.852  37.231  1.00  0.00     0.150 A 
HETATM    2  N2  UNL     1       5.739 -10.885  37.938  1.00  0.00    -0.347 N 
ATOM      3  H2  UNL     1       5.973 -11.841  37.670  1.00  0.00     0.167 HD
HETATM    4  C2  UNL     1       4.932 -10.658  39.017  1.00  0.00     0.117 A 
HETATM    5  C3  UNL     1       4.600  -9.387  39.405  1.00  0.00     0.066 A 
HETATM    6  N6  UNL     1       5.089  -8.357  38.693  1.00  0.00    -0.335 N 
ATOM      7  H6  UNL     1       4.850  -7.404  38.967  1.00  0.00     0.167 HD
HETATM    8  C6  UNL     1       5.894  -8.558  37.617  1.00  0.00     0.218 A 
ENDROOT
BRANCH   5   9
HETATM    9  C4  UNL     1       3.724  -9.148  40.575  1.00  0.00     0.327 C 
BRANCH   9  10
HETATM   10  N3  UNL     1       3.203  -7.800  40.596  1.00  0.00    -0.061 N 
ATOM     11  H33 UNL     1       3.875  -7.138  40.207  1.00  0.00     0.275 HD
ATOM     12  H32 UNL     1       2.450  -7.684  39.918  1.00  0.00     0.275 HD
ATOM     13  H31 UNL     1       2.906  -7.519  41.531  1.00  0.00     0.275 HD
ENDBRANCH   9  10
BRANCH   9  14
HETATM   14  C5  UNL     1       4.390  -9.429  41.852  1.00  0.00     0.272 C 
HETATM   15  O1  UNL     1       4.202 -10.498  42.512  1.00  0.00    -0.269 OA
HETATM   16  N4  UNL     1       5.288  -8.472  42.387  1.00  0.00    -0.275 N 
ATOM     17  H4  UNL     1       5.453  -7.607  41.874  1.00  0.00     0.189 HD
BRANCH  16  18
HETATM   18  N5  UNL     1       5.954  -8.680  43.599  1.00  0.00    -0.343 N 
ATOM     19  H52 UNL     1       5.408  -8.637  44.459  1.00  0.00     0.176 HD
ATOM     20  H51 UNL     1       6.955  -8.869  43.640  1.00  0.00     0.176 HD
ENDBRANCH  16  18
ENDBRANCH   9  14
ENDBRANCH   5   9
BRANCH   8  21
HETATM   21  N7  UNL     1       6.373  -7.430  36.914  1.00  0.00    -0.094 N 
HETATM   22  O2  UNL     1       5.587  -6.712  36.231  1.00  0.00    -0.530 OA
HETATM   23  O3  UNL     1       7.699  -7.057  36.937  1.00  0.00    -0.530 OA
ENDBRANCH   8  21
BRANCH   1  24
HETATM   24  N1  UNL     1       6.996 -10.001  36.198  1.00  0.00    -0.382 N 
ATOM     25  H12 UNL     1       7.926 -10.393  36.347  1.00  0.00     0.157 HD
ATOM     26  H11 UNL     1       6.715  -9.745  35.251  1.00  0.00     0.157 HD
ENDBRANCH   1  24
TORSDOF 6
ENDMDL
MODEL 3
REMARK VINA RESULT: -6.555247816      2.509      3.151
REMARK  6 active torsions:
REMARK  status: ('A' for Active; 'I' for Inactive)
REMARK    1  A    between atoms: N1_1  and  C1_4 
REMARK    2  A    between atoms: C3_8  and  C4_9 
REMARK    3  A    between atoms: C4_9  and  N3_10 
REMARK    4  A    between atoms: C4_9  and  C5_14 
REMARK       I    between atoms: C5_14  and  N4_16 
REMARK    5  A    between atoms: N4_16  and  N5_18 
REMARK    6  A    between atoms: C6_23  and  N7_24 
ROOT
HETATM    1  C1  UNL     1       6.679  -9.758  37.311  1.00  0.00     0.150 A 
HETATM    2  N2  UNL     1       6.615 -10.732  38.233  1.00  0.00    -0.347 N 
ATOM      3  H2  UNL     1       6.764 -11.703  37.959  1.00  0.00     0.167 HD
HETATM    4  C2  UNL     1       6.349 -10.425  39.538  1.00  0.00     0.117 A 
HETATM    5  C3  UNL     1       6.146  -9.131  39.939  1.00  0.00     0.066 A 
HETATM    6  N6  UNL     1       6.212  -8.160  39.012  1.00  0.00    -0.335 N 
ATOM      7  H6  UNL     1       6.061  -7.191  39.293  1.00  0.00     0.167 HD
HETATM    8  C6  UNL     1       6.474  -8.442  37.708  1.00  0.00     0.218 A 
ENDROOT
BRANCH   5   9
HETATM    9  C4  UNL     1       5.860  -8.805  41.355  1.00  0.00     0.327 C 
BRANCH   9  10
HETATM   10  N3  UNL     1       6.874  -9.321  42.247  1.00  0.00    -0.061 N 
ATOM     11  H33 UNL     1       7.106 -10.288  42.022  1.00  0.00     0.275 HD
ATOM     12  H32 UNL     1       7.780  -8.890  42.064  1.00  0.00     0.275 HD
ATOM     13  H31 UNL     1       6.608  -9.221  43.227  1.00  0.00     0.275 HD
ENDBRANCH   9  10
BRANCH   9  14
HETATM   14  C5  UNL     1       4.543  -9.281  41.794  1.00  0.00     0.272 C 
HETATM   15  O1  UNL     1       4.359 -10.421  42.324  1.00  0.00    -0.269 OA
HETATM   16  N4  UNL     1       3.414  -8.442  41.627  1.00  0.00    -0.275 N 
ATOM     17  H4  UNL     1       3.539  -7.522  41.203  1.00  0.00     0.189 HD
BRANCH  16  18
HETATM   18  N5  UNL     1       2.133  -8.837  42.024  1.00  0.00    -0.343 N 
ATOM     19  H52 UNL     1       2.044  -9.694  42.569  1.00  0.00     0.176 HD
ATOM     20  H51 UNL     1       1.302  -8.295  41.784  1.00  0.00     0.176 HD
ENDBRANCH  16  18
ENDBRANCH   9  14
ENDBRANCH   5   9
BRANCH   8  21
HETATM   21  N7  UNL     1       6.528  -7.372  36.787  1.00  0.00    -0.094 N 
HETATM   22  O2  UNL     1       7.634  -6.979  36.316  1.00  0.00    -0.530 OA
HETATM   23  O3  UNL     1       5.397  -6.712  36.359  1.00  0.00    -0.530 OA
ENDBRANCH   8  21
BRANCH   1  24
HETATM   24  N1  UNL     1       6.927  -9.984  36.058  1.00  0.00    -0.382 N 
ATOM     25  H12 UNL     1       6.455 -10.771  35.612  1.00  0.00     0.157 HD
ATOM     26  H11 UNL     1       7.566  -9.414  35.504  1.00  0.00     0.157 HD
ENDBRANCH   1  24
TORSDOF 6
ENDMDL
MODEL 4
REMARK VINA RESULT: -6.551081828      1.771      2.310
REMARK  6 active torsions:
REMARK  status: ('A' for Active; 'I' for Inactive)
REMARK    1  A    between atoms: N1_1  and  C1_4 
REMARK    2  A    between atoms: C3_8  and  C4_9 
REMARK    3  A    between atoms: C4_9  and  N3_10 
REMARK    4  A    between atoms: C4_9  and  C5_14 
REMARK       I    between atoms: C5_14  and  N4_16 
REMARK    5  A    between atoms: N4_16  and  N5_18 
REMARK    6  A    between atoms: C6_23  and  N7_24 
ROOT
HETATM    1  C1  UNL     1       6.420  -8.523  37.391  1.00  0.00     0.150 A 
HETATM    2  N2  UNL     1       6.026  -7.407  38.026  1.00  0.00    -0.347 N 
ATOM      3  H2  UNL     1       5.874  -6.548  37.498  1.00  0.00     0.167 HD
HETATM    4  C2  UNL     1       5.828  -7.421  39.377  1.00  0.00     0.117 A 
HETATM    5  C3  UNL     1       6.022  -8.559  40.115  1.00  0.00     0.066 A 
HETATM    6  N6  UNL     1       6.416  -9.673  39.475  1.00  0.00    -0.335 N 
ATOM      7  H6  UNL     1       6.567 -10.529  40.009  1.00  0.00     0.167 HD
HETATM    8  C6  UNL     1       6.620  -9.683  38.130  1.00  0.00     0.218 A 
ENDROOT
BRANCH   5   9
HETATM    9  C4  UNL     1       5.805  -8.568  41.580  1.00  0.00     0.327 C 
BRANCH   9  10
HETATM   10  N3  UNL     1       6.896  -9.202  42.286  1.00  0.00    -0.061 N 
ATOM     11  H33 UNL     1       6.704  -9.261  43.286  1.00  0.00     0.275 HD
ATOM     12  H32 UNL     1       6.945 -10.197  42.072  1.00  0.00     0.275 HD
ATOM     13  H31 UNL     1       7.788  -8.740  42.107  1.00  0.00     0.275 HD
ENDBRANCH   9  10
BRANCH   9  14
HETATM   14  C5  UNL     1       4.543  -9.209  41.966  1.00  0.00     0.272 C 
HETATM   15  O1  UNL     1       4.391 -10.470  42.013  1.00  0.00    -0.269 OA
HETATM   16  N4  UNL     1       3.432  -8.398  42.305  1.00  0.00    -0.275 N 
ATOM     17  H4  UNL     1       3.532  -7.384  42.275  1.00  0.00     0.189 HD
BRANCH  16  18
HETATM   18  N5  UNL     1       2.202  -8.948  42.681  1.00  0.00    -0.343 N 
ATOM     19  H52 UNL     1       2.081  -9.956  42.593  1.00  0.00     0.176 HD
ATOM     20  H51 UNL     1       1.439  -8.371  43.034  1.00  0.00     0.176 HD
ENDBRANCH  16  18
ENDBRANCH   9  14
ENDBRANCH   5   9
BRANCH   8  21
HETATM   21  N7  UNL     1       7.035 -10.888  37.522  1.00  0.00    -0.094 N 
HETATM   22  O2  UNL     1       6.186 -11.733  37.114  1.00  0.00    -0.530 OA
HETATM   23  O3  UNL     1       8.365 -11.202  37.343  1.00  0.00    -0.530 OA
ENDBRANCH   8  21
BRANCH   1  24
HETATM   24  N1  UNL     1       6.626  -8.575  36.110  1.00  0.00    -0.382 N 
ATOM     25  H12 UNL     1       6.150  -7.890  35.522  1.00  0.00     0.157 HD
ATOM     26  H11 UNL     1       7.237  -9.263  35.671  1.00  0.00     0.157 HD
ENDBRANCH   1  24
TORSDOF 6
ENDMDL
MODEL 5
REMARK VINA RESULT: -6.523037808      2.384      2.743
REMARK  6 active torsions:
REMARK  status: ('A' for Active; 'I' for Inactive)
REMARK    1  A    between atoms: N1_1  and  C1_4 
REMARK    2  A    between atoms: C3_8  and  C4_9 
REMARK    3  A    between atoms: C4_9  and  N3_10 
REMARK    4  A    between atoms: C4_9  and  C5_14 
REMARK       I    between atoms: C5_14  and  N4_16 
REMARK    5  A    between atoms: N4_16  and  N5_18 
REMARK    6  A    between atoms: C6_23  and  N7_24 
ROOT
HETATM    1  C1  UNL     1       6.478  -9.954  37.338  1.00  0.00     0.150 A 
HETATM    2  N2  UNL     1       6.129 -11.025  38.070  1.00  0.00    -0.347 N 
ATOM      3  H2  UNL     1       6.216 -11.961  37.676  1.00  0.00     0.167 HD
HETATM    4  C2  UNL     1       5.657 -10.861  39.341  1.00  0.00     0.117 A 
HETATM    5  C3  UNL     1       5.529  -9.617  39.901  1.00  0.00     0.066 A 
HETATM    6  N6  UNL     1       5.880  -8.549  39.164  1.00  0.00    -0.335 N 
ATOM      7  H6  UNL     1       5.790  -7.616  39.564  1.00  0.00     0.167 HD
HETATM    8  C6  UNL     1       6.352  -8.688  37.896  1.00  0.00     0.218 A 
ENDROOT
BRANCH   5   9
HETATM    9  C4  UNL     1       5.017  -9.447  41.280  1.00  0.00     0.327 C 
BRANCH   9  10
HETATM   10  N3  UNL     1       4.136  -8.306  41.395  1.00  0.00    -0.061 N 
ATOM     11  H33 UNL     1       4.646  -7.431  41.268  1.00  0.00     0.275 HD
ATOM     12  H32 UNL     1       3.507  -8.243  40.594  1.00  0.00     0.275 HD
ATOM     13  H31 UNL     1       3.618  -8.309  42.273  1.00  0.00     0.275 HD
ENDBRANCH   9  10
BRANCH   9  14
HETATM   14  C5  UNL     1       6.088  -9.332  42.276  1.00  0.00     0.272 C 
HETATM   15  O1  UNL     1       7.313  -9.538  42.004  1.00  0.00    -0.269 OA
HETATM   16  N4  UNL     1       5.759  -8.975  43.606  1.00  0.00    -0.275 N 
ATOM     17  H4  UNL     1       4.782  -8.805  43.846  1.00  0.00     0.189 HD
BRANCH  16  18
HETATM   18  N5  UNL     1       6.733  -8.849  44.602  1.00  0.00    -0.343 N 
ATOM     19  H52 UNL     1       7.445  -9.576  44.670  1.00  0.00     0.176 HD
ATOM     20  H51 UNL     1       6.745  -8.060  45.248  1.00  0.00     0.176 HD
ENDBRANCH  16  18
ENDBRANCH   9  14
ENDBRANCH   5   9
BRANCH   8  21
HETATM   21  N7  UNL     1       6.702  -7.523  37.178  1.00  0.00    -0.094 N 
HETATM   22  O2  UNL     1       7.835  -6.982  37.334  1.00  0.00    -0.530 OA
HETATM   23  O3  UNL     1       5.842  -6.924  36.284  1.00  0.00    -0.530 OA
ENDBRANCH   8  21
BRANCH   1  24
HETATM   24  N1  UNL     1       6.933 -10.043  36.126  1.00  0.00    -0.382 N 
ATOM     25  H12 UNL     1       6.451 -10.667  35.479  1.00  0.00     0.157 HD
ATOM     26  H11 UNL     1       7.743  -9.519  35.795  1.00  0.00     0.157 HD
ENDBRANCH   1  24
TORSDOF 6
ENDMDL
