MODEL 1
REMARK VINA RESULT: -4.218850073      0.000      0.000
REMARK  2 active torsions:
REMARK  status: ('A' for Active; 'I' for Inactive)
REMARK    1  A    between atoms: N1_1  and  C1_4 
REMARK    2  A    between atoms: C3_9  and  C4_10 
ROOT
HETATM    1  C1  UNL     1      37.941  56.762  22.813  1.00  0.00     0.680 A 
HETATM    2  N2  UNL     1      37.838  58.034  23.301  1.00  0.00    -0.178 N 
ATOM      3  H2  UNL     1      38.384  58.780  22.869  1.00  0.00     0.185 HD
HETATM    4  C2  UNL     1      37.038  58.319  24.330  1.00  0.00     0.154 A 
HETATM    5  N3  UNL     1      36.928  59.652  24.861  1.00  0.00    -0.081 NA
HETATM    6  C3  UNL     1      36.276  57.340  24.950  1.00  0.00     0.150 A 
HETATM    7  C5  UNL     1      36.389  56.052  24.441  1.00  0.00     0.280 A 
HETATM    8  O3  UNL     1      35.702  55.148  24.984  1.00  0.00    -0.266 OA
HETATM    9  N4  UNL     1      37.204  55.819  23.409  1.00  0.00    -0.155 N 
ATOM     10  H4  UNL     1      37.267  54.865  23.054  1.00  0.00     0.187 HD
ENDROOT
BRANCH   1  11
HETATM   11  N1  UNL     1      38.737  56.498  21.805  1.00  0.00    -0.234 N 
ATOM     12  H12 UNL     1      38.839  57.130  21.010  1.00  0.00     0.174 HD
ATOM     13  H11 UNL     1      39.283  55.636  21.788  1.00  0.00     0.174 HD
ENDBRANCH   1  11
BRANCH   6  14
HETATM   14  C4  UNL     1      35.417  57.623  26.096  1.00  0.00     0.218 C 
HETATM   15  O1  UNL     1      35.923  57.574  27.270  1.00  0.00    -0.644 OA
HETATM   16  O2  UNL     1      34.083  57.930  25.976  1.00  0.00    -0.644 OA
ENDBRANCH   6  14
TORSDOF 2
ENDMDL
MODEL 2
REMARK VINA RESULT: -4.168494415      1.227      2.379
REMARK  2 active torsions:
REMARK  status: ('A' for Active; 'I' for Inactive)
REMARK    1  A    between atoms: N1_1  and  C1_4 
REMARK    2  A    between atoms: C3_9  and  C4_10 
ROOT
HETATM    1  C1  UNL     1      38.189  57.202  22.467  1.00  0.00     0.680 A 
HETATM    2  N2  UNL     1      37.539  56.115  22.978  1.00  0.00    -0.178 N 
ATOM      3  H2  UNL     1      37.656  55.206  22.531  1.00  0.00     0.185 HD
HETATM    4  C2  UNL     1      36.751  56.221  24.050  1.00  0.00     0.154 A 
HETATM    5  N3  UNL     1      36.051  55.087  24.594  1.00  0.00    -0.081 NA
HETATM    6  C3  UNL     1      36.559  57.434  24.694  1.00  0.00     0.150 A 
HETATM    7  C5  UNL     1      37.230  58.529  24.164  1.00  0.00     0.280 A 
HETATM    8  O3  UNL     1      37.076  59.640  24.735  1.00  0.00    -0.266 OA
HETATM    9  N4  UNL     1      38.007  58.371  23.089  1.00  0.00    -0.155 N 
ATOM     10  H4  UNL     1      38.489  59.190  22.721  1.00  0.00     0.187 HD
ENDROOT
BRANCH   1  11
HETATM   11  N1  UNL     1      38.955  57.082  21.408  1.00  0.00    -0.234 N 
ATOM     12  H12 UNL     1      38.662  57.400  20.484  1.00  0.00     0.174 HD
ATOM     13  H11 UNL     1      39.879  56.658  21.484  1.00  0.00     0.174 HD
ENDBRANCH   1  11
BRANCH   6  14
HETATM   14  C4  UNL     1      35.679  57.578  25.850  1.00  0.00     0.218 C 
HETATM   15  O1  UNL     1      36.179  57.453  27.021  1.00  0.00    -0.644 OA
HETATM   16  O2  UNL     1      34.333  57.832  25.741  1.00  0.00    -0.644 OA
ENDBRANCH   6  14
TORSDOF 2
ENDMDL
MODEL 3
REMARK VINA RESULT: -3.994638505      6.263      7.829
REMARK  2 active torsions:
REMARK  status: ('A' for Active; 'I' for Inactive)
REMARK    1  A    between atoms: N1_1  and  C1_4 
REMARK    2  A    between atoms: C3_9  and  C4_10 
ROOT
HETATM    1  C1  UNL     1      40.617  56.091  21.067  1.00  0.00     0.680 A 
HETATM    2  N2  UNL     1      41.447  55.984  19.988  1.00  0.00    -0.178 N 
ATOM      3  H2  UNL     1      41.216  55.327  19.243  1.00  0.00     0.185 HD
HETATM    4  C2  UNL     1      42.555  56.723  19.890  1.00  0.00     0.154 A 
HETATM    5  N3  UNL     1      43.444  56.614  18.763  1.00  0.00    -0.081 NA
HETATM    6  C3  UNL     1      42.912  57.631  20.875  1.00  0.00     0.150 A 
HETATM    7  C5  UNL     1      42.056  57.729  21.966  1.00  0.00     0.280 A 
HETATM    8  O3  UNL     1      42.357  58.551  22.871  1.00  0.00    -0.266 OA
HETATM    9  N4  UNL     1      40.960  56.968  22.016  1.00  0.00    -0.155 N 
ATOM     10  H4  UNL     1      40.348  57.061  22.826  1.00  0.00     0.187 HD
ENDROOT
BRANCH   1  11
HETATM   11  N1  UNL     1      39.536  55.353  21.151  1.00  0.00    -0.234 N 
ATOM     12  H12 UNL     1      39.555  54.341  21.024  1.00  0.00     0.174 HD
ATOM     13  H11 UNL     1      38.631  55.782  21.347  1.00  0.00     0.174 HD
ENDBRANCH   1  11
BRANCH   6  14
HETATM   14  C4  UNL     1      44.134  58.427  20.803  1.00  0.00     0.218 C 
HETATM   15  O1  UNL     1      44.082  59.582  20.255  1.00  0.00    -0.644 OA
HETATM   16  O2  UNL     1      45.343  57.990  21.287  1.00  0.00    -0.644 OA
ENDBRANCH   6  14
TORSDOF 2
ENDMDL
MODEL 4
REMARK VINA RESULT: -3.959121376      6.912      7.661
REMARK  2 active torsions:
REMARK  status: ('A' for Active; 'I' for Inactive)
REMARK    1  A    between atoms: N1_1  and  C1_4 
REMARK    2  A    between atoms: C3_9  and  C4_10 
ROOT
HETATM    1  C1  UNL     1      40.612  56.091  21.052  1.00  0.00     0.680 A 
HETATM    2  N2  UNL     1      40.928  57.012  22.010  1.00  0.00    -0.178 N 
ATOM      3  H2  UNL     1      40.308  57.133  22.810  1.00  0.00     0.185 HD
HETATM    4  C2  UNL     1      42.033  57.756  21.918  1.00  0.00     0.154 A 
HETATM    5  N3  UNL     1      42.373  58.737  22.915  1.00  0.00    -0.081 NA
HETATM    6  C3  UNL     1      42.909  57.628  20.850  1.00  0.00     0.150 A 
HETATM    7  C5  UNL     1      42.574  56.685  19.886  1.00  0.00     0.280 A 
HETATM    8  O3  UNL     1      43.357  56.547  18.909  1.00  0.00    -0.266 OA
HETATM    9  N4  UNL     1      41.457  55.966  20.024  1.00  0.00    -0.155 N 
ATOM     10  H4  UNL     1      41.237  55.280  19.302  1.00  0.00     0.187 HD
ENDROOT
BRANCH   1  11
HETATM   11  N1  UNL     1      39.520  55.373  21.154  1.00  0.00    -0.234 N 
ATOM     12  H12 UNL     1      38.902  55.203  20.360  1.00  0.00     0.174 HD
ATOM     13  H11 UNL     1      39.254  54.960  22.048  1.00  0.00     0.174 HD
ENDBRANCH   1  11
BRANCH   6  14
HETATM   14  C4  UNL     1      44.106  58.451  20.715  1.00  0.00     0.218 C 
HETATM   15  O1  UNL     1      45.202  58.029  21.222  1.00  0.00    -0.644 OA
HETATM   16  O2  UNL     1      44.111  59.668  20.076  1.00  0.00    -0.644 OA
ENDBRANCH   6  14
TORSDOF 2
ENDMDL
MODEL 5
REMARK VINA RESULT: -3.895183408      2.694      3.565
REMARK  2 active torsions:
REMARK  status: ('A' for Active; 'I' for Inactive)
REMARK    1  A    between atoms: N1_1  and  C1_4 
REMARK    2  A    between atoms: C3_9  and  C4_10 
ROOT
HETATM    1  C1  UNL     1      35.420  55.687  25.950  1.00  0.00     0.680 A 
HETATM    2  N2  UNL     1      35.063  56.971  26.252  1.00  0.00    -0.178 N 
ATOM      3  H2  UNL     1      34.361  57.137  26.973  1.00  0.00     0.185 HD
HETATM    4  C2  UNL     1      35.616  58.010  25.623  1.00  0.00     0.154 A 
HETATM    5  N3  UNL     1      35.243  59.367  25.924  1.00  0.00    -0.081 NA
HETATM    6  C3  UNL     1      36.576  57.835  24.637  1.00  0.00     0.150 A 
HETATM    7  C5  UNL     1      36.930  56.524  24.343  1.00  0.00     0.280 A 
HETATM    8  O3  UNL     1      37.803  56.342  23.455  1.00  0.00    -0.266 OA
HETATM    9  N4  UNL     1      36.347  55.519  25.002  1.00  0.00    -0.155 N 
ATOM     10  H4  UNL     1      36.626  54.567  24.767  1.00  0.00     0.187 HD
ENDROOT
BRANCH   1  11
HETATM   11  N1  UNL     1      34.863  54.677  26.573  1.00  0.00    -0.234 N 
ATOM     12  H12 UNL     1      35.341  53.785  26.703  1.00  0.00     0.174 HD
ATOM     13  H11 UNL     1      33.918  54.759  26.950  1.00  0.00     0.174 HD
ENDBRANCH   1  11
BRANCH   6  14
HETATM   14  C4  UNL     1      37.172  58.956  23.915  1.00  0.00     0.218 C 
HETATM   15  O1  UNL     1      36.640  59.329  22.813  1.00  0.00    -0.644 OA
HETATM   16  O2  UNL     1      38.288  59.625  24.358  1.00  0.00    -0.644 OA
ENDBRANCH   6  14
TORSDOF 2
ENDMDL
