MODEL 1
REMARK VINA RESULT: -5.371644791      0.000      0.000
REMARK  4 active torsions:
REMARK  status: ('A' for Active; 'I' for Inactive)
REMARK    1  A    between atoms: N1_1  and  C1_4 
REMARK    2  A    between atoms: C2_9  and  C3_10 
REMARK       I    between atoms: C3_10  and  N4_12 
REMARK       I    between atoms: C4_14  and  N5_15 
REMARK       I    between atoms: C4_14  and  N6_19 
REMARK    3  A    between atoms: N5_15  and  O2_17 
REMARK    4  A    between atoms: N6_19  and  N7_21 
ROOT
HETATM    1  C3  UNL     1      36.765  57.395  24.303  1.00  0.00     0.305 C 
HETATM    2  O1  UNL     1      36.083  58.444  24.401  1.00  0.00    -0.263 OA
HETATM    3  N4  UNL     1      36.465  56.333  25.168  1.00  0.00    -0.150 N 
ATOM      4  H4  UNL     1      37.214  55.966  25.755  1.00  0.00     0.188 HD
HETATM    5  C4  UNL     1      35.298  55.792  25.267  1.00  0.00     0.719 C 
HETATM    6  N5  UNL     1      34.244  56.293  24.455  1.00  0.00    -0.097 N 
ATOM      7  H5  UNL     1      34.218  57.281  24.199  1.00  0.00     0.213 HD
HETATM    8  N6  UNL     1      35.145  54.728  26.183  1.00  0.00    -0.137 N 
ATOM      9  H6  UNL     1      35.049  53.769  25.852  1.00  0.00     0.205 HD
ENDROOT
BRANCH   1  10
HETATM   10  C2  UNL     1      37.845  57.253  23.331  1.00  0.00     0.205 A 
HETATM   11  N3  UNL     1      38.729  58.199  22.974  1.00  0.00    -0.266 N 
HETATM   12  N2  UNL     1      39.562  57.688  22.060  1.00  0.00    -0.131 N 
ATOM     13  H3  UNL     1      38.761  59.151  23.339  1.00  0.00     0.189 HD
HETATM   14  C1  UNL     1      39.219  56.412  21.822  1.00  0.00     0.692 A 
ATOM     15  H2  UNL     1      40.332  58.187  21.615  1.00  0.00     0.205 HD
HETATM   16  N8  UNL     1      38.169  56.150  22.603  1.00  0.00    -0.169 N 
ATOM     17  H8  UNL     1      37.682  55.255  22.647  1.00  0.00     0.186 HD
BRANCH  14  18
HETATM   18  N1  UNL     1      39.796  55.608  21.003  1.00  0.00    -0.233 N 
ATOM     19  H12 UNL     1      40.243  55.846  20.118  1.00  0.00     0.174 HD
ATOM     20  H11 UNL     1      39.894  54.598  21.113  1.00  0.00     0.174 HD
ENDBRANCH  14  18
ENDBRANCH   1  10
BRANCH   6  21
HETATM   21  O2  UNL     1      33.341  55.509  24.051  1.00  0.00    -0.276 OA
ATOM     22  H2  UNL     1      32.434  55.791  24.066  1.00  0.00     0.245 HD
ENDBRANCH   6  21
BRANCH   8  23
HETATM   23  N7  UNL     1      35.129  55.010  27.541  1.00  0.00    -0.331 N 
ATOM     24  H72 UNL     1      34.760  55.903  27.866  1.00  0.00     0.177 HD
ATOM     25  H71 UNL     1      35.491  54.314  28.193  1.00  0.00     0.177 HD
ENDBRANCH   8  23
TORSDOF 4
ENDMDL
MODEL 2
REMARK VINA RESULT: -5.355094001      2.016      5.701
REMARK  4 active torsions:
REMARK  status: ('A' for Active; 'I' for Inactive)
REMARK    1  A    between atoms: N1_1  and  C1_4 
REMARK    2  A    between atoms: C2_9  and  C3_10 
REMARK       I    between atoms: C3_10  and  N4_12 
REMARK       I    between atoms: C4_14  and  N5_15 
REMARK       I    between atoms: C4_14  and  N6_19 
REMARK    3  A    between atoms: N5_15  and  O2_17 
REMARK    4  A    between atoms: N6_19  and  N7_21 
ROOT
HETATM    1  C3  UNL     1      37.737  57.037  22.614  1.00  0.00     0.305 C 
HETATM    2  O1  UNL     1      37.564  58.225  22.247  1.00  0.00    -0.263 OA
HETATM    3  N4  UNL     1      38.814  56.329  22.060  1.00  0.00    -0.150 N 
ATOM      4  H4  UNL     1      38.615  55.447  21.586  1.00  0.00     0.188 HD
HETATM    5  C4  UNL     1      40.041  56.724  22.114  1.00  0.00     0.719 C 
HETATM    6  N5  UNL     1      40.332  57.950  22.773  1.00  0.00    -0.097 N 
ATOM      7  H5  UNL     1      39.655  58.713  22.760  1.00  0.00     0.213 HD
HETATM    8  N6  UNL     1      41.020  55.904  21.511  1.00  0.00    -0.137 N 
ATOM      9  H6  UNL     1      41.660  55.355  22.084  1.00  0.00     0.205 HD
ENDROOT
BRANCH   1  10
HETATM   10  C2  UNL     1      36.862  56.382  23.582  1.00  0.00     0.205 A 
HETATM   11  N3  UNL     1      37.147  55.286  24.304  1.00  0.00    -0.266 N 
HETATM   12  N2  UNL     1      36.095  54.995  25.078  1.00  0.00    -0.131 N 
ATOM     13  H3  UNL     1      38.021  54.761  24.268  1.00  0.00     0.189 HD
HETATM   14  C1  UNL     1      35.127  55.899  24.859  1.00  0.00     0.692 A 
ATOM     15  H2  UNL     1      36.037  54.212  25.729  1.00  0.00     0.205 HD
HETATM   16  N8  UNL     1      35.602  56.747  23.944  1.00  0.00    -0.169 N 
ATOM     17  H8  UNL     1      35.094  57.549  23.571  1.00  0.00     0.186 HD
BRANCH  14  18
HETATM   18  N1  UNL     1      33.975  55.935  25.425  1.00  0.00    -0.233 N 
ATOM     19  H12 UNL     1      33.708  55.495  26.306  1.00  0.00     0.174 HD
ATOM     20  H11 UNL     1      33.143  56.412  25.076  1.00  0.00     0.174 HD
ENDBRANCH  14  18
ENDBRANCH   1  10
BRANCH   6  21
HETATM   21  O2  UNL     1      41.433  58.088  23.374  1.00  0.00    -0.276 OA
ATOM     22  H2  UNL     1      41.561  57.675  24.219  1.00  0.00     0.245 HD
ENDBRANCH   6  21
BRANCH   8  23
HETATM   23  N7  UNL     1      41.096  55.859  20.127  1.00  0.00    -0.331 N 
ATOM     24  H72 UNL     1      40.244  55.943  19.573  1.00  0.00     0.177 HD
ATOM     25  H71 UNL     1      42.008  55.740  19.687  1.00  0.00     0.177 HD
ENDBRANCH   8  23
TORSDOF 4
ENDMDL
MODEL 3
REMARK VINA RESULT: -5.020391957      1.542      5.378
REMARK  4 active torsions:
REMARK  status: ('A' for Active; 'I' for Inactive)
REMARK    1  A    between atoms: N1_1  and  C1_4 
REMARK    2  A    between atoms: C2_9  and  C3_10 
REMARK       I    between atoms: C3_10  and  N4_12 
REMARK       I    between atoms: C4_14  and  N5_15 
REMARK       I    between atoms: C4_14  and  N6_19 
REMARK    3  A    between atoms: N5_15  and  O2_17 
REMARK    4  A    between atoms: N6_19  and  N7_21 
ROOT
HETATM    1  C3  UNL     1      36.348  56.695  23.457  1.00  0.00     0.305 C 
HETATM    2  O1  UNL     1      35.678  57.433  22.694  1.00  0.00    -0.263 OA
HETATM    3  N4  UNL     1      37.524  56.123  22.953  1.00  0.00    -0.150 N 
ATOM      4  H4  UNL     1      37.618  55.107  22.988  1.00  0.00     0.188 HD
HETATM    5  C4  UNL     1      38.497  56.803  22.446  1.00  0.00     0.719 C 
HETATM    6  N5  UNL     1      38.380  58.219  22.390  1.00  0.00    -0.097 N 
ATOM      7  H5  UNL     1      37.466  58.655  22.265  1.00  0.00     0.213 HD
HETATM    8  N6  UNL     1      39.621  56.088  21.978  1.00  0.00    -0.137 N 
ATOM      9  H6  UNL     1      40.498  56.103  22.498  1.00  0.00     0.205 HD
ENDROOT
BRANCH   1  10
HETATM   10  C2  UNL     1      35.941  56.419  24.833  1.00  0.00     0.205 A 
HETATM   11  N3  UNL     1      36.377  57.048  25.937  1.00  0.00    -0.266 N 
HETATM   12  N2  UNL     1      35.772  56.513  27.004  1.00  0.00    -0.131 N 
ATOM     13  H3  UNL     1      37.057  57.808  25.958  1.00  0.00     0.189 HD
HETATM   14  C1  UNL     1      34.945  55.538  26.595  1.00  0.00     0.692 A 
ATOM     15  H2  UNL     1      35.916  56.801  27.972  1.00  0.00     0.205 HD
HETATM   16  N8  UNL     1      35.050  55.485  25.265  1.00  0.00    -0.169 N 
ATOM     17  H8  UNL     1      34.540  54.840  24.663  1.00  0.00     0.186 HD
BRANCH  14  18
HETATM   18  N1  UNL     1      34.200  54.806  27.343  1.00  0.00    -0.233 N 
ATOM     19  H12 UNL     1      33.245  55.004  27.641  1.00  0.00     0.174 HD
ATOM     20  H11 UNL     1      34.453  53.909  27.758  1.00  0.00     0.174 HD
ENDBRANCH  14  18
ENDBRANCH   1  10
BRANCH   6  21
HETATM   21  O2  UNL     1      39.415  58.934  22.497  1.00  0.00    -0.276 OA
ATOM     22  H2  UNL     1      39.326  59.871  22.628  1.00  0.00     0.245 HD
ENDBRANCH   6  21
BRANCH   8  23
HETATM   23  N7  UNL     1      39.512  55.365  20.799  1.00  0.00    -0.331 N 
ATOM     24  H72 UNL     1      40.222  54.671  20.566  1.00  0.00     0.177 HD
ATOM     25  H71 UNL     1      38.720  55.544  20.182  1.00  0.00     0.177 HD
ENDBRANCH   8  23
TORSDOF 4
ENDMDL
MODEL 4
REMARK VINA RESULT: -5.013284749      0.620      1.226
REMARK  4 active torsions:
REMARK  status: ('A' for Active; 'I' for Inactive)
REMARK    1  A    between atoms: N1_1  and  C1_4 
REMARK    2  A    between atoms: C2_9  and  C3_10 
REMARK       I    between atoms: C3_10  and  N4_12 
REMARK       I    between atoms: C4_14  and  N5_15 
REMARK       I    between atoms: C4_14  and  N6_19 
REMARK    3  A    between atoms: N5_15  and  O2_17 
REMARK    4  A    between atoms: N6_19  and  N7_21 
ROOT
HETATM    1  C3  UNL     1      36.682  57.390  24.383  1.00  0.00     0.305 C 
HETATM    2  O1  UNL     1      35.999  58.438  24.497  1.00  0.00    -0.263 OA
HETATM    3  N4  UNL     1      36.394  56.322  25.245  1.00  0.00    -0.150 N 
ATOM      4  H4  UNL     1      37.152  55.952  25.819  1.00  0.00     0.188 HD
HETATM    5  C4  UNL     1      35.229  55.778  25.354  1.00  0.00     0.719 C 
HETATM    6  N5  UNL     1      34.164  56.282  24.559  1.00  0.00    -0.097 N 
ATOM      7  H5  UNL     1      34.133  57.272  24.311  1.00  0.00     0.213 HD
HETATM    8  N6  UNL     1      35.091  54.707  26.265  1.00  0.00    -0.137 N 
ATOM      9  H6  UNL     1      34.992  53.750  25.928  1.00  0.00     0.205 HD
ENDROOT
BRANCH   1  10
HETATM   10  C2  UNL     1      37.749  57.257  23.396  1.00  0.00     0.205 A 
HETATM   11  N3  UNL     1      38.026  56.169  22.659  1.00  0.00    -0.266 N 
HETATM   12  N2  UNL     1      39.074  56.437  21.871  1.00  0.00    -0.131 N 
ATOM     13  H3  UNL     1      37.522  55.283  22.695  1.00  0.00     0.189 HD
HETATM   14  C1  UNL     1      39.478  57.697  22.095  1.00  0.00     0.692 A 
ATOM     15  H2  UNL     1      39.497  55.789  21.207  1.00  0.00     0.205 HD
HETATM   16  N8  UNL     1      38.664  58.196  23.028  1.00  0.00    -0.169 N 
ATOM     17  H8  UNL     1      38.719  59.141  23.409  1.00  0.00     0.186 HD
BRANCH  14  18
HETATM   18  N1  UNL     1      40.456  58.298  21.519  1.00  0.00    -0.233 N 
ATOM     19  H12 UNL     1      41.434  58.298  21.808  1.00  0.00     0.174 HD
ATOM     20  H11 UNL     1      40.403  58.875  20.678  1.00  0.00     0.174 HD
ENDBRANCH  14  18
ENDBRANCH   1  10
BRANCH   6  21
HETATM   21  O2  UNL     1      33.258  55.499  24.162  1.00  0.00    -0.276 OA
ATOM     22  H2  UNL     1      32.366  55.623  24.465  1.00  0.00     0.245 HD
ENDBRANCH   6  21
BRANCH   8  23
HETATM   23  N7  UNL     1      35.092  54.980  27.626  1.00  0.00    -0.331 N 
ATOM     24  H72 UNL     1      34.726  55.870  27.961  1.00  0.00     0.177 HD
ATOM     25  H71 UNL     1      35.462  54.280  28.268  1.00  0.00     0.177 HD
ENDBRANCH   8  23
TORSDOF 4
ENDMDL
MODEL 5
REMARK VINA RESULT: -4.960400445      1.835      5.557
REMARK  4 active torsions:
REMARK  status: ('A' for Active; 'I' for Inactive)
REMARK    1  A    between atoms: N1_1  and  C1_4 
REMARK    2  A    between atoms: C2_9  and  C3_10 
REMARK       I    between atoms: C3_10  and  N4_12 
REMARK       I    between atoms: C4_14  and  N5_15 
REMARK       I    between atoms: C4_14  and  N6_19 
REMARK    3  A    between atoms: N5_15  and  O2_17 
REMARK    4  A    between atoms: N6_19  and  N7_21 
ROOT
HETATM    1  C3  UNL     1      37.556  57.309  22.619  1.00  0.00     0.305 C 
HETATM    2  O1  UNL     1      37.670  58.546  22.438  1.00  0.00    -0.263 OA
HETATM    3  N4  UNL     1      38.431  56.460  21.925  1.00  0.00    -0.150 N 
ATOM      4  H4  UNL     1      38.026  55.733  21.335  1.00  0.00     0.188 HD
HETATM    5  C4  UNL     1      39.717  56.543  21.988  1.00  0.00     0.719 C 
HETATM    6  N5  UNL     1      40.295  57.552  22.807  1.00  0.00    -0.097 N 
ATOM      7  H5  UNL     1      39.819  58.446  22.933  1.00  0.00     0.213 HD
HETATM    8  N6  UNL     1      40.470  55.617  21.233  1.00  0.00    -0.137 N 
ATOM      9  H6  UNL     1      40.963  54.853  21.693  1.00  0.00     0.205 HD
ENDROOT
BRANCH   1  10
HETATM   10  C2  UNL     1      36.554  56.739  23.515  1.00  0.00     0.205 A 
HETATM   11  N3  UNL     1      35.227  56.945  23.466  1.00  0.00    -0.266 N 
HETATM   12  N2  UNL     1      34.647  56.250  24.451  1.00  0.00    -0.131 N 
ATOM     13  H3  UNL     1      34.742  57.533  22.788  1.00  0.00     0.189 HD
HETATM   14  C1  UNL     1      35.594  55.595  25.141  1.00  0.00     0.692 A 
ATOM     15  H2  UNL     1      33.646  56.224  24.647  1.00  0.00     0.205 HD
HETATM   16  N8  UNL     1      36.759  55.896  24.564  1.00  0.00    -0.169 N 
ATOM     17  H8  UNL     1      37.669  55.546  24.865  1.00  0.00     0.186 HD
BRANCH  14  18
HETATM   18  N1  UNL     1      35.406  54.830  26.155  1.00  0.00    -0.233 N 
ATOM     19  H12 UNL     1      35.913  53.975  26.383  1.00  0.00     0.174 HD
ATOM     20  H11 UNL     1      34.714  54.961  26.893  1.00  0.00     0.174 HD
ENDBRANCH  14  18
ENDBRANCH   1  10
BRANCH   6  21
HETATM   21  O2  UNL     1      41.399  57.334  23.378  1.00  0.00    -0.276 OA
ATOM     22  H2  UNL     1      41.688  56.440  23.514  1.00  0.00     0.245 HD
ENDBRANCH   6  21
BRANCH   8  23
HETATM   23  N7  UNL     1      40.528  55.766  19.855  1.00  0.00    -0.331 N 
ATOM     24  H72 UNL     1      39.716  55.524  19.288  1.00  0.00     0.177 HD
ATOM     25  H71 UNL     1      41.389  56.116  19.433  1.00  0.00     0.177 HD
ENDBRANCH   8  23
TORSDOF 4
ENDMDL
