MODEL 1
REMARK VINA RESULT: -4.464082931      0.000      0.000
REMARK  3 active torsions:
REMARK  status: ('A' for Active; 'I' for Inactive)
REMARK    1  A    between atoms: C2_2  and  N2_5 
REMARK    2  A    between atoms: C2_2  and  N5_10 
REMARK    3  A    between atoms: C6_14  and  N7_15 
ROOT
HETATM    1  C1  UNL     1      38.460  58.715  20.383  1.00  0.00     0.082 C 
HETATM    2  C2  UNL     1      39.290  57.826  21.318  1.00  0.00     0.214 C 
HETATM    3  C3  UNL     1      39.742  56.657  20.594  1.00  0.00     0.115 C 
HETATM    4  N1  UNL     1      40.082  55.724  20.013  1.00  0.00    -0.193 NA
ENDROOT
BRANCH   2   5
HETATM    5  N2  UNL     1      40.343  58.644  21.837  1.00  0.00    -0.327 N 
HETATM    6  C4  UNL     1      41.266  58.290  22.627  1.00  0.00     0.199 C 
HETATM    7  N3  UNL     1      41.331  56.961  23.092  1.00  0.00    -0.067 NA
HETATM    8  N4  UNL     1      42.233  59.228  23.044  1.00  0.00    -0.067 NA
ATOM      9  H2  UNL     1      40.351  59.619  21.537  1.00  0.00     0.165 HD
ENDBRANCH   2   5
BRANCH   2  10
HETATM   10  N5  UNL     1      38.371  57.471  22.410  1.00  0.00    -0.230 N 
HETATM   11  C5  UNL     1      37.667  58.318  23.189  1.00  0.00     0.222 A 
HETATM   12  N6  UNL     1      36.938  57.598  24.078  1.00  0.00    -0.185 N 
HETATM   13  C6  UNL     1      37.195  56.294  23.847  1.00  0.00     0.691 A 
ATOM     14  H6  UNL     1      36.311  57.974  24.790  1.00  0.00     0.185 HD
HETATM   15  N8  UNL     1      38.074  56.252  22.823  1.00  0.00    -0.126 N 
ATOM     16  H8  UNL     1      38.456  55.395  22.422  1.00  0.00     0.206 HD
BRANCH  13  17
HETATM   17  N7  UNL     1      36.688  55.286  24.492  1.00  0.00    -0.233 N 
ATOM     18  H72 UNL     1      36.579  55.191  25.501  1.00  0.00     0.174 HD
ATOM     19  H71 UNL     1      36.320  54.430  24.078  1.00  0.00     0.174 HD
ENDBRANCH  13  17
ENDBRANCH   2  10
TORSDOF 3
ENDMDL
MODEL 2
REMARK VINA RESULT: -4.183457225      1.857      4.735
REMARK  3 active torsions:
REMARK  status: ('A' for Active; 'I' for Inactive)
REMARK    1  A    between atoms: C2_2  and  N2_5 
REMARK    2  A    between atoms: C2_2  and  N5_10 
REMARK    3  A    between atoms: C6_14  and  N7_15 
ROOT
HETATM    1  C1  UNL     1      36.056  58.022  21.906  1.00  0.00     0.082 C 
HETATM    2  C2  UNL     1      37.272  57.608  22.743  1.00  0.00     0.214 C 
HETATM    3  C3  UNL     1      37.625  58.684  23.645  1.00  0.00     0.115 C 
HETATM    4  N1  UNL     1      37.905  59.552  24.346  1.00  0.00    -0.193 NA
ENDROOT
BRANCH   2   5
HETATM    5  N2  UNL     1      36.927  56.381  23.393  1.00  0.00    -0.327 N 
HETATM    6  C4  UNL     1      36.023  56.204  24.261  1.00  0.00     0.199 C 
HETATM    7  N3  UNL     1      35.226  57.286  24.685  1.00  0.00    -0.067 NA
HETATM    8  N4  UNL     1      35.812  54.920  24.805  1.00  0.00    -0.067 NA
ATOM      9  H2  UNL     1      37.470  55.558  23.128  1.00  0.00     0.165 HD
ENDBRANCH   2   5
BRANCH   2  10
HETATM   10  N5  UNL     1      38.334  57.351  21.758  1.00  0.00    -0.230 N 
HETATM   11  C5  UNL     1      38.726  58.163  20.754  1.00  0.00     0.222 A 
HETATM   12  N6  UNL     1      39.733  57.564  20.070  1.00  0.00    -0.185 N 
HETATM   13  C6  UNL     1      39.965  56.372  20.658  1.00  0.00     0.691 A 
ATOM     14  H6  UNL     1      40.224  57.946  19.262  1.00  0.00     0.185 HD
HETATM   15  N8  UNL     1      39.094  56.273  21.684  1.00  0.00    -0.126 N 
ATOM     16  H8  UNL     1      39.031  55.475  22.316  1.00  0.00     0.206 HD
BRANCH  13  17
HETATM   17  N7  UNL     1      40.857  55.499  20.294  1.00  0.00    -0.233 N 
ATOM     18  H72 UNL     1      41.597  55.622  19.604  1.00  0.00     0.174 HD
ATOM     19  H71 UNL     1      40.949  54.548  20.652  1.00  0.00     0.174 HD
ENDBRANCH  13  17
ENDBRANCH   2  10
TORSDOF 3
ENDMDL
MODEL 3
REMARK VINA RESULT: -4.095366996      2.645      5.649
REMARK  3 active torsions:
REMARK  status: ('A' for Active; 'I' for Inactive)
REMARK    1  A    between atoms: C2_2  and  N2_5 
REMARK    2  A    between atoms: C2_2  and  N5_10 
REMARK    3  A    between atoms: C6_14  and  N7_15 
ROOT
HETATM    1  C1  UNL     1      35.416  55.386  24.980  1.00  0.00     0.082 C 
HETATM    2  C2  UNL     1      35.744  56.881  25.075  1.00  0.00     0.214 C 
HETATM    3  C3  UNL     1      34.562  57.654  24.759  1.00  0.00     0.115 C 
HETATM    4  N1  UNL     1      33.621  58.258  24.491  1.00  0.00    -0.193 NA
ENDROOT
BRANCH   2   5
HETATM    5  N2  UNL     1      36.264  57.107  26.389  1.00  0.00    -0.327 N 
HETATM    6  C4  UNL     1      35.653  56.961  27.488  1.00  0.00     0.199 C 
HETATM    7  N3  UNL     1      34.310  56.532  27.501  1.00  0.00    -0.067 NA
HETATM    8  N4  UNL     1      36.317  57.228  28.703  1.00  0.00    -0.067 NA
ATOM      9  H2  UNL     1      37.234  57.419  26.446  1.00  0.00     0.165 HD
ENDBRANCH   2   5
BRANCH   2  10
HETATM   10  N5  UNL     1      36.815  57.092  24.089  1.00  0.00    -0.230 N 
HETATM   11  C5  UNL     1      37.424  58.258  23.787  1.00  0.00     0.222 A 
HETATM   12  N6  UNL     1      38.356  58.033  22.827  1.00  0.00    -0.185 N 
HETATM   13  C6  UNL     1      38.321  56.717  22.533  1.00  0.00     0.691 A 
ATOM     14  H6  UNL     1      38.969  58.731  22.405  1.00  0.00     0.185 HD
HETATM   15  N8  UNL     1      37.370  56.172  23.321  1.00  0.00    -0.126 N 
ATOM     16  H8  UNL     1      37.114  55.184  23.323  1.00  0.00     0.206 HD
BRANCH  13  17
HETATM   17  N7  UNL     1      39.065  56.106  21.659  1.00  0.00    -0.233 N 
ATOM     18  H72 UNL     1      40.042  56.295  21.440  1.00  0.00     0.174 HD
ATOM     19  H71 UNL     1      38.775  55.336  21.056  1.00  0.00     0.174 HD
ENDBRANCH  13  17
ENDBRANCH   2  10
TORSDOF 3
ENDMDL
MODEL 4
REMARK VINA RESULT: -4.069477606      1.437      4.708
REMARK  3 active torsions:
REMARK  status: ('A' for Active; 'I' for Inactive)
REMARK    1  A    between atoms: C2_2  and  N2_5 
REMARK    2  A    between atoms: C2_2  and  N5_10 
REMARK    3  A    between atoms: C6_14  and  N7_15 
ROOT
HETATM    1  C1  UNL     1      37.204  57.832  21.588  1.00  0.00     0.082 C 
HETATM    2  C2  UNL     1      38.040  57.555  22.844  1.00  0.00     0.214 C 
HETATM    3  C3  UNL     1      38.046  58.733  23.687  1.00  0.00     0.115 C 
HETATM    4  N1  UNL     1      38.058  59.679  24.341  1.00  0.00    -0.193 NA
ENDROOT
BRANCH   2   5
HETATM    5  N2  UNL     1      37.484  56.390  23.461  1.00  0.00    -0.327 N 
HETATM    6  C4  UNL     1      36.328  56.267  23.960  1.00  0.00     0.199 C 
HETATM    7  N3  UNL     1      35.430  57.354  23.944  1.00  0.00    -0.067 NA
HETATM    8  N4  UNL     1      35.935  55.041  24.533  1.00  0.00    -0.067 NA
ATOM      9  H2  UNL     1      38.087  55.568  23.503  1.00  0.00     0.165 HD
ENDBRANCH   2   5
BRANCH   2  10
HETATM   10  N5  UNL     1      39.384  57.240  22.337  1.00  0.00    -0.230 N 
HETATM   11  C5  UNL     1      40.563  57.651  22.848  1.00  0.00     0.222 A 
HETATM   12  N6  UNL     1      41.571  57.145  22.094  1.00  0.00    -0.185 N 
HETATM   13  C6  UNL     1      41.009  56.416  21.108  1.00  0.00     0.691 A 
ATOM     14  H6  UNL     1      42.570  57.291  22.244  1.00  0.00     0.185 HD
HETATM   15  N8  UNL     1      39.673  56.495  21.286  1.00  0.00    -0.126 N 
ATOM     16  H8  UNL     1      38.981  56.040  20.689  1.00  0.00     0.206 HD
BRANCH  13  17
HETATM   17  N7  UNL     1      41.642  55.768  20.176  1.00  0.00    -0.233 N 
ATOM     18  H72 UNL     1      42.639  55.809  19.963  1.00  0.00     0.174 HD
ATOM     19  H71 UNL     1      41.230  55.114  19.510  1.00  0.00     0.174 HD
ENDBRANCH  13  17
ENDBRANCH   2  10
TORSDOF 3
ENDMDL
MODEL 5
REMARK VINA RESULT: -4.058089942      2.122      3.677
REMARK  3 active torsions:
REMARK  status: ('A' for Active; 'I' for Inactive)
REMARK    1  A    between atoms: C2_2  and  N2_5 
REMARK    2  A    between atoms: C2_2  and  N5_10 
REMARK    3  A    between atoms: C6_14  and  N7_15 
ROOT
HETATM    1  C1  UNL     1      37.170  58.550  24.138  1.00  0.00     0.082 C 
HETATM    2  C2  UNL     1      36.640  57.411  23.258  1.00  0.00     0.214 C 
HETATM    3  C3  UNL     1      35.926  57.969  22.128  1.00  0.00     0.115 C 
HETATM    4  N1  UNL     1      35.348  58.422  21.244  1.00  0.00    -0.193 NA
ENDROOT
BRANCH   2   5
HETATM    5  N2  UNL     1      37.767  56.604  22.905  1.00  0.00    -0.327 N 
HETATM    6  C4  UNL     1      38.777  56.956  22.228  1.00  0.00     0.199 C 
HETATM    7  N3  UNL     1      38.874  58.272  21.732  1.00  0.00    -0.067 NA
HETATM    8  N4  UNL     1      39.808  56.030  21.968  1.00  0.00    -0.067 NA
ATOM      9  H2  UNL     1      37.756  55.639  23.235  1.00  0.00     0.165 HD
ENDBRANCH   2   5
BRANCH   2  10
HETATM   10  N5  UNL     1      35.750  56.640  24.139  1.00  0.00    -0.230 N 
HETATM   11  C5  UNL     1      34.409  56.530  24.047  1.00  0.00     0.222 A 
HETATM   12  N6  UNL     1      33.961  55.730  25.047  1.00  0.00    -0.185 N 
HETATM   13  C6  UNL     1      35.037  55.343  25.764  1.00  0.00     0.691 A 
ATOM     14  H6  UNL     1      32.991  55.470  25.224  1.00  0.00     0.185 HD
HETATM   15  N8  UNL     1      36.112  55.917  25.183  1.00  0.00    -0.126 N 
ATOM     16  H8  UNL     1      37.074  55.806  25.507  1.00  0.00     0.206 HD
BRANCH  13  17
HETATM   17  N7  UNL     1      35.024  54.569  26.808  1.00  0.00    -0.233 N 
ATOM     18  H72 UNL     1      34.260  53.973  27.126  1.00  0.00     0.174 HD
ATOM     19  H71 UNL     1      35.788  54.442  27.472  1.00  0.00     0.174 HD
ENDBRANCH  13  17
ENDBRANCH   2  10
TORSDOF 3
ENDMDL
