MODEL 1
REMARK VINA RESULT: -4.320237543      0.000      0.000
REMARK  3 active torsions:
REMARK  status: ('A' for Active; 'I' for Inactive)
REMARK    1  A    between atoms: C4_13  and  C5_14 
REMARK    2  A    between atoms: C5_14  and  N4_15 
REMARK    3  A    between atoms: C5_14  and  N5_19 
ROOT
HETATM    1  N1  UNL     1      39.460  59.263  22.554  1.00  0.00    -0.393 N 
ATOM      2  H11 UNL     1      40.190  59.060  21.872  1.00  0.00     0.156 HD
ATOM      3  H12 UNL     1      39.358  60.213  22.912  1.00  0.00     0.156 HD
HETATM    4  C1  UNL     1      38.663  58.343  22.977  1.00  0.00     0.121 A 
HETATM    5  C2  UNL     1      37.621  58.633  23.951  1.00  0.00     0.277 A 
HETATM    6  O1  UNL     1      37.451  59.783  24.424  1.00  0.00    -0.265 OA
HETATM    7  N2  UNL     1      36.745  57.584  24.404  1.00  0.00    -0.274 N 
ATOM      8  H2  UNL     1      36.005  57.752  25.086  1.00  0.00     0.173 HD
HETATM    9  C3  UNL     1      36.977  56.298  23.840  1.00  0.00     0.327 A 
HETATM   10  O2  UNL     1      36.224  55.355  24.217  1.00  0.00    -0.247 OA
HETATM   11  N3  UNL     1      38.013  56.077  22.889  1.00  0.00    -0.306 N 
ATOM     12  H3  UNL     1      38.129  55.133  22.520  1.00  0.00     0.170 HD
HETATM   13  C4  UNL     1      38.808  56.986  22.467  1.00  0.00     0.103 A 
ENDROOT
BRANCH  13  14
HETATM   14  C5  UNL     1      39.872  56.646  21.458  1.00  0.00     0.429 C 
BRANCH  14  15
HETATM   15  N4  UNL     1      41.158  56.529  22.120  1.00  0.00    -0.045 N 
ATOM     16  H43 UNL     1      41.102  55.969  22.971  1.00  0.00     0.277 HD
ATOM     17  H42 UNL     1      41.806  55.940  21.598  1.00  0.00     0.277 HD
ATOM     18  H41 UNL     1      41.542  57.457  22.297  1.00  0.00     0.277 HD
ENDBRANCH  14  15
BRANCH  14  19
HETATM   19  N5  UNL     1      39.607  55.394  20.803  1.00  0.00    -0.045 N 
ATOM     20  H53 UNL     1      38.727  54.988  21.121  1.00  0.00     0.277 HD
ATOM     21  H52 UNL     1      39.374  55.532  19.819  1.00  0.00     0.277 HD
ATOM     22  H51 UNL     1      40.379  54.737  20.913  1.00  0.00     0.277 HD
ENDBRANCH  14  19
ENDBRANCH  13  14
TORSDOF 3
ENDMDL
MODEL 2
REMARK VINA RESULT: -4.211740464      3.734      4.850
REMARK  3 active torsions:
REMARK  status: ('A' for Active; 'I' for Inactive)
REMARK    1  A    between atoms: C4_13  and  C5_14 
REMARK    2  A    between atoms: C5_14  and  N4_15 
REMARK    3  A    between atoms: C5_14  and  N5_19 
ROOT
HETATM    1  N1  UNL     1      43.798  58.495  21.597  1.00  0.00    -0.393 N 
ATOM      2  H11 UNL     1      44.563  58.654  20.942  1.00  0.00     0.156 HD
ATOM      3  H12 UNL     1      43.820  58.945  22.513  1.00  0.00     0.156 HD
HETATM    4  C1  UNL     1      42.803  57.736  21.294  1.00  0.00     0.121 A 
HETATM    5  C2  UNL     1      41.711  57.507  22.229  1.00  0.00     0.277 A 
HETATM    6  O1  UNL     1      41.688  58.035  23.368  1.00  0.00    -0.265 OA
HETATM    7  N2  UNL     1      40.612  56.653  21.862  1.00  0.00    -0.274 N 
ATOM      8  H2  UNL     1      39.832  56.472  22.494  1.00  0.00     0.173 HD
HETATM    9  C3  UNL     1      40.684  56.079  20.562  1.00  0.00     0.327 A 
HETATM   10  O2  UNL     1      39.733  55.324  20.208  1.00  0.00    -0.247 OA
HETATM   11  N3  UNL     1      41.779  56.341  19.691  1.00  0.00    -0.306 N 
ATOM     12  H3  UNL     1      41.772  55.900  18.771  1.00  0.00     0.170 HD
HETATM   13  C4  UNL     1      42.770  57.093  19.986  1.00  0.00     0.103 A 
ENDROOT
BRANCH  13  14
HETATM   14  C5  UNL     1      43.879  57.303  18.990  1.00  0.00     0.429 C 
BRANCH  14  15
HETATM   15  N4  UNL     1      44.297  56.027  18.442  1.00  0.00    -0.045 N 
ATOM     16  H43 UNL     1      45.226  55.756  18.766  1.00  0.00     0.277 HD
ATOM     17  H42 UNL     1      43.770  55.249  18.838  1.00  0.00     0.277 HD
ATOM     18  H41 UNL     1      44.238  56.051  17.424  1.00  0.00     0.277 HD
ENDBRANCH  14  15
BRANCH  14  19
HETATM   19  N5  UNL     1      43.460  58.131  17.892  1.00  0.00    -0.045 N 
ATOM     20  H53 UNL     1      42.458  58.318  17.929  1.00  0.00     0.277 HD
ATOM     21  H52 UNL     1      43.806  59.085  17.994  1.00  0.00     0.277 HD
ATOM     22  H51 UNL     1      43.730  57.732  16.993  1.00  0.00     0.277 HD
ENDBRANCH  14  19
ENDBRANCH  13  14
TORSDOF 3
ENDMDL
MODEL 3
REMARK VINA RESULT: -4.110873811      4.190      5.609
REMARK  3 active torsions:
REMARK  status: ('A' for Active; 'I' for Inactive)
REMARK    1  A    between atoms: C4_13  and  C5_14 
REMARK    2  A    between atoms: C5_14  and  N4_15 
REMARK    3  A    between atoms: C5_14  and  N5_19 
ROOT
HETATM    1  N1  UNL     1      41.718  58.013  22.969  1.00  0.00    -0.393 N 
ATOM      2  H11 UNL     1      40.800  57.692  23.276  1.00  0.00     0.156 HD
ATOM      3  H12 UNL     1      42.266  58.620  23.579  1.00  0.00     0.156 HD
HETATM    4  C1  UNL     1      42.202  57.669  21.826  1.00  0.00     0.121 A 
HETATM    5  C2  UNL     1      43.512  58.127  21.389  1.00  0.00     0.277 A 
HETATM    6  O1  UNL     1      44.228  58.876  22.098  1.00  0.00    -0.265 OA
HETATM    7  N2  UNL     1      44.026  57.726  20.105  1.00  0.00    -0.274 N 
ATOM      8  H2  UNL     1      44.939  58.030  19.768  1.00  0.00     0.173 HD
HETATM    9  C3  UNL     1      43.178  56.879  19.338  1.00  0.00     0.327 A 
HETATM   10  O2  UNL     1      43.601  56.507  18.205  1.00  0.00    -0.247 OA
HETATM   11  N3  UNL     1      41.905  56.463  19.821  1.00  0.00    -0.306 N 
ATOM     12  H3  UNL     1      41.345  55.854  19.224  1.00  0.00     0.170 HD
HETATM   13  C4  UNL     1      41.420  56.801  20.954  1.00  0.00     0.103 A 
ENDROOT
BRANCH  13  14
HETATM   14  C5  UNL     1      40.061  56.305  21.370  1.00  0.00     0.429 C 
BRANCH  14  15
HETATM   15  N4  UNL     1      39.058  57.313  21.078  1.00  0.00    -0.045 N 
ATOM     16  H43 UNL     1      38.323  56.956  20.468  1.00  0.00     0.277 HD
ATOM     17  H42 UNL     1      38.484  57.530  21.892  1.00  0.00     0.277 HD
ATOM     18  H41 UNL     1      39.506  58.144  20.692  1.00  0.00     0.277 HD
ENDBRANCH  14  15
BRANCH  14  19
HETATM   19  N5  UNL     1      39.690  55.108  20.665  1.00  0.00    -0.045 N 
ATOM     20  H53 UNL     1      38.730  55.159  20.327  1.00  0.00     0.277 HD
ATOM     21  H52 UNL     1      40.173  55.042  19.768  1.00  0.00     0.277 HD
ATOM     22  H51 UNL     1      39.841  54.274  21.230  1.00  0.00     0.277 HD
ENDBRANCH  14  19
ENDBRANCH  13  14
TORSDOF 3
ENDMDL
MODEL 4
REMARK VINA RESULT: -4.098890575      3.010      5.046
REMARK  3 active torsions:
REMARK  status: ('A' for Active; 'I' for Inactive)
REMARK    1  A    between atoms: C4_13  and  C5_14 
REMARK    2  A    between atoms: C5_14  and  N4_15 
REMARK    3  A    between atoms: C5_14  and  N5_19 
ROOT
HETATM    1  N1  UNL     1      33.364  57.525  24.786  1.00  0.00    -0.393 N 
ATOM      2  H11 UNL     1      33.025  57.278  25.716  1.00  0.00     0.156 HD
ATOM      3  H12 UNL     1      32.745  58.019  24.142  1.00  0.00     0.156 HD
HETATM    4  C1  UNL     1      34.558  57.227  24.407  1.00  0.00     0.121 A 
HETATM    5  C2  UNL     1      35.041  57.579  23.080  1.00  0.00     0.277 A 
HETATM    6  O1  UNL     1      34.323  58.186  22.248  1.00  0.00    -0.265 OA
HETATM    7  N2  UNL     1      36.381  57.232  22.684  1.00  0.00    -0.274 N 
ATOM      8  H2  UNL     1      36.751  57.463  21.762  1.00  0.00     0.173 HD
HETATM    9  C3  UNL     1      37.156  56.545  23.661  1.00  0.00     0.327 A 
HETATM   10  O2  UNL     1      38.338  56.226  23.344  1.00  0.00    -0.247 OA
HETATM   11  N3  UNL     1      36.626  56.228  24.944  1.00  0.00    -0.306 N 
ATOM     12  H3  UNL     1      37.231  55.736  25.601  1.00  0.00     0.170 HD
HETATM   13  C4  UNL     1      35.442  56.521  25.326  1.00  0.00     0.103 A 
ENDROOT
BRANCH  13  14
HETATM   14  C5  UNL     1      34.980  56.139  26.707  1.00  0.00     0.429 C 
BRANCH  14  15
HETATM   15  N4  UNL     1      34.946  54.694  26.832  1.00  0.00    -0.045 N 
ATOM     16  H43 UNL     1      34.014  54.351  27.066  1.00  0.00     0.277 HD
ATOM     17  H42 UNL     1      35.053  54.229  25.931  1.00  0.00     0.277 HD
ATOM     18  H41 UNL     1      35.647  54.389  27.506  1.00  0.00     0.277 HD
ENDBRANCH  14  15
BRANCH  14  19
HETATM   19  N5  UNL     1      35.863  56.642  27.723  1.00  0.00    -0.045 N 
ATOM     20  H53 UNL     1      36.720  57.019  27.318  1.00  0.00     0.277 HD
ATOM     21  H52 UNL     1      35.496  57.496  28.144  1.00  0.00     0.277 HD
ATOM     22  H51 UNL     1      36.066  55.937  28.431  1.00  0.00     0.277 HD
ENDBRANCH  14  19
ENDBRANCH  13  14
TORSDOF 3
ENDMDL
MODEL 5
REMARK VINA RESULT: -4.029001113      2.555      4.957
REMARK  3 active torsions:
REMARK  status: ('A' for Active; 'I' for Inactive)
REMARK    1  A    between atoms: C4_13  and  C5_14 
REMARK    2  A    between atoms: C5_14  and  N4_15 
REMARK    3  A    between atoms: C5_14  and  N5_19 
ROOT
HETATM    1  N1  UNL     1      36.911  54.814  24.261  1.00  0.00    -0.393 N 
ATOM      2  H11 UNL     1      36.297  54.193  24.787  1.00  0.00     0.156 HD
ATOM      3  H12 UNL     1      37.617  54.414  23.642  1.00  0.00     0.156 HD
HETATM    4  C1  UNL     1      36.815  56.095  24.360  1.00  0.00     0.121 A 
HETATM    5  C2  UNL     1      37.692  56.980  23.609  1.00  0.00     0.277 A 
HETATM    6  O1  UNL     1      38.578  56.542  22.834  1.00  0.00    -0.265 OA
HETATM    7  N2  UNL     1      37.561  58.408  23.740  1.00  0.00    -0.274 N 
ATOM      8  H2  UNL     1      38.159  59.057  23.229  1.00  0.00     0.173 HD
HETATM    9  C3  UNL     1      36.543  58.856  24.629  1.00  0.00     0.327 A 
HETATM   10  O2  UNL     1      36.402  60.105  24.766  1.00  0.00    -0.247 OA
HETATM   11  N3  UNL     1      35.716  57.939  25.336  1.00  0.00    -0.306 N 
ATOM     12  H3  UNL     1      35.004  58.322  25.958  1.00  0.00     0.170 HD
HETATM   13  C4  UNL     1      35.807  56.667  25.243  1.00  0.00     0.103 A 
ENDROOT
BRANCH  13  14
HETATM   14  C5  UNL     1      34.880  55.785  26.037  1.00  0.00     0.429 C 
BRANCH  14  15
HETATM   15  N4  UNL     1      35.249  55.821  27.440  1.00  0.00    -0.045 N 
ATOM     16  H43 UNL     1      35.919  56.563  27.641  1.00  0.00     0.277 HD
ATOM     17  H42 UNL     1      34.484  56.148  28.029  1.00  0.00     0.277 HD
ATOM     18  H41 UNL     1      35.592  54.906  27.731  1.00  0.00     0.277 HD
ENDBRANCH  14  15
BRANCH  14  19
HETATM   19  N5  UNL     1      33.513  56.219  25.936  1.00  0.00    -0.045 N 
ATOM     20  H53 UNL     1      33.247  56.385  24.966  1.00  0.00     0.277 HD
ATOM     21  H52 UNL     1      32.867  55.460  26.152  1.00  0.00     0.277 HD
ATOM     22  H51 UNL     1      33.332  57.038  26.516  1.00  0.00     0.277 HD
ENDBRANCH  14  19
ENDBRANCH  13  14
TORSDOF 3
ENDMDL
