MODEL 1
REMARK VINA RESULT: -4.883281938      0.000      0.000
REMARK  2 active torsions:
REMARK  status: ('A' for Active; 'I' for Inactive)
REMARK       I    between atoms: C2_2  and  N1_4 
REMARK    1  A    between atoms: N1_4  and  N2_6 
REMARK    2  A    between atoms: N2_6  and  C3_8 
ROOT
HETATM    1  C3  UNL     1      39.428  56.345  21.880  1.00  0.00     0.204 A 
HETATM    2  N3  UNL     1      39.722  55.425  20.926  1.00  0.00    -0.278 N 
ATOM      3  H3  UNL     1      39.095  54.628  20.815  1.00  0.00     0.189 HD
HETATM    4  N4  UNL     1      40.774  55.505  20.135  1.00  0.00    -0.272 N 
ATOM      5  H4  UNL     1      40.929  54.775  19.441  1.00  0.00     0.189 HD
HETATM    6  C4  UNL     1      41.647  56.523  20.218  1.00  0.00     0.210 A 
HETATM    7  N5  UNL     1      42.786  56.637  19.385  1.00  0.00    -0.062 NA
HETATM    8  N6  UNL     1      41.379  57.462  21.167  1.00  0.00    -0.293 N 
ATOM      9  H6  UNL     1      42.017  58.252  21.264  1.00  0.00     0.172 HD
HETATM   10  C5  UNL     1      40.312  57.396  21.981  1.00  0.00     0.294 A 
HETATM   11  O2  UNL     1      40.081  58.284  22.863  1.00  0.00    -0.264 OA
ENDROOT
BRANCH   1  12
HETATM   12  N2  UNL     1      38.276  56.203  22.702  1.00  0.00    -0.277 N 
ATOM     13  H2  UNL     1      38.236  55.452  23.390  1.00  0.00     0.189 HD
BRANCH  12  14
HETATM   14  N1  UNL     1      37.195  57.090  22.573  1.00  0.00    -0.269 N 
HETATM   15  C2  UNL     1      35.937  56.864  23.187  1.00  0.00     0.232 C 
HETATM   16  C1  UNL     1      34.864  57.873  22.982  1.00  0.00     0.119 C 
HETATM   17  O1  UNL     1      35.719  55.832  23.893  1.00  0.00    -0.272 OA
ATOM     18  H1  UNL     1      37.319  57.934  22.013  1.00  0.00     0.190 HD
ENDBRANCH  12  14
ENDBRANCH   1  12
TORSDOF 2
ENDMDL
MODEL 2
REMARK VINA RESULT: -4.806398668      3.420      6.510
REMARK  2 active torsions:
REMARK  status: ('A' for Active; 'I' for Inactive)
REMARK       I    between atoms: C2_2  and  N1_4 
REMARK    1  A    between atoms: N1_4  and  N2_6 
REMARK    2  A    between atoms: N2_6  and  C3_8 
ROOT
HETATM    1  C3  UNL     1      36.233  55.971  24.938  1.00  0.00     0.204 A 
HETATM    2  N3  UNL     1      35.446  54.998  25.466  1.00  0.00    -0.278 N 
ATOM      3  H3  UNL     1      35.495  54.064  25.058  1.00  0.00     0.189 HD
HETATM    4  N4  UNL     1      34.623  55.195  26.476  1.00  0.00    -0.272 N 
ATOM      5  H4  UNL     1      34.063  54.415  26.819  1.00  0.00     0.189 HD
HETATM    6  C4  UNL     1      34.501  56.395  27.068  1.00  0.00     0.210 A 
HETATM    7  N5  UNL     1      33.625  56.638  28.154  1.00  0.00    -0.062 NA
HETATM    8  N6  UNL     1      35.277  57.391  26.560  1.00  0.00    -0.293 N 
ATOM      9  H6  UNL     1      35.214  58.319  26.980  1.00  0.00     0.172 HD
HETATM   10  C5  UNL     1      36.121  57.209  25.531  1.00  0.00     0.294 A 
HETATM   11  O2  UNL     1      36.837  58.154  25.070  1.00  0.00    -0.264 OA
ENDROOT
BRANCH   1  12
HETATM   12  N2  UNL     1      37.103  55.696  23.848  1.00  0.00    -0.277 N 
ATOM     13  H2  UNL     1      37.659  54.841  23.848  1.00  0.00     0.189 HD
BRANCH  12  14
HETATM   14  N1  UNL     1      37.202  56.592  22.770  1.00  0.00    -0.269 N 
HETATM   15  C2  UNL     1      38.445  57.038  22.253  1.00  0.00     0.232 C 
HETATM   16  C1  UNL     1      38.428  57.986  21.108  1.00  0.00     0.119 C 
HETATM   17  O1  UNL     1      39.548  56.647  22.745  1.00  0.00    -0.272 OA
ATOM     18  H1  UNL     1      36.344  56.937  22.341  1.00  0.00     0.190 HD
ENDBRANCH  12  14
ENDBRANCH   1  12
TORSDOF 2
ENDMDL
MODEL 3
REMARK VINA RESULT: -4.744406028      1.038      1.147
REMARK  2 active torsions:
REMARK  status: ('A' for Active; 'I' for Inactive)
REMARK       I    between atoms: C2_2  and  N1_4 
REMARK    1  A    between atoms: N1_4  and  N2_6 
REMARK    2  A    between atoms: N2_6  and  C3_8 
ROOT
HETATM    1  C3  UNL     1      39.085  56.537  21.411  1.00  0.00     0.204 A 
HETATM    2  N3  UNL     1      39.730  55.439  20.940  1.00  0.00    -0.278 N 
ATOM      3  H3  UNL     1      39.290  54.528  21.069  1.00  0.00     0.189 HD
HETATM    4  N4  UNL     1      40.896  55.487  20.326  1.00  0.00    -0.272 N 
ATOM      5  H4  UNL     1      41.320  54.619  20.000  1.00  0.00     0.189 HD
HETATM    6  C4  UNL     1      41.540  56.647  20.117  1.00  0.00     0.210 A 
HETATM    7  N5  UNL     1      42.793  56.731  19.461  1.00  0.00    -0.062 NA
HETATM    8  N6  UNL     1      40.917  57.766  20.579  1.00  0.00    -0.293 N 
ATOM      9  H6  UNL     1      41.373  58.668  20.442  1.00  0.00     0.172 HD
HETATM   10  C5  UNL     1      39.731  57.736  21.207  1.00  0.00     0.294 A 
HETATM   11  O2  UNL     1      39.166  58.794  21.632  1.00  0.00    -0.264 OA
ENDROOT
BRANCH   1  12
HETATM   12  N2  UNL     1      37.827  56.421  22.065  1.00  0.00    -0.277 N 
ATOM     13  H2  UNL     1      37.076  55.891  21.624  1.00  0.00     0.189 HD
BRANCH  12  14
HETATM   14  N1  UNL     1      37.613  57.030  23.312  1.00  0.00    -0.269 N 
HETATM   15  C2  UNL     1      36.610  56.599  24.216  1.00  0.00     0.232 C 
HETATM   16  C1  UNL     1      36.475  57.319  25.510  1.00  0.00     0.119 C 
HETATM   17  O1  UNL     1      35.841  55.627  23.941  1.00  0.00    -0.272 OA
ATOM     18  H1  UNL     1      38.204  57.818  23.579  1.00  0.00     0.190 HD
ENDBRANCH  12  14
ENDBRANCH   1  12
TORSDOF 2
ENDMDL
MODEL 4
REMARK VINA RESULT: -4.717852099      1.244      1.473
REMARK  2 active torsions:
REMARK  status: ('A' for Active; 'I' for Inactive)
REMARK       I    between atoms: C2_2  and  N1_4 
REMARK    1  A    between atoms: N1_4  and  N2_6 
REMARK    2  A    between atoms: N2_6  and  C3_8 
ROOT
HETATM    1  C3  UNL     1      40.534  56.291  21.348  1.00  0.00     0.204 A 
HETATM    2  N3  UNL     1      41.057  55.947  20.142  1.00  0.00    -0.278 N 
ATOM      3  H3  UNL     1      40.521  55.314  19.548  1.00  0.00     0.189 HD
HETATM    4  N4  UNL     1      42.218  56.386  19.699  1.00  0.00    -0.272 N 
ATOM      5  H4  UNL     1      42.545  56.083  18.783  1.00  0.00     0.189 HD
HETATM    6  C4  UNL     1      42.982  57.222  20.422  1.00  0.00     0.210 A 
HETATM    7  N5  UNL     1      44.234  57.710  19.974  1.00  0.00    -0.062 NA
HETATM    8  N6  UNL     1      42.485  57.585  21.636  1.00  0.00    -0.293 N 
ATOM      9  H6  UNL     1      43.034  58.218  22.217  1.00  0.00     0.172 HD
HETATM   10  C5  UNL     1      41.304  57.148  22.103  1.00  0.00     0.294 A 
HETATM   11  O2  UNL     1      40.858  57.498  23.242  1.00  0.00    -0.264 OA
ENDROOT
BRANCH   1  12
HETATM   12  N2  UNL     1      39.275  55.785  21.770  1.00  0.00    -0.277 N 
ATOM     13  H2  UNL     1      39.165  54.788  21.949  1.00  0.00     0.189 HD
BRANCH  12  14
HETATM   14  N1  UNL     1      38.180  56.649  21.941  1.00  0.00    -0.269 N 
HETATM   15  C2  UNL     1      37.366  56.638  23.101  1.00  0.00     0.232 C 
HETATM   16  C1  UNL     1      36.234  57.600  23.174  1.00  0.00     0.119 C 
HETATM   17  O1  UNL     1      37.585  55.833  24.059  1.00  0.00    -0.272 OA
ATOM     18  H1  UNL     1      37.961  57.314  21.199  1.00  0.00     0.190 HD
ENDBRANCH  12  14
ENDBRANCH   1  12
TORSDOF 2
ENDMDL
MODEL 5
REMARK VINA RESULT: -4.687719851      3.434      6.910
REMARK  2 active torsions:
REMARK  status: ('A' for Active; 'I' for Inactive)
REMARK       I    between atoms: C2_2  and  N1_4 
REMARK    1  A    between atoms: N1_4  and  N2_6 
REMARK    2  A    between atoms: N2_6  and  C3_8 
ROOT
HETATM    1  C3  UNL     1      35.774  56.132  24.913  1.00  0.00     0.204 A 
HETATM    2  N3  UNL     1      36.334  56.591  26.063  1.00  0.00    -0.278 N 
ATOM      3  H3  UNL     1      37.349  56.671  26.106  1.00  0.00     0.189 HD
HETATM    4  N4  UNL     1      35.634  56.938  27.125  1.00  0.00    -0.272 N 
ATOM      5  H4  UNL     1      36.125  57.273  27.953  1.00  0.00     0.189 HD
HETATM    6  C4  UNL     1      34.293  56.862  27.147  1.00  0.00     0.210 A 
HETATM    7  N5  UNL     1      33.515  57.226  28.273  1.00  0.00    -0.062 NA
HETATM    8  N6  UNL     1      33.704  56.405  26.008  1.00  0.00    -0.293 N 
ATOM      9  H6  UNL     1      32.686  56.331  25.983  1.00  0.00     0.172 HD
HETATM   10  C5  UNL     1      34.400  56.047  24.918  1.00  0.00     0.294 A 
HETATM   11  O2  UNL     1      33.829  55.621  23.863  1.00  0.00    -0.264 OA
ENDROOT
BRANCH   1  12
HETATM   12  N2  UNL     1      36.582  55.775  23.800  1.00  0.00    -0.277 N 
ATOM     13  H2  UNL     1      36.994  54.844  23.752  1.00  0.00     0.189 HD
BRANCH  12  14
HETATM   14  N1  UNL     1      36.818  56.696  22.765  1.00  0.00    -0.269 N 
HETATM   15  C2  UNL     1      38.121  57.046  22.330  1.00  0.00     0.232 C 
HETATM   16  C1  UNL     1      38.250  58.032  21.224  1.00  0.00     0.119 C 
HETATM   17  O1  UNL     1      39.157  56.541  22.862  1.00  0.00    -0.272 OA
ATOM     18  H1  UNL     1      36.018  57.131  22.307  1.00  0.00     0.190 HD
ENDBRANCH  12  14
ENDBRANCH   1  12
TORSDOF 2
ENDMDL
