MODEL 1
REMARK VINA RESULT: -7.450722881      0.000      0.000
REMARK  5 active torsions:
REMARK  status: ('A' for Active; 'I' for Inactive)
REMARK    1  A    between atoms: C2_2  and  C3_3 
REMARK    2  A    between atoms: C3_3  and  N1_4 
REMARK       I    between atoms: N1_4  and  C4_6 
REMARK    3  A    between atoms: C4_6  and  C5_8 
REMARK    4  A    between atoms: C11_14  and  C12_15 
REMARK    5  A    between atoms: C14_18  and  C15_19 
ROOT
HETATM    1  C5  UNL     1      -7.864  15.690  39.122  1.00  0.00     0.100 C 
HETATM    2  C6  UNL     1      -8.350  14.329  39.433  1.00  0.00     0.040 C 
HETATM    3  C7  UNL     1      -9.482  14.333  40.454  1.00  0.00     0.081 C 
HETATM    4  C8  UNL     1      -8.878  14.602  41.798  1.00  0.00     0.025 C 
HETATM    5  C9  UNL     1      -9.899  14.883  42.829  1.00  0.00     0.004 C 
HETATM    6  C10 UNL     1     -11.025  15.744  42.406  1.00  0.00     0.031 C 
HETATM    7  C11 UNL     1     -11.543  15.470  41.019  1.00  0.00     0.131 C 
HETATM    8  N3  UNL     1     -10.548  15.169  40.058  1.00  0.00    -0.397 N 
HETATM    9  C19 UNL     1     -10.326  16.217  39.135  1.00  0.00     0.139 C 
HETATM   10  C20 UNL     1      -8.948  16.708  38.916  1.00  0.00     0.113 C 
HETATM   11 CL1  UNL     1      -8.616  18.218  39.830  1.00  0.00    -0.122 Cl
ENDROOT
BRANCH   7  12
HETATM   12  C12 UNL     1     -12.729  14.570  41.005  1.00  0.00     0.056 A 
HETATM   13  C13 UNL     1     -13.861  14.605  41.806  1.00  0.00     0.171 A 
HETATM   14  O2  UNL     1     -14.666  13.639  41.430  1.00  0.00    -0.307 OA
HETATM   15  C14 UNL     1     -14.161  12.961  40.437  1.00  0.00     0.131 A 
HETATM   16  N2  UNL     1     -12.972  13.523  40.170  1.00  0.00    -0.340 N 
ATOM     17  H2  UNL     1     -12.336  13.207  39.438  1.00  0.00     0.167 HD
BRANCH  15  18
HETATM   18  C15 UNL     1     -14.785  11.802  39.745  1.00  0.00     0.014 C 
HETATM   19  C16 UNL     1     -13.848  10.628  39.784  1.00  0.00     0.023 C 
HETATM   20  C17 UNL     1     -14.989  12.193  38.308  1.00  0.00     0.023 C 
HETATM   21  C18 UNL     1     -16.087  11.373  40.372  1.00  0.00     0.023 C 
ENDBRANCH  15  18
ENDBRANCH   7  12
BRANCH   1  22
HETATM   22  C4  UNL     1      -6.919  15.646  37.996  1.00  0.00     0.223 C 
HETATM   23  N1  UNL     1      -6.126  14.544  37.603  1.00  0.00    -0.361 N 
ATOM     24  H1  UNL     1      -6.168  13.668  38.122  1.00  0.00     0.162 HD
HETATM   25  O1  UNL     1      -6.815  16.718  37.313  1.00  0.00    -0.273 OA
BRANCH  23  26
HETATM   26  C3  UNL     1      -5.246  14.675  36.445  1.00  0.00     0.122 C 
BRANCH  26  27
HETATM   27  C2  UNL     1      -5.855  14.061  35.200  1.00  0.00     0.015 C 
HETATM   28  C1  UNL     1      -5.116  12.785  34.823  1.00  0.00     0.006 C 
ENDBRANCH  26  27
ENDBRANCH  23  26
ENDBRANCH   1  22
TORSDOF 5
ENDMDL
MODEL 2
REMARK VINA RESULT: -7.294076936      1.265      1.506
REMARK  5 active torsions:
REMARK  status: ('A' for Active; 'I' for Inactive)
REMARK    1  A    between atoms: C2_2  and  C3_3 
REMARK    2  A    between atoms: C3_3  and  N1_4 
REMARK       I    between atoms: N1_4  and  C4_6 
REMARK    3  A    between atoms: C4_6  and  C5_8 
REMARK    4  A    between atoms: C11_14  and  C12_15 
REMARK    5  A    between atoms: C14_18  and  C15_19 
ROOT
HETATM    1  C5  UNL     1      -7.931  15.200  39.784  1.00  0.00     0.100 C 
HETATM    2  C6  UNL     1      -8.524  13.908  40.190  1.00  0.00     0.040 C 
HETATM    3  C7  UNL     1      -9.786  14.082  41.026  1.00  0.00     0.081 C 
HETATM    4  C8  UNL     1      -9.365  14.508  42.399  1.00  0.00     0.025 C 
HETATM    5  C9  UNL     1     -10.505  14.954  43.226  1.00  0.00     0.004 C 
HETATM    6  C10 UNL     1     -11.516  15.786  42.538  1.00  0.00     0.031 C 
HETATM    7  C11 UNL     1     -11.847  15.347  41.135  1.00  0.00     0.131 C 
HETATM    8  N3  UNL     1     -10.743  14.891  40.376  1.00  0.00    -0.397 N 
HETATM    9  C19 UNL     1     -10.341  15.800  39.371  1.00  0.00     0.139 C 
HETATM   10  C20 UNL     1      -8.923  16.215  39.296  1.00  0.00     0.113 C 
HETATM   11 CL1  UNL     1      -8.649  17.822  40.050  1.00  0.00    -0.122 Cl
ENDROOT
BRANCH   7  12
HETATM   12  C12 UNL     1     -13.062  14.491  41.062  1.00  0.00     0.056 A 
HETATM   13  C13 UNL     1     -14.286  14.653  41.697  1.00  0.00     0.171 A 
HETATM   14  O2  UNL     1     -15.080  13.678  41.325  1.00  0.00    -0.307 OA
HETATM   15  C14 UNL     1     -14.484  12.875  40.487  1.00  0.00     0.131 A 
HETATM   16  N2  UNL     1     -13.246  13.364  40.321  1.00  0.00    -0.340 N 
ATOM     17  H2  UNL     1     -12.536  12.946  39.719  1.00  0.00     0.167 HD
BRANCH  15  18
HETATM   18  C15 UNL     1     -15.068  11.666  39.848  1.00  0.00     0.014 C 
HETATM   19  C16 UNL     1     -14.097  10.523  39.949  1.00  0.00     0.023 C 
HETATM   20  C17 UNL     1     -15.275  11.981  38.393  1.00  0.00     0.023 C 
HETATM   21  C18 UNL     1     -16.360  11.228  40.488  1.00  0.00     0.023 C 
ENDBRANCH  15  18
ENDBRANCH   7  12
BRANCH   1  22
HETATM   22  C4  UNL     1      -6.840  14.978  38.823  1.00  0.00     0.223 C 
HETATM   23  N1  UNL     1      -5.455  15.006  39.099  1.00  0.00    -0.361 N 
ATOM     24  H1  UNL     1      -5.120  15.203  40.042  1.00  0.00     0.162 HD
HETATM   25  O1  UNL     1      -7.196  14.736  37.623  1.00  0.00    -0.273 OA
BRANCH  23  26
HETATM   26  C3  UNL     1      -4.506  14.749  38.019  1.00  0.00     0.122 C 
BRANCH  26  27
HETATM   27  C2  UNL     1      -3.552  15.909  37.816  1.00  0.00     0.015 C 
HETATM   28  C1  UNL     1      -4.319  17.160  37.411  1.00  0.00     0.006 C 
ENDBRANCH  26  27
ENDBRANCH  23  26
ENDBRANCH   1  22
TORSDOF 5
ENDMDL
MODEL 3
REMARK VINA RESULT: -7.263011719      0.560      1.029
REMARK  5 active torsions:
REMARK  status: ('A' for Active; 'I' for Inactive)
REMARK    1  A    between atoms: C2_2  and  C3_3 
REMARK    2  A    between atoms: C3_3  and  N1_4 
REMARK       I    between atoms: N1_4  and  C4_6 
REMARK    3  A    between atoms: C4_6  and  C5_8 
REMARK    4  A    between atoms: C11_14  and  C12_15 
REMARK    5  A    between atoms: C14_18  and  C15_19 
ROOT
HETATM    1  C5  UNL     1      -7.626  15.409  39.343  1.00  0.00     0.100 C 
HETATM    2  C6  UNL     1      -8.182  14.094  39.727  1.00  0.00     0.040 C 
HETATM    3  C7  UNL     1      -9.411  14.219  40.621  1.00  0.00     0.081 C 
HETATM    4  C8  UNL     1      -8.936  14.602  41.990  1.00  0.00     0.025 C 
HETATM    5  C9  UNL     1     -10.047  15.001  42.880  1.00  0.00     0.004 C 
HETATM    6  C10 UNL     1     -11.098  15.841  42.266  1.00  0.00     0.031 C 
HETATM    7  C11 UNL     1     -11.482  15.447  40.863  1.00  0.00     0.131 C 
HETATM    8  N3  UNL     1     -10.405  15.035  40.042  1.00  0.00    -0.397 N 
HETATM    9  C19 UNL     1     -10.060  15.985  39.054  1.00  0.00     0.139 C 
HETATM   10  C20 UNL     1      -8.652  16.424  38.934  1.00  0.00     0.113 C 
HETATM   11 CL1  UNL     1      -8.368  18.008  39.733  1.00  0.00    -0.122 Cl
ENDROOT
BRANCH   7  12
HETATM   12  C12 UNL     1     -12.687  14.575  40.811  1.00  0.00     0.056 A 
HETATM   13  C13 UNL     1     -13.901  14.721  41.468  1.00  0.00     0.171 A 
HETATM   14  O2  UNL     1     -14.690  13.735  41.109  1.00  0.00    -0.307 OA
HETATM   15  C14 UNL     1     -14.098  12.941  40.260  1.00  0.00     0.131 A 
HETATM   16  N2  UNL     1     -12.870  13.446  40.072  1.00  0.00    -0.340 N 
ATOM     17  H2  UNL     1     -12.165  13.038  39.457  1.00  0.00     0.167 HD
BRANCH  15  18
HETATM   18  C15 UNL     1     -14.678  11.725  39.630  1.00  0.00     0.014 C 
HETATM   19  C16 UNL     1     -15.983  11.387  40.296  1.00  0.00     0.023 C 
HETATM   20  C17 UNL     1     -13.719  10.593  39.870  1.00  0.00     0.023 C 
HETATM   21  C18 UNL     1     -14.945  11.896  38.157  1.00  0.00     0.023 C 
ENDBRANCH  15  18
ENDBRANCH   7  12
BRANCH   1  22
HETATM   22  C4  UNL     1      -6.574  15.238  38.330  1.00  0.00     0.223 C 
HETATM   23  N1  UNL     1      -5.494  14.328  38.380  1.00  0.00    -0.361 N 
ATOM     24  H1  UNL     1      -5.379  13.708  39.181  1.00  0.00     0.162 HD
HETATM   25  O1  UNL     1      -6.659  15.994  37.306  1.00  0.00    -0.273 OA
BRANCH  23  26
HETATM   26  C3  UNL     1      -4.545  14.285  37.271  1.00  0.00     0.122 C 
BRANCH  26  27
HETATM   27  C2  UNL     1      -4.728  13.047  36.417  1.00  0.00     0.015 C 
HETATM   28  C1  UNL     1      -5.401  13.407  35.100  1.00  0.00     0.006 C 
ENDBRANCH  26  27
ENDBRANCH  23  26
ENDBRANCH   1  22
TORSDOF 5
ENDMDL
MODEL 4
REMARK VINA RESULT: -7.194783768      1.523      2.037
REMARK  5 active torsions:
REMARK  status: ('A' for Active; 'I' for Inactive)
REMARK    1  A    between atoms: C2_2  and  C3_3 
REMARK    2  A    between atoms: C3_3  and  N1_4 
REMARK       I    between atoms: N1_4  and  C4_6 
REMARK    3  A    between atoms: C4_6  and  C5_8 
REMARK    4  A    between atoms: C11_14  and  C12_15 
REMARK    5  A    between atoms: C14_18  and  C15_19 
ROOT
HETATM    1  C5  UNL     1      -7.985  15.026  39.512  1.00  0.00     0.100 C 
HETATM    2  C6  UNL     1      -8.586  13.740  39.925  1.00  0.00     0.040 C 
HETATM    3  C7  UNL     1      -9.814  13.928  40.808  1.00  0.00     0.081 C 
HETATM    4  C8  UNL     1      -9.335  14.329  42.170  1.00  0.00     0.025 C 
HETATM    5  C9  UNL     1     -10.436  14.786  43.043  1.00  0.00     0.004 C 
HETATM    6  C10 UNL     1     -11.455  15.645  42.402  1.00  0.00     0.031 C 
HETATM    7  C11 UNL     1     -11.846  15.229  41.008  1.00  0.00     0.131 C 
HETATM    8  N3  UNL     1     -10.778  14.762  40.203  1.00  0.00    -0.397 N 
HETATM    9  C19 UNL     1     -10.396  15.676  39.194  1.00  0.00     0.139 C 
HETATM   10  C20 UNL     1      -8.974  16.065  39.072  1.00  0.00     0.113 C 
HETATM   11 CL1  UNL     1      -8.642  17.658  39.834  1.00  0.00    -0.122 Cl
ENDROOT
BRANCH   7  12
HETATM   12  C12 UNL     1     -13.078  14.397  40.969  1.00  0.00     0.056 A 
HETATM   13  C13 UNL     1     -13.282  13.163  40.367  1.00  0.00     0.171 A 
HETATM   14  O2  UNL     1     -14.514  12.781  40.607  1.00  0.00    -0.307 OA
HETATM   15  C14 UNL     1     -15.152  13.664  41.326  1.00  0.00     0.131 A 
HETATM   16  N2  UNL     1     -14.281  14.659  41.551  1.00  0.00    -0.340 N 
ATOM     17  H2  UNL     1     -14.492  15.500  42.088  1.00  0.00     0.167 HD
BRANCH  15  18
HETATM   18  C15 UNL     1     -16.559  13.574  41.798  1.00  0.00     0.014 C 
HETATM   19  C16 UNL     1     -17.443  14.402  40.907  1.00  0.00     0.023 C 
HETATM   20  C17 UNL     1     -16.608  14.158  43.182  1.00  0.00     0.023 C 
HETATM   21  C18 UNL     1     -17.093  12.165  41.792  1.00  0.00     0.023 C 
ENDBRANCH  15  18
ENDBRANCH   7  12
BRANCH   1  22
HETATM   22  C4  UNL     1      -6.934  14.796  38.510  1.00  0.00     0.223 C 
HETATM   23  N1  UNL     1      -5.585  14.460  38.763  1.00  0.00    -0.361 N 
ATOM     24  H1  UNL     1      -5.249  14.363  39.721  1.00  0.00     0.162 HD
HETATM   25  O1  UNL     1      -7.292  14.913  37.291  1.00  0.00    -0.273 OA
BRANCH  23  26
HETATM   26  C3  UNL     1      -4.677  14.254  37.639  1.00  0.00     0.122 C 
BRANCH  26  27
HETATM   27  C2  UNL     1      -4.575  12.792  37.253  1.00  0.00     0.015 C 
HETATM   28  C1  UNL     1      -4.012  12.653  35.846  1.00  0.00     0.006 C 
ENDBRANCH  26  27
ENDBRANCH  23  26
ENDBRANCH   1  22
TORSDOF 5
ENDMDL
MODEL 5
REMARK VINA RESULT: -6.839524072      3.896      6.673
REMARK  5 active torsions:
REMARK  status: ('A' for Active; 'I' for Inactive)
REMARK    1  A    between atoms: C2_2  and  C3_3 
REMARK    2  A    between atoms: C3_3  and  N1_4 
REMARK       I    between atoms: N1_4  and  C4_6 
REMARK    3  A    between atoms: C4_6  and  C5_8 
REMARK    4  A    between atoms: C11_14  and  C12_15 
REMARK    5  A    between atoms: C14_18  and  C15_19 
ROOT
HETATM    1  C5  UNL     1     -10.969  17.319  44.021  1.00  0.00     0.100 C 
HETATM    2  C6  UNL     1     -10.707  15.868  44.129  1.00  0.00     0.040 C 
HETATM    3  C7  UNL     1     -11.461  15.060  43.078  1.00  0.00     0.081 C 
HETATM    4  C8  UNL     1     -12.897  14.999  43.500  1.00  0.00     0.025 C 
HETATM    5  C9  UNL     1     -13.773  14.462  42.438  1.00  0.00     0.004 C 
HETATM    6  C10 UNL     1     -13.488  14.933  41.065  1.00  0.00     0.031 C 
HETATM    7  C11 UNL     1     -12.024  15.038  40.725  1.00  0.00     0.131 C 
HETATM    8  N3  UNL     1     -11.201  15.521  41.770  1.00  0.00    -0.397 N 
HETATM    9  C19 UNL     1     -10.746  16.843  41.559  1.00  0.00     0.139 C 
HETATM   10  C20 UNL     1     -10.945  17.855  42.620  1.00  0.00     0.113 C 
HETATM   11 CL1  UNL     1     -12.364  18.907  42.292  1.00  0.00    -0.122 Cl
ENDROOT
BRANCH   7  12
HETATM   12  C12 UNL     1     -11.502  13.842  40.010  1.00  0.00     0.056 A 
HETATM   13  C13 UNL     1     -10.188  13.491  39.737  1.00  0.00     0.171 A 
HETATM   14  O2  UNL     1     -10.186  12.339  39.109  1.00  0.00    -0.307 OA
HETATM   15  C14 UNL     1     -11.400  11.889  38.943  1.00  0.00     0.131 A 
HETATM   16  N2  UNL     1     -12.214  12.804  39.490  1.00  0.00    -0.340 N 
ATOM     17  H2  UNL     1     -13.231  12.732  39.513  1.00  0.00     0.167 HD
BRANCH  15  18
HETATM   18  C15 UNL     1     -11.791  10.616  38.281  1.00  0.00     0.014 C 
HETATM   19  C16 UNL     1     -12.899   9.964  39.061  1.00  0.00     0.023 C 
HETATM   20  C17 UNL     1     -10.595   9.706  38.312  1.00  0.00     0.023 C 
HETATM   21  C18 UNL     1     -12.278  10.812  36.869  1.00  0.00     0.023 C 
ENDBRANCH  15  18
ENDBRANCH   7  12
BRANCH   1  22
HETATM   22  C4  UNL     1     -10.074  18.063  44.920  1.00  0.00     0.223 C 
HETATM   23  N1  UNL     1     -10.351  19.293  45.558  1.00  0.00    -0.361 N 
ATOM     24  H1  UNL     1     -11.244  19.761  45.410  1.00  0.00     0.162 HD
HETATM   25  O1  UNL     1      -8.934  17.532  45.136  1.00  0.00    -0.273 OA
BRANCH  23  26
HETATM   26  C3  UNL     1      -9.343  19.887  46.432  1.00  0.00     0.122 C 
BRANCH  26  27
HETATM   27  C2  UNL     1      -9.944  20.388  47.730  1.00  0.00     0.015 C 
HETATM   28  C1  UNL     1      -8.964  20.194  48.877  1.00  0.00     0.006 C 
ENDBRANCH  26  27
ENDBRANCH  23  26
ENDBRANCH   1  22
TORSDOF 5
ENDMDL
