MODEL 1
REMARK VINA RESULT: -8.264211384      0.000      0.000
REMARK  4 active torsions:
REMARK  status: ('A' for Active; 'I' for Inactive)
REMARK       I    between atoms: C2_2  and  N1_4 
REMARK    1  A    between atoms: N1_4  and  C3_6 
REMARK    2  A    between atoms: C5_8  and  O2_9 
REMARK    3  A    between atoms: O2_9  and  C6_10 
REMARK    4  A    between atoms: C9_13  and  C10_14 
REMARK       I    between atoms: C10_14  and  N2_16 
ROOT
HETATM    1  C3  UNL     1      -8.490  14.406  39.571  1.00  0.00     0.059 A 
HETATM    2  C4  UNL     1      -9.031  13.144  39.657  1.00  0.00     0.069 A 
HETATM    3  C5  UNL     1     -10.379  12.865  39.807  1.00  0.00     0.087 A 
HETATM    4  C9  UNL     1     -11.236  13.968  39.875  1.00  0.00     0.067 A 
HETATM    5  C19 UNL     1     -10.732  15.242  39.794  1.00  0.00     0.046 A 
HETATM    6  C20 UNL     1      -9.401  15.482  39.645  1.00  0.00     0.061 A 
HETATM    7 CL1  UNL     1      -8.759  17.121  39.540  1.00  0.00    -0.082 Cl
ENDROOT
BRANCH   4   8
HETATM    8  C10 UNL     1     -12.657  13.739  40.033  1.00  0.00     0.257 C 
HETATM    9  O3  UNL     1     -13.388  13.358  39.054  1.00  0.00    -0.267 OA
HETATM   10  N2  UNL     1     -13.328  13.921  41.274  1.00  0.00    -0.343 N 
HETATM   11  C11 UNL     1     -12.663  14.351  42.495  1.00  0.00     0.127 C 
HETATM   12  C18 UNL     1     -14.694  13.754  41.639  1.00  0.00     0.091 C 
HETATM   13  C12 UNL     1     -13.720  15.207  43.205  1.00  0.00     0.026 C 
HETATM   14  C13 UNL     1     -14.954  15.079  42.373  1.00  0.00     0.010 C 
HETATM   15  C14 UNL     1     -16.210  14.885  43.146  1.00  0.00     0.007 C 
HETATM   16  C15 UNL     1     -17.337  14.678  42.159  1.00  0.00     0.001 C 
HETATM   17  C16 UNL     1     -17.071  13.629  41.147  1.00  0.00     0.002 C 
HETATM   18  C17 UNL     1     -15.682  13.692  40.534  1.00  0.00     0.026 C 
ENDBRANCH   4   8
BRANCH   3  19
HETATM   19  O2  UNL     1     -10.949  11.640  39.895  1.00  0.00    -0.346 OA
BRANCH  19  20
HETATM   20  C6  UNL     1     -11.043  10.713  38.889  1.00  0.00     0.120 C 
HETATM   21  C7  UNL     1      -9.999   9.603  39.004  1.00  0.00     0.040 C 
HETATM   22  C8  UNL     1     -12.419  10.022  38.871  1.00  0.00     0.040 C 
ENDBRANCH  19  20
ENDBRANCH   3  19
BRANCH   1  23
HETATM   23  N1  UNL     1      -7.118  14.685  39.418  1.00  0.00    -0.326 N 
HETATM   24  C2  UNL     1      -6.396  14.716  38.221  1.00  0.00     0.218 C 
HETATM   25  C1  UNL     1      -4.901  15.044  38.280  1.00  0.00     0.117 C 
HETATM   26  O1  UNL     1      -6.880  14.491  37.100  1.00  0.00    -0.274 OA
ATOM     27  H1  UNL     1      -6.596  14.887  40.271  1.00  0.00     0.169 HD
ENDBRANCH   1  23
TORSDOF 4
ENDMDL
MODEL 2
REMARK VINA RESULT: -8.067059340      3.267      6.447
REMARK  4 active torsions:
REMARK  status: ('A' for Active; 'I' for Inactive)
REMARK       I    between atoms: C2_2  and  N1_4 
REMARK    1  A    between atoms: N1_4  and  C3_6 
REMARK    2  A    between atoms: C5_8  and  O2_9 
REMARK    3  A    between atoms: O2_9  and  C6_10 
REMARK    4  A    between atoms: C9_13  and  C10_14 
REMARK       I    between atoms: C10_14  and  N2_16 
ROOT
HETATM    1  C3  UNL     1     -12.949  15.343  42.458  1.00  0.00     0.059 A 
HETATM    2  C4  UNL     1     -14.039  14.515  42.324  1.00  0.00     0.069 A 
HETATM    3  C5  UNL     1     -14.290  13.699  41.234  1.00  0.00     0.087 A 
HETATM    4  C9  UNL     1     -13.347  13.738  40.201  1.00  0.00     0.067 A 
HETATM    5  C19 UNL     1     -12.247  14.552  40.300  1.00  0.00     0.046 A 
HETATM    6  C20 UNL     1     -12.029  15.342  41.386  1.00  0.00     0.061 A 
HETATM    7 CL1  UNL     1     -10.613  16.385  41.506  1.00  0.00    -0.082 Cl
ENDROOT
BRANCH   4   8
HETATM    8  C10 UNL     1     -13.556  12.906  39.035  1.00  0.00     0.257 C 
HETATM    9  O3  UNL     1     -14.661  12.919  38.390  1.00  0.00    -0.267 OA
HETATM   10  N2  UNL     1     -12.556  12.027  38.534  1.00  0.00    -0.343 N 
HETATM   11  C11 UNL     1     -11.239  11.877  39.135  1.00  0.00     0.127 C 
HETATM   12  C18 UNL     1     -12.555  11.138  37.421  1.00  0.00     0.091 C 
HETATM   13  C12 UNL     1     -10.905  10.395  38.916  1.00  0.00     0.026 C 
HETATM   14  C13 UNL     1     -12.022   9.858  38.083  1.00  0.00     0.010 C 
HETATM   15  C14 UNL     1     -11.598   8.963  36.973  1.00  0.00     0.007 C 
HETATM   16  C15 UNL     1     -12.830   8.591  36.179  1.00  0.00     0.001 C 
HETATM   17  C16 UNL     1     -13.650   9.749  35.754  1.00  0.00     0.002 C 
HETATM   18  C17 UNL     1     -13.875  10.787  36.842  1.00  0.00     0.026 C 
ENDBRANCH   4   8
BRANCH   3  19
HETATM   19  O2  UNL     1     -15.349  12.873  41.066  1.00  0.00    -0.346 OA
BRANCH  19  20
HETATM   20  C6  UNL     1     -16.581  13.001  41.653  1.00  0.00     0.120 C 
HETATM   21  C7  UNL     1     -17.425  14.111  41.028  1.00  0.00     0.040 C 
HETATM   22  C8  UNL     1     -17.408  11.706  41.544  1.00  0.00     0.040 C 
ENDBRANCH  19  20
ENDBRANCH   3  19
BRANCH   1  23
HETATM   23  N1  UNL     1     -12.697  16.172  43.568  1.00  0.00    -0.326 N 
HETATM   24  C2  UNL     1     -13.266  17.423  43.828  1.00  0.00     0.218 C 
HETATM   25  C1  UNL     1     -12.850  18.161  45.104  1.00  0.00     0.117 C 
HETATM   26  O1  UNL     1     -14.091  17.988  43.092  1.00  0.00    -0.274 OA
ATOM     27  H1  UNL     1     -12.029  15.822  44.256  1.00  0.00     0.169 HD
ENDBRANCH   1  23
TORSDOF 4
ENDMDL
MODEL 3
REMARK VINA RESULT: -7.942296437      0.941      1.144
REMARK  4 active torsions:
REMARK  status: ('A' for Active; 'I' for Inactive)
REMARK       I    between atoms: C2_2  and  N1_4 
REMARK    1  A    between atoms: N1_4  and  C3_6 
REMARK    2  A    between atoms: C5_8  and  O2_9 
REMARK    3  A    between atoms: O2_9  and  C6_10 
REMARK    4  A    between atoms: C9_13  and  C10_14 
REMARK       I    between atoms: C10_14  and  N2_16 
ROOT
HETATM    1  C3  UNL     1      -7.743  14.260  39.133  1.00  0.00     0.059 A 
HETATM    2  C4  UNL     1      -8.377  13.067  39.392  1.00  0.00     0.069 A 
HETATM    3  C5  UNL     1      -9.703  12.935  39.768  1.00  0.00     0.087 A 
HETATM    4  C9  UNL     1     -10.433  14.122  39.889  1.00  0.00     0.067 A 
HETATM    5  C19 UNL     1      -9.834  15.331  39.639  1.00  0.00     0.046 A 
HETATM    6  C20 UNL     1      -8.528  15.426  39.270  1.00  0.00     0.061 A 
HETATM    7 CL1  UNL     1      -7.764  16.982  38.950  1.00  0.00    -0.082 Cl
ENDROOT
BRANCH   4   8
HETATM    8  C10 UNL     1     -11.826  14.048  40.280  1.00  0.00     0.257 C 
HETATM    9  O3  UNL     1     -12.742  13.736  39.442  1.00  0.00    -0.267 OA
HETATM   10  N2  UNL     1     -12.263  14.315  41.606  1.00  0.00    -0.343 N 
HETATM   11  C11 UNL     1     -11.366  14.686  42.692  1.00  0.00     0.127 C 
HETATM   12  C18 UNL     1     -13.560  14.299  42.192  1.00  0.00     0.091 C 
HETATM   13  C12 UNL     1     -12.199  15.658  43.537  1.00  0.00     0.026 C 
HETATM   14  C13 UNL     1     -13.559  15.653  42.919  1.00  0.00     0.010 C 
HETATM   15  C14 UNL     1     -14.685  15.603  43.889  1.00  0.00     0.007 C 
HETATM   16  C15 UNL     1     -15.974  15.506  43.103  1.00  0.00     0.001 C 
HETATM   17  C16 UNL     1     -15.986  14.423  42.092  1.00  0.00     0.002 C 
HETATM   18  C17 UNL     1     -14.716  14.330  41.262  1.00  0.00     0.026 C 
ENDBRANCH   4   8
BRANCH   3  19
HETATM   19  O2  UNL     1     -10.361  11.782  40.031  1.00  0.00    -0.346 OA
BRANCH  19  20
HETATM   20  C6  UNL     1     -10.787  10.861  39.108  1.00  0.00     0.120 C 
HETATM   21  C7  UNL     1      -9.889   9.626  39.042  1.00  0.00     0.040 C 
HETATM   22  C8  UNL     1     -12.208  10.354  39.416  1.00  0.00     0.040 C 
ENDBRANCH  19  20
ENDBRANCH   3  19
BRANCH   1  23
HETATM   23  N1  UNL     1      -6.394  14.390  38.751  1.00  0.00    -0.326 N 
HETATM   24  C2  UNL     1      -5.884  14.363  37.449  1.00  0.00     0.218 C 
HETATM   25  C1  UNL     1      -4.373  14.524  37.255  1.00  0.00     0.117 C 
HETATM   26  O1  UNL     1      -6.572  14.216  36.426  1.00  0.00    -0.274 OA
ATOM     27  H1  UNL     1      -5.717  14.516  39.503  1.00  0.00     0.169 HD
ENDBRANCH   1  23
TORSDOF 4
ENDMDL
MODEL 4
REMARK VINA RESULT: -7.675100289      3.134      6.615
REMARK  4 active torsions:
REMARK  status: ('A' for Active; 'I' for Inactive)
REMARK       I    between atoms: C2_2  and  N1_4 
REMARK    1  A    between atoms: N1_4  and  C3_6 
REMARK    2  A    between atoms: C5_8  and  O2_9 
REMARK    3  A    between atoms: O2_9  and  C6_10 
REMARK    4  A    between atoms: C9_13  and  C10_14 
REMARK       I    between atoms: C10_14  and  N2_16 
ROOT
HETATM    1  C3  UNL     1     -14.040  16.091  42.375  1.00  0.00     0.059 A 
HETATM    2  C4  UNL     1     -12.939  16.000  41.557  1.00  0.00     0.069 A 
HETATM    3  C5  UNL     1     -12.574  14.875  40.835  1.00  0.00     0.087 A 
HETATM    4  C9  UNL     1     -13.406  13.758  40.967  1.00  0.00     0.067 A 
HETATM    5  C19 UNL     1     -14.514  13.812  41.775  1.00  0.00     0.046 A 
HETATM    6  C20 UNL     1     -14.845  14.934  42.471  1.00  0.00     0.061 A 
HETATM    7 CL1  UNL     1     -16.269  14.998  43.507  1.00  0.00    -0.082 Cl
ENDROOT
BRANCH   4   8
HETATM    8  C10 UNL     1     -13.075  12.552  40.237  1.00  0.00     0.257 C 
HETATM    9  O3  UNL     1     -12.019  11.879  40.498  1.00  0.00    -0.267 OA
HETATM   10  N2  UNL     1     -13.895  12.042  39.193  1.00  0.00    -0.343 N 
HETATM   11  C11 UNL     1     -15.132  12.672  38.757  1.00  0.00     0.127 C 
HETATM   12  C18 UNL     1     -13.756  10.893  38.363  1.00  0.00     0.091 C 
HETATM   13  C12 UNL     1     -15.168  12.400  37.247  1.00  0.00     0.026 C 
HETATM   14  C13 UNL     1     -13.996  11.515  36.978  1.00  0.00     0.010 C 
HETATM   15  C14 UNL     1     -14.270  10.380  36.056  1.00  0.00     0.007 C 
HETATM   16  C15 UNL     1     -13.017   9.537  35.971  1.00  0.00     0.001 C 
HETATM   17  C16 UNL     1     -12.463   9.140  37.286  1.00  0.00     0.002 C 
HETATM   18  C17 UNL     1     -12.414  10.264  38.307  1.00  0.00     0.026 C 
ENDBRANCH   4   8
BRANCH   3  19
HETATM   19  O2  UNL     1     -11.501  14.746  40.021  1.00  0.00    -0.346 OA
BRANCH  19  20
HETATM   20  C6  UNL     1     -10.229  15.192  40.276  1.00  0.00     0.120 C 
HETATM   21  C7  UNL     1      -9.198  14.064  40.303  1.00  0.00     0.040 C 
HETATM   22  C8  UNL     1      -9.750  16.200  39.215  1.00  0.00     0.040 C 
ENDBRANCH  19  20
ENDBRANCH   3  19
BRANCH   1  23
HETATM   23  N1  UNL     1     -14.408  17.237  43.107  1.00  0.00    -0.326 N 
HETATM   24  C2  UNL     1     -13.860  17.671  44.318  1.00  0.00     0.218 C 
HETATM   25  C1  UNL     1     -14.410  18.954  44.949  1.00  0.00     0.117 C 
HETATM   26  O1  UNL     1     -12.952  17.086  44.930  1.00  0.00    -0.274 OA
ATOM     27  H1  UNL     1     -15.152  17.811  42.711  1.00  0.00     0.169 HD
ENDBRANCH   1  23
TORSDOF 4
ENDMDL
MODEL 5
REMARK VINA RESULT: -7.472099357      3.766      6.701
REMARK  4 active torsions:
REMARK  status: ('A' for Active; 'I' for Inactive)
REMARK       I    between atoms: C2_2  and  N1_4 
REMARK    1  A    between atoms: N1_4  and  C3_6 
REMARK    2  A    between atoms: C5_8  and  O2_9 
REMARK    3  A    between atoms: O2_9  and  C6_10 
REMARK    4  A    between atoms: C9_13  and  C10_14 
REMARK       I    between atoms: C10_14  and  N2_16 
ROOT
HETATM    1  C3  UNL     1     -14.305  16.363  42.460  1.00  0.00     0.059 A 
HETATM    2  C4  UNL     1     -15.098  15.248  42.598  1.00  0.00     0.069 A 
HETATM    3  C5  UNL     1     -14.879  14.034  41.968  1.00  0.00     0.087 A 
HETATM    4  C9  UNL     1     -13.760  13.962  41.132  1.00  0.00     0.067 A 
HETATM    5  C19 UNL     1     -12.947  15.055  40.971  1.00  0.00     0.046 A 
HETATM    6  C20 UNL     1     -13.189  16.235  41.605  1.00  0.00     0.061 A 
HETATM    7 CL1  UNL     1     -12.140  17.636  41.393  1.00  0.00    -0.082 Cl
ENDROOT
BRANCH   4   8
HETATM    8  C10 UNL     1     -13.480  12.718  40.446  1.00  0.00     0.257 C 
HETATM    9  O3  UNL     1     -12.551  11.930  40.838  1.00  0.00    -0.267 OA
HETATM   10  N2  UNL     1     -14.211  12.295  39.302  1.00  0.00    -0.343 N 
HETATM   11  C11 UNL     1     -15.301  13.060  38.712  1.00  0.00     0.127 C 
HETATM   12  C18 UNL     1     -14.100  11.130  38.491  1.00  0.00     0.091 C 
HETATM   13  C12 UNL     1     -15.173  12.777  37.209  1.00  0.00     0.026 C 
HETATM   14  C13 UNL     1     -14.086  11.760  37.090  1.00  0.00     0.010 C 
HETATM   15  C14 UNL     1     -14.368  10.655  36.136  1.00  0.00     0.007 C 
HETATM   16  C15 UNL     1     -13.221   9.671  36.209  1.00  0.00     0.001 C 
HETATM   17  C16 UNL     1     -12.891   9.227  37.583  1.00  0.00     0.002 C 
HETATM   18  C17 UNL     1     -12.844  10.349  38.607  1.00  0.00     0.026 C 
ENDBRANCH   4   8
BRANCH   3  19
HETATM   19  O2  UNL     1     -15.634  12.916  42.077  1.00  0.00    -0.346 OA
BRANCH  19  20
HETATM   20  C6  UNL     1     -17.003  12.851  42.029  1.00  0.00     0.120 C 
HETATM   21  C7  UNL     1     -17.620  13.949  41.164  1.00  0.00     0.040 C 
HETATM   22  C8  UNL     1     -17.496  11.510  41.455  1.00  0.00     0.040 C 
ENDBRANCH  19  20
ENDBRANCH   3  19
BRANCH   1  23
HETATM   23  N1  UNL     1     -14.531  17.596  43.103  1.00  0.00    -0.326 N 
HETATM   24  C2  UNL     1     -13.962  18.034  44.303  1.00  0.00     0.218 C 
HETATM   25  C1  UNL     1     -14.347  19.420  44.828  1.00  0.00     0.117 C 
HETATM   26  O1  UNL     1     -13.159  17.376  44.984  1.00  0.00    -0.274 OA
ATOM     27  H1  UNL     1     -15.178  18.237  42.644  1.00  0.00     0.169 HD
ENDBRANCH   1  23
TORSDOF 4
ENDMDL
