MODEL 1
REMARK VINA RESULT: -6.122736064      0.000      0.000
REMARK  5 active torsions:
REMARK  status: ('A' for Active; 'I' for Inactive)
REMARK    1  A    between atoms: C2_2  and  C3_3 
REMARK    2  A    between atoms: C3_3  and  C4_4 
REMARK    3  A    between atoms: C12_15  and  C14_17 
REMARK    4  A    between atoms: C14_17  and  O2_19 
REMARK    5  A    between atoms: O2_19  and  C15_20 
ROOT
HETATM    1  C4  UNL     1     -10.942  12.905  39.857  1.00  0.00    -0.076 C 
HETATM    2  C5  UNL     1      -9.785  13.503  40.029  1.00  0.00    -0.061 C 
HETATM    3  C6  UNL     1      -8.392  13.028  39.686  1.00  0.00     0.113 C 
HETATM    4  C7  UNL     1      -7.780  14.312  39.160  1.00  0.00     0.137 C 
HETATM    5  O1  UNL     1      -7.545  14.344  37.990  1.00  0.00    -0.297 OA
HETATM    6  C8  UNL     1      -7.566  15.348  40.188  1.00  0.00     0.084 C 
HETATM    7  C9  UNL     1      -8.985  15.828  40.544  1.00  0.00     0.057 C 
HETATM    8  C10 UNL     1      -8.837  16.648  39.275  1.00  0.00     0.001 C 
HETATM    9  N1  UNL     1      -9.596  16.998  38.365  1.00  0.00    -0.400 N 
ATOM     10  H1  UNL     1     -10.540  16.645  38.519  1.00  0.00     0.158 HD
HETATM   11  C11 UNL     1      -9.526  17.730  37.203  1.00  0.00     0.145 C 
HETATM   12  C12 UNL     1      -7.423  16.777  39.685  1.00  0.00     0.045 C 
HETATM   13  C13 UNL     1      -7.296  17.694  40.916  1.00  0.00     0.026 C 
HETATM   14  C19 UNL     1     -10.015  14.821  40.634  1.00  0.00    -0.010 C 
HETATM   15  C20 UNL     1     -10.305  14.562  42.128  1.00  0.00     0.021 C 
HETATM   16  C21 UNL     1     -11.385  15.163  40.053  1.00  0.00     0.019 C 
HETATM   17  C22 UNL     1     -12.060  13.804  40.350  1.00  0.00     0.035 C 
ENDROOT
BRANCH  12  18
HETATM   18  C14 UNL     1      -6.365  17.065  38.679  1.00  0.00     0.232 C 
HETATM   19 CL1  UNL     1      -6.382  18.943  38.658  1.00  0.00    -0.094 Cl
BRANCH  18  20
HETATM   20  O2  UNL     1      -5.141  16.741  39.141  1.00  0.00    -0.360 OA
BRANCH  20  21
HETATM   21  C15 UNL     1      -4.149  16.190  38.482  1.00  0.00     0.052 C 
HETATM   22  C16 UNL     1      -2.891  17.002  38.439  1.00  0.00     0.045 C 
HETATM   23  C17 UNL     1      -4.588  16.066  36.997  1.00  0.00     0.045 C 
HETATM   24  C18 UNL     1      -3.755  14.784  38.896  1.00  0.00     0.045 C 
ENDBRANCH  20  21
ENDBRANCH  18  20
ENDBRANCH  12  18
BRANCH   1  25
HETATM   25  C3  UNL     1     -11.184  11.579  39.270  1.00  0.00     0.034 C 
BRANCH  25  26
HETATM   26  C2  UNL     1     -12.662  11.418  39.020  1.00  0.00    -0.000 C 
HETATM   27  C1  UNL     1     -13.181  10.310  39.890  1.00  0.00     0.005 C 
ENDBRANCH  25  26
ENDBRANCH   1  25
TORSDOF 5
ENDMDL
MODEL 2
REMARK VINA RESULT: -6.053256769      1.240      1.475
REMARK  5 active torsions:
REMARK  status: ('A' for Active; 'I' for Inactive)
REMARK    1  A    between atoms: C2_2  and  C3_3 
REMARK    2  A    between atoms: C3_3  and  C4_4 
REMARK    3  A    between atoms: C12_15  and  C14_17 
REMARK    4  A    between atoms: C14_17  and  O2_19 
REMARK    5  A    between atoms: O2_19  and  C15_20 
ROOT
HETATM    1  C4  UNL     1     -11.546  14.292  40.837  1.00  0.00    -0.076 C 
HETATM    2  C5  UNL     1     -10.240  14.416  40.770  1.00  0.00    -0.061 C 
HETATM    3  C6  UNL     1      -9.196  13.421  40.317  1.00  0.00     0.113 C 
HETATM    4  C7  UNL     1      -8.261  14.328  39.542  1.00  0.00     0.137 C 
HETATM    5  O1  UNL     1      -8.239  14.175  38.358  1.00  0.00    -0.297 OA
HETATM    6  C8  UNL     1      -7.511  15.283  40.378  1.00  0.00     0.084 C 
HETATM    7  C9  UNL     1      -8.573  16.294  40.847  1.00  0.00     0.057 C 
HETATM    8  C10 UNL     1      -8.361  16.892  39.467  1.00  0.00     0.001 C 
HETATM    9  N1  UNL     1      -9.086  17.431  38.625  1.00  0.00    -0.400 N 
ATOM     10  H1  UNL     1     -10.052  17.477  38.949  1.00  0.00     0.158 HD
HETATM   11  C11 UNL     1      -8.958  17.985  37.373  1.00  0.00     0.145 C 
HETATM   12  C12 UNL     1      -6.948  16.505  39.666  1.00  0.00     0.045 C 
HETATM   13  C13 UNL     1      -6.285  17.400  40.730  1.00  0.00     0.026 C 
HETATM   14  C19 UNL     1      -9.866  15.766  41.211  1.00  0.00    -0.010 C 
HETATM   15  C20 UNL     1      -9.965  15.757  42.751  1.00  0.00     0.021 C 
HETATM   16  C21 UNL     1     -11.097  16.557  40.773  1.00  0.00     0.019 C 
HETATM   17  C22 UNL     1     -12.156  15.586  41.343  1.00  0.00     0.035 C 
ENDROOT
BRANCH  12  18
HETATM   18  C14 UNL     1      -6.050  16.287  38.500  1.00  0.00     0.232 C 
HETATM   19 CL1  UNL     1      -5.102  17.908  38.460  1.00  0.00    -0.094 Cl
BRANCH  18  20
HETATM   20  O2  UNL     1      -5.115  15.352  38.762  1.00  0.00    -0.360 OA
BRANCH  20  21
HETATM   21  C15 UNL     1      -4.558  14.510  37.924  1.00  0.00     0.052 C 
HETATM   22  C16 UNL     1      -3.063  14.580  37.858  1.00  0.00     0.045 C 
HETATM   23  C17 UNL     1      -5.033  14.892  36.495  1.00  0.00     0.045 C 
HETATM   24  C18 UNL     1      -4.926  13.047  38.084  1.00  0.00     0.045 C 
ENDBRANCH  20  21
ENDBRANCH  18  20
ENDBRANCH  12  18
BRANCH   1  25
HETATM   25  C3  UNL     1     -12.350  13.116  40.478  1.00  0.00     0.034 C 
BRANCH  25  26
HETATM   26  C2  UNL     1     -12.718  13.203  39.018  1.00  0.00    -0.000 C 
HETATM   27  C1  UNL     1     -12.247  11.956  38.327  1.00  0.00     0.005 C 
ENDBRANCH  25  26
ENDBRANCH   1  25
TORSDOF 5
ENDMDL
MODEL 3
REMARK VINA RESULT: -5.949574888      4.575      6.064
REMARK  5 active torsions:
REMARK  status: ('A' for Active; 'I' for Inactive)
REMARK    1  A    between atoms: C2_2  and  C3_3 
REMARK    2  A    between atoms: C3_3  and  C4_4 
REMARK    3  A    between atoms: C12_15  and  C14_17 
REMARK    4  A    between atoms: C14_17  and  O2_19 
REMARK    5  A    between atoms: O2_19  and  C15_20 
ROOT
HETATM    1  C4  UNL     1     -15.709  13.227  40.692  1.00  0.00    -0.076 C 
HETATM    2  C5  UNL     1     -14.801  13.606  41.561  1.00  0.00    -0.061 C 
HETATM    3  C6  UNL     1     -13.361  13.169  41.707  1.00  0.00     0.113 C 
HETATM    4  C7  UNL     1     -12.697  14.493  42.030  1.00  0.00     0.137 C 
HETATM    5  O1  UNL     1     -11.981  14.943  41.188  1.00  0.00    -0.297 OA
HETATM    6  C8  UNL     1     -13.045  15.039  43.356  1.00  0.00     0.084 C 
HETATM    7  C9  UNL     1     -14.514  15.478  43.212  1.00  0.00     0.057 C 
HETATM    8  C10 UNL     1     -13.901  16.700  42.550  1.00  0.00     0.001 C 
HETATM    9  N1  UNL     1     -14.216  17.437  41.610  1.00  0.00    -0.400 N 
ATOM     10  H1  UNL     1     -15.098  17.141  41.191  1.00  0.00     0.158 HD
HETATM   11  C11 UNL     1     -13.712  18.544  40.968  1.00  0.00     0.145 C 
HETATM   12  C12 UNL     1     -12.825  16.532  43.548  1.00  0.00     0.045 C 
HETATM   13  C13 UNL     1     -13.328  16.899  44.957  1.00  0.00     0.026 C 
HETATM   14  C19 UNL     1     -15.387  14.612  42.456  1.00  0.00    -0.010 C 
HETATM   15  C20 UNL     1     -16.274  13.836  43.452  1.00  0.00     0.021 C 
HETATM   16  C21 UNL     1     -16.392  15.274  41.516  1.00  0.00     0.019 C 
HETATM   17  C22 UNL     1     -17.005  13.973  40.950  1.00  0.00     0.035 C 
ENDROOT
BRANCH  12  18
HETATM   18  C14 UNL     1     -11.464  17.080  43.296  1.00  0.00     0.232 C 
HETATM   19 CL1  UNL     1     -11.595  18.771  44.103  1.00  0.00    -0.094 Cl
BRANCH  18  20
HETATM   20  O2  UNL     1     -10.527  16.430  44.015  1.00  0.00    -0.360 OA
BRANCH  20  21
HETATM   21  C15 UNL     1      -9.336  16.043  43.626  1.00  0.00     0.052 C 
HETATM   22  C16 UNL     1      -8.229  16.336  44.592  1.00  0.00     0.045 C 
HETATM   23  C17 UNL     1      -8.973  16.858  42.354  1.00  0.00     0.045 C 
HETATM   24  C18 UNL     1      -9.192  14.589  43.216  1.00  0.00     0.045 C 
ENDBRANCH  20  21
ENDBRANCH  18  20
ENDBRANCH  12  18
BRANCH   1  25
HETATM   25  C3  UNL     1     -15.553  12.250  39.605  1.00  0.00     0.034 C 
BRANCH  25  26
HETATM   26  C2  UNL     1     -14.667  12.843  38.539  1.00  0.00    -0.000 C 
HETATM   27  C1  UNL     1     -15.112  12.330  37.201  1.00  0.00     0.005 C 
ENDBRANCH  25  26
ENDBRANCH   1  25
TORSDOF 5
ENDMDL
MODEL 4
REMARK VINA RESULT: -5.948626388      1.261      1.687
REMARK  5 active torsions:
REMARK  status: ('A' for Active; 'I' for Inactive)
REMARK    1  A    between atoms: C2_2  and  C3_3 
REMARK    2  A    between atoms: C3_3  and  C4_4 
REMARK    3  A    between atoms: C12_15  and  C14_17 
REMARK    4  A    between atoms: C14_17  and  O2_19 
REMARK    5  A    between atoms: O2_19  and  C15_20 
ROOT
HETATM    1  C4  UNL     1     -12.075  13.806  40.802  1.00  0.00    -0.076 C 
HETATM    2  C5  UNL     1     -10.778  14.012  40.825  1.00  0.00    -0.061 C 
HETATM    3  C6  UNL     1      -9.658  13.198  40.218  1.00  0.00     0.113 C 
HETATM    4  C7  UNL     1      -8.756  14.302  39.702  1.00  0.00     0.137 C 
HETATM    5  O1  UNL     1      -8.683  14.412  38.516  1.00  0.00    -0.297 OA
HETATM    6  C8  UNL     1      -8.096  15.089  40.761  1.00  0.00     0.084 C 
HETATM    7  C9  UNL     1      -9.235  15.915  41.386  1.00  0.00     0.057 C 
HETATM    8  C10 UNL     1      -9.014  16.810  40.180  1.00  0.00     0.001 C 
HETATM    9  N1  UNL     1      -9.742  17.480  39.441  1.00  0.00    -0.400 N 
ATOM     10  H1  UNL     1     -10.720  17.403  39.721  1.00  0.00     0.158 HD
HETATM   11  C11 UNL     1      -9.606  18.301  38.346  1.00  0.00     0.145 C 
HETATM   12  C12 UNL     1      -7.588  16.465  40.357  1.00  0.00     0.045 C 
HETATM   13  C13 UNL     1      -7.019  17.140  41.620  1.00  0.00     0.026 C 
HETATM   14  C19 UNL     1     -10.504  15.251  41.565  1.00  0.00    -0.010 C 
HETATM   15  C20 UNL     1     -10.657  14.900  43.060  1.00  0.00     0.021 C 
HETATM   16  C21 UNL     1     -11.767  16.051  41.250  1.00  0.00     0.019 C 
HETATM   17  C22 UNL     1     -12.783  14.923  41.546  1.00  0.00     0.035 C 
ENDROOT
BRANCH  12  18
HETATM   18  C14 UNL     1      -6.637  16.557  39.216  1.00  0.00     0.232 C 
HETATM   19 CL1  UNL     1      -5.937  18.283  39.459  1.00  0.00    -0.094 Cl
BRANCH  18  20
HETATM   20  O2  UNL     1      -5.582  15.734  39.382  1.00  0.00    -0.360 OA
BRANCH  20  21
HETATM   21  C15 UNL     1      -4.829  15.191  38.456  1.00  0.00     0.052 C 
HETATM   22  C16 UNL     1      -5.288  13.848  37.976  1.00  0.00     0.045 C 
HETATM   23  C17 UNL     1      -3.433  14.928  39.085  1.00  0.00     0.045 C 
HETATM   24  C18 UNL     1      -4.554  16.031  37.222  1.00  0.00     0.045 C 
ENDBRANCH  20  21
ENDBRANCH  18  20
ENDBRANCH  12  18
BRANCH   1  25
HETATM   25  C3  UNL     1     -12.791  12.696  40.159  1.00  0.00     0.034 C 
BRANCH  25  26
HETATM   26  C2  UNL     1     -13.055  13.054  38.718  1.00  0.00    -0.000 C 
HETATM   27  C1  UNL     1     -14.466  12.674  38.377  1.00  0.00     0.005 C 
ENDBRANCH  25  26
ENDBRANCH   1  25
TORSDOF 5
ENDMDL
MODEL 5
REMARK VINA RESULT: -5.878492153      3.906      6.089
REMARK  5 active torsions:
REMARK  status: ('A' for Active; 'I' for Inactive)
REMARK    1  A    between atoms: C2_2  and  C3_3 
REMARK    2  A    between atoms: C3_3  and  C4_4 
REMARK    3  A    between atoms: C12_15  and  C14_17 
REMARK    4  A    between atoms: C14_17  and  O2_19 
REMARK    5  A    between atoms: O2_19  and  C15_20 
ROOT
HETATM    1  C4  UNL     1     -14.487  17.837  43.414  1.00  0.00    -0.076 C 
HETATM    2  C5  UNL     1     -13.797  17.425  42.376  1.00  0.00    -0.061 C 
HETATM    3  C6  UNL     1     -13.076  18.225  41.315  1.00  0.00     0.113 C 
HETATM    4  C7  UNL     1     -11.816  17.399  41.147  1.00  0.00     0.137 C 
HETATM    5  O1  UNL     1     -10.804  17.897  41.537  1.00  0.00    -0.297 OA
HETATM    6  C8  UNL     1     -12.034  16.081  40.521  1.00  0.00     0.084 C 
HETATM    7  C9  UNL     1     -12.773  15.266  41.597  1.00  0.00     0.057 C 
HETATM    8  C10 UNL     1     -11.379  15.086  42.170  1.00  0.00     0.001 C 
HETATM    9  N1  UNL     1     -10.900  15.024  43.308  1.00  0.00    -0.400 N 
ATOM     10  H1  UNL     1     -11.627  15.118  44.017  1.00  0.00     0.158 HD
HETATM   11  C11 UNL     1      -9.663  14.865  43.887  1.00  0.00     0.145 C 
HETATM   12  C12 UNL     1     -10.952  15.037  40.756  1.00  0.00     0.045 C 
HETATM   13  C13 UNL     1     -11.418  13.727  40.093  1.00  0.00     0.026 C 
HETATM   14  C19 UNL     1     -13.782  15.956  42.365  1.00  0.00    -0.010 C 
HETATM   15  C20 UNL     1     -15.167  15.519  41.842  1.00  0.00     0.021 C 
HETATM   16  C21 UNL     1     -13.850  15.663  43.862  1.00  0.00     0.019 C 
HETATM   17  C22 UNL     1     -15.001  16.641  44.193  1.00  0.00     0.035 C 
ENDROOT
BRANCH  12  18
HETATM   18  C14 UNL     1      -9.554  15.375  40.374  1.00  0.00     0.232 C 
HETATM   19 CL1  UNL     1      -8.731  13.689  40.470  1.00  0.00    -0.094 Cl
BRANCH  18  20
HETATM   20  O2  UNL     1      -9.466  15.723  39.074  1.00  0.00    -0.360 OA
BRANCH  20  21
HETATM   21  C15 UNL     1      -8.702  16.644  38.536  1.00  0.00     0.052 C 
HETATM   22  C16 UNL     1      -7.975  17.513  39.514  1.00  0.00     0.045 C 
HETATM   23  C17 UNL     1      -9.626  17.618  37.754  1.00  0.00     0.045 C 
HETATM   24  C18 UNL     1      -7.680  16.170  37.519  1.00  0.00     0.045 C 
ENDBRANCH  20  21
ENDBRANCH  18  20
ENDBRANCH  12  18
BRANCH   1  25
HETATM   25  C3  UNL     1     -14.746  19.226  43.820  1.00  0.00     0.034 C 
BRANCH  25  26
HETATM   26  C2  UNL     1     -14.256  19.420  45.233  1.00  0.00    -0.000 C 
HETATM   27  C1  UNL     1     -12.759  19.515  45.217  1.00  0.00     0.005 C 
ENDBRANCH  25  26
ENDBRANCH   1  25
TORSDOF 5
ENDMDL
