MODEL 1
REMARK VINA RESULT: -6.660762712      0.000      0.000
REMARK  6 active torsions:
REMARK  status: ('A' for Active; 'I' for Inactive)
REMARK    1  A    between atoms: C2_2  and  C3_3 
REMARK    2  A    between atoms: C4_4  and  C5_5 
REMARK    3  A    between atoms: C5_5  and  C6_6 
REMARK    4  A    between atoms: C6_6  and  C7_7 
REMARK    5  A    between atoms: C7_7  and  N1_8 
REMARK    6  A    between atoms: C17_19  and  O2_20 
ROOT
HETATM    1  N1  UNL     1     -14.775  15.776  42.467  1.00  0.00     0.112 N 
HETATM    2  C8  UNL     1     -14.571  15.474  43.876  1.00  0.00     0.300 C 
HETATM    3  C9  UNL     1     -13.313  16.136  44.372  1.00  0.00     0.199 C 
HETATM    4  O1  UNL     1     -12.501  16.706  43.470  1.00  0.00    -0.374 OA
HETATM    5  C10 UNL     1     -12.509  16.368  42.164  1.00  0.00     0.116 C 
HETATM    6  C11 UNL     1     -12.586  17.637  41.338  1.00  0.00     0.021 C 
HETATM    7  C12 UNL     1     -13.678  18.572  41.741  1.00  0.00     0.013 C 
HETATM    8  C13 UNL     1     -11.258  18.302  41.700  1.00  0.00     0.013 C 
HETATM    9  C14 UNL     1     -10.324  17.116  41.899  1.00  0.00     0.003 C 
HETATM   10  C15 UNL     1      -9.148  17.287  41.016  1.00  0.00     0.015 C 
HETATM   11  C16 UNL     1      -7.858  16.695  41.551  1.00  0.00     0.013 C 
HETATM   12  C17 UNL     1      -9.403  16.864  39.587  1.00  0.00     0.122 C 
HETATM   13  C18 UNL     1      -9.856  15.444  39.592  1.00  0.00     0.033 C 
HETATM   14  C19 UNL     1     -11.136  15.291  40.365  1.00  0.00     0.015 C 
HETATM   15  C20 UNL     1     -11.117  15.877  41.729  1.00  0.00    -0.005 C 
HETATM   16  C21 UNL     1     -10.558  14.838  42.675  1.00  0.00     0.019 C 
HETATM   17  C22 UNL     1     -13.578  15.389  41.742  1.00  0.00     0.353 C 
HETATM   18 CL1  UNL     1     -13.140  13.771  42.329  1.00  0.00    -0.089 Cl
ENDROOT
BRANCH   1  19
HETATM   19  C7  UNL     1     -15.997  15.233  41.964  1.00  0.00     0.275 C 
BRANCH  19  20
HETATM   20  C6  UNL     1     -16.617  14.144  42.756  1.00  0.00     0.034 C 
BRANCH  20  21
HETATM   21  C5  UNL     1     -16.912  12.960  41.872  1.00  0.00     0.028 C 
BRANCH  21  22
HETATM   22  C4  UNL     1     -16.238  13.089  40.521  1.00  0.00    -0.031 C 
HETATM   23  C3  UNL     1     -15.529  12.083  40.071  1.00  0.00    -0.031 C 
BRANCH  23  24
HETATM   24  C2  UNL     1     -14.839  12.104  38.778  1.00  0.00     0.022 C 
HETATM   25  C1  UNL     1     -13.671  13.041  38.754  1.00  0.00     0.009 C 
ENDBRANCH  23  24
ENDBRANCH  21  22
ENDBRANCH  20  21
ENDBRANCH  19  20
ENDBRANCH   1  19
BRANCH  12  26
HETATM   26  O2  UNL     1      -8.207  16.994  38.880  1.00  0.00    -0.395 OA
ATOM     27  H2  UNL     1      -7.749  16.162  38.923  1.00  0.00     0.210 HD
ENDBRANCH  12  26
TORSDOF 6
ENDMDL
MODEL 2
REMARK VINA RESULT: -6.487868653      1.798      2.780
REMARK  6 active torsions:
REMARK  status: ('A' for Active; 'I' for Inactive)
REMARK    1  A    between atoms: C2_2  and  C3_3 
REMARK    2  A    between atoms: C4_4  and  C5_5 
REMARK    3  A    between atoms: C5_5  and  C6_6 
REMARK    4  A    between atoms: C6_6  and  C7_7 
REMARK    5  A    between atoms: C7_7  and  N1_8 
REMARK    6  A    between atoms: C17_19  and  O2_20 
ROOT
HETATM    1  N1  UNL     1     -12.005  15.277  42.321  1.00  0.00     0.112 N 
HETATM    2  C8  UNL     1     -11.262  15.279  43.573  1.00  0.00     0.300 C 
HETATM    3  C9  UNL     1     -10.337  16.465  43.625  1.00  0.00     0.199 C 
HETATM    4  O1  UNL     1     -10.183  17.196  42.512  1.00  0.00    -0.374 OA
HETATM    5  C10 UNL     1     -10.448  16.714  41.280  1.00  0.00     0.116 C 
HETATM    6  C11 UNL     1     -11.326  17.712  40.551  1.00  0.00     0.021 C 
HETATM    7  C12 UNL     1     -12.531  18.151  41.315  1.00  0.00     0.013 C 
HETATM    8  C13 UNL     1     -10.385  18.912  40.453  1.00  0.00     0.013 C 
HETATM    9  C14 UNL     1      -9.015  18.263  40.304  1.00  0.00     0.003 C 
HETATM   10  C15 UNL     1      -8.374  18.790  39.079  1.00  0.00     0.015 C 
HETATM   11  C16 UNL     1      -6.860  18.868  39.135  1.00  0.00     0.013 C 
HETATM   12  C17 UNL     1      -8.848  18.112  37.812  1.00  0.00     0.122 C 
HETATM   13  C18 UNL     1      -8.607  16.647  37.947  1.00  0.00     0.033 C 
HETATM   14  C19 UNL     1      -9.378  16.079  39.104  1.00  0.00     0.015 C 
HETATM   15  C20 UNL     1      -9.194  16.796  40.392  1.00  0.00    -0.005 C 
HETATM   16  C21 UNL     1      -7.973  16.223  41.074  1.00  0.00     0.019 C 
HETATM   17  C22 UNL     1     -11.052  15.332  41.228  1.00  0.00     0.353 C 
HETATM   18 CL1  UNL     1      -9.791  14.139  41.605  1.00  0.00    -0.089 Cl
ENDROOT
BRANCH   1  19
HETATM   19  C7  UNL     1     -12.955  14.211  42.252  1.00  0.00     0.275 C 
BRANCH  19  20
HETATM   20  C6  UNL     1     -14.011  14.328  41.219  1.00  0.00     0.034 C 
BRANCH  20  21
HETATM   21  C5  UNL     1     -15.208  15.056  41.777  1.00  0.00     0.028 C 
BRANCH  21  22
HETATM   22  C4  UNL     1     -16.368  14.115  42.029  1.00  0.00    -0.031 C 
HETATM   23  C3  UNL     1     -16.410  12.977  41.380  1.00  0.00    -0.031 C 
BRANCH  23  24
HETATM   24  C2  UNL     1     -17.485  11.996  41.551  1.00  0.00     0.022 C 
HETATM   25  C1  UNL     1     -17.126  10.639  41.027  1.00  0.00     0.009 C 
ENDBRANCH  23  24
ENDBRANCH  21  22
ENDBRANCH  20  21
ENDBRANCH  19  20
ENDBRANCH   1  19
BRANCH  12  26
HETATM   26  O2  UNL     1      -8.116  18.633  36.745  1.00  0.00    -0.395 OA
ATOM     27  H2  UNL     1      -8.505  19.466  36.502  1.00  0.00     0.210 HD
ENDBRANCH  12  26
TORSDOF 6
ENDMDL
MODEL 3
REMARK VINA RESULT: -6.487410297      3.537      6.957
REMARK  6 active torsions:
REMARK  status: ('A' for Active; 'I' for Inactive)
REMARK    1  A    between atoms: C2_2  and  C3_3 
REMARK    2  A    between atoms: C4_4  and  C5_5 
REMARK    3  A    between atoms: C5_5  and  C6_6 
REMARK    4  A    between atoms: C6_6  and  C7_7 
REMARK    5  A    between atoms: C7_7  and  N1_8 
REMARK    6  A    between atoms: C17_19  and  O2_20 
ROOT
HETATM    1  N1  UNL     1      -9.238  15.901  40.564  1.00  0.00     0.112 N 
HETATM    2  C8  UNL     1      -9.353  15.908  42.015  1.00  0.00     0.300 C 
HETATM    3  C9  UNL     1      -9.719  14.535  42.512  1.00  0.00     0.199 C 
HETATM    4  O1  UNL     1     -10.063  13.606  41.609  1.00  0.00    -0.374 OA
HETATM    5  C10 UNL     1     -10.507  13.918  40.374  1.00  0.00     0.116 C 
HETATM    6  C11 UNL     1      -9.728  13.100  39.362  1.00  0.00     0.021 C 
HETATM    7  C12 UNL     1      -8.245  13.167  39.521  1.00  0.00     0.013 C 
HETATM    8  C13 UNL     1     -10.165  11.684  39.733  1.00  0.00     0.013 C 
HETATM    9  C14 UNL     1     -11.604  11.877  40.190  1.00  0.00     0.003 C 
HETATM   10  C15 UNL     1     -12.476  10.981  39.398  1.00  0.00     0.015 C 
HETATM   11  C16 UNL     1     -13.710  10.485  40.127  1.00  0.00     0.013 C 
HETATM   12  C17 UNL     1     -12.821  11.531  38.033  1.00  0.00     0.122 C 
HETATM   13  C18 UNL     1     -13.461  12.866  38.213  1.00  0.00     0.033 C 
HETATM   14  C19 UNL     1     -12.521  13.826  38.885  1.00  0.00     0.015 C 
HETATM   15  C20 UNL     1     -11.907  13.326  40.142  1.00  0.00    -0.005 C 
HETATM   16  C21 UNL     1     -12.854  13.637  41.279  1.00  0.00     0.019 C 
HETATM   17  C22 UNL     1     -10.478  15.384  40.013  1.00  0.00     0.353 C 
HETATM   18 CL1  UNL     1     -11.792  16.213  40.875  1.00  0.00    -0.089 Cl
ENDROOT
BRANCH   1  19
HETATM   19  C7  UNL     1      -8.819  17.164  40.043  1.00  0.00     0.275 C 
BRANCH  19  20
HETATM   20  C6  UNL     1      -8.433  17.199  38.612  1.00  0.00     0.034 C 
BRANCH  20  21
HETATM   21  C5  UNL     1      -7.189  16.377  38.388  1.00  0.00     0.028 C 
BRANCH  21  22
HETATM   22  C4  UNL     1      -7.234  15.645  37.062  1.00  0.00    -0.031 C 
HETATM   23  C3  UNL     1      -6.212  14.902  36.717  1.00  0.00    -0.031 C 
BRANCH  23  24
HETATM   24  C2  UNL     1      -6.154  14.151  35.459  1.00  0.00     0.022 C 
HETATM   25  C1  UNL     1      -5.029  13.164  35.418  1.00  0.00     0.009 C 
ENDBRANCH  23  24
ENDBRANCH  21  22
ENDBRANCH  20  21
ENDBRANCH  19  20
ENDBRANCH   1  19
BRANCH  12  26
HETATM   26  O2  UNL     1     -13.706  10.643  37.421  1.00  0.00    -0.395 OA
ATOM     27  H2  UNL     1     -14.015  10.035  38.083  1.00  0.00     0.210 HD
ENDBRANCH  12  26
TORSDOF 6
ENDMDL
MODEL 4
REMARK VINA RESULT: -6.480759035      2.643      4.826
REMARK  6 active torsions:
REMARK  status: ('A' for Active; 'I' for Inactive)
REMARK    1  A    between atoms: C2_2  and  C3_3 
REMARK    2  A    between atoms: C4_4  and  C5_5 
REMARK    3  A    between atoms: C5_5  and  C6_6 
REMARK    4  A    between atoms: C6_6  and  C7_7 
REMARK    5  A    between atoms: C7_7  and  N1_8 
REMARK    6  A    between atoms: C17_19  and  O2_20 
ROOT
HETATM    1  N1  UNL     1     -13.766  12.931  39.251  1.00  0.00     0.112 N 
HETATM    2  C8  UNL     1     -12.964  11.865  39.833  1.00  0.00     0.300 C 
HETATM    3  C9  UNL     1     -12.995  11.953  41.335  1.00  0.00     0.199 C 
HETATM    4  O1  UNL     1     -13.550  13.038  41.894  1.00  0.00    -0.374 OA
HETATM    5  C10 UNL     1     -13.687  14.208  41.236  1.00  0.00     0.116 C 
HETATM    6  C11 UNL     1     -15.116  14.688  41.400  1.00  0.00     0.021 C 
HETATM    7  C12 UNL     1     -16.154  13.668  41.068  1.00  0.00     0.013 C 
HETATM    8  C13 UNL     1     -15.173  14.925  42.909  1.00  0.00     0.013 C 
HETATM    9  C14 UNL     1     -13.761  15.389  43.237  1.00  0.00     0.003 C 
HETATM   10  C15 UNL     1     -13.841  16.695  43.928  1.00  0.00     0.015 C 
HETATM   11  C16 UNL     1     -12.735  16.955  44.932  1.00  0.00     0.013 C 
HETATM   12  C17 UNL     1     -14.021  17.864  42.985  1.00  0.00     0.122 C 
HETATM   13  C18 UNL     1     -12.897  17.853  42.006  1.00  0.00     0.033 C 
HETATM   14  C19 UNL     1     -12.902  16.588  41.196  1.00  0.00     0.015 C 
HETATM   15  C20 UNL     1     -12.962  15.335  41.991  1.00  0.00    -0.005 C 
HETATM   16  C21 UNL     1     -11.548  14.953  42.366  1.00  0.00     0.019 C 
HETATM   17  C22 UNL     1     -13.290  14.197  39.780  1.00  0.00     0.353 C 
HETATM   18 CL1  UNL     1     -11.518  14.151  39.668  1.00  0.00    -0.089 Cl
ENDROOT
BRANCH   1  19
HETATM   19  C7  UNL     1     -13.831  12.850  37.826  1.00  0.00     0.275 C 
BRANCH  19  20
HETATM   20  C6  UNL     1     -15.102  12.352  37.246  1.00  0.00     0.034 C 
BRANCH  20  21
HETATM   21  C5  UNL     1     -14.828  11.229  36.279  1.00  0.00     0.028 C 
BRANCH  21  22
HETATM   22  C4  UNL     1     -13.412  10.707  36.413  1.00  0.00    -0.031 C 
HETATM   23  C3  UNL     1     -13.206   9.415  36.351  1.00  0.00    -0.031 C 
BRANCH  23  24
HETATM   24  C2  UNL     1     -11.878   8.807  36.468  1.00  0.00     0.022 C 
HETATM   25  C1  UNL     1     -10.927   9.632  37.279  1.00  0.00     0.009 C 
ENDBRANCH  23  24
ENDBRANCH  21  22
ENDBRANCH  20  21
ENDBRANCH  19  20
ENDBRANCH   1  19
BRANCH  12  26
HETATM   26  O2  UNL     1     -14.000  19.036  43.741  1.00  0.00    -0.395 OA
ATOM     27  H2  UNL     1     -13.786  19.757  43.160  1.00  0.00     0.210 HD
ENDBRANCH  12  26
TORSDOF 6
ENDMDL
MODEL 5
REMARK VINA RESULT: -6.415954904      2.027      2.790
REMARK  6 active torsions:
REMARK  status: ('A' for Active; 'I' for Inactive)
REMARK    1  A    between atoms: C2_2  and  C3_3 
REMARK    2  A    between atoms: C4_4  and  C5_5 
REMARK    3  A    between atoms: C5_5  and  C6_6 
REMARK    4  A    between atoms: C6_6  and  C7_7 
REMARK    5  A    between atoms: C7_7  and  N1_8 
REMARK    6  A    between atoms: C17_19  and  O2_20 
ROOT
HETATM    1  N1  UNL     1     -11.913  15.429  42.341  1.00  0.00     0.112 N 
HETATM    2  C8  UNL     1     -11.150  15.423  43.581  1.00  0.00     0.300 C 
HETATM    3  C9  UNL     1     -10.201  16.590  43.611  1.00  0.00     0.199 C 
HETATM    4  O1  UNL     1     -10.050  17.312  42.492  1.00  0.00    -0.374 OA
HETATM    5  C10 UNL     1     -10.345  16.829  41.267  1.00  0.00     0.116 C 
HETATM    6  C11 UNL     1     -11.215  17.841  40.546  1.00  0.00     0.021 C 
HETATM    7  C12 UNL     1     -12.398  18.307  41.328  1.00  0.00     0.013 C 
HETATM    8  C13 UNL     1     -10.252  19.022  40.427  1.00  0.00     0.013 C 
HETATM    9  C14 UNL     1      -8.898  18.345  40.259  1.00  0.00     0.003 C 
HETATM   10  C15 UNL     1      -8.266  18.852  39.021  1.00  0.00     0.015 C 
HETATM   11  C16 UNL     1      -6.751  18.901  39.052  1.00  0.00     0.013 C 
HETATM   12  C17 UNL     1      -8.775  18.178  37.766  1.00  0.00     0.122 C 
HETATM   13  C18 UNL     1      -8.560  16.709  37.904  1.00  0.00     0.033 C 
HETATM   14  C19 UNL     1      -9.324  16.162  39.077  1.00  0.00     0.015 C 
HETATM   15  C20 UNL     1      -9.105  16.882  40.358  1.00  0.00    -0.005 C 
HETATM   16  C21 UNL     1      -7.884  16.288  41.023  1.00  0.00     0.019 C 
HETATM   17  C22 UNL     1     -10.977  15.459  41.232  1.00  0.00     0.353 C 
HETATM   18 CL1  UNL     1      -9.734  14.243  41.594  1.00  0.00    -0.089 Cl
ENDROOT
BRANCH   1  19
HETATM   19  C7  UNL     1     -12.884  14.382  42.293  1.00  0.00     0.275 C 
BRANCH  19  20
HETATM   20  C6  UNL     1     -13.574  14.174  40.997  1.00  0.00     0.034 C 
BRANCH  20  21
HETATM   21  C5  UNL     1     -13.319  12.778  40.489  1.00  0.00     0.028 C 
BRANCH  21  22
HETATM   22  C4  UNL     1     -13.576  12.668  39.000  1.00  0.00    -0.031 C 
HETATM   23  C3  UNL     1     -14.807  12.501  38.583  1.00  0.00    -0.031 C 
BRANCH  23  24
HETATM   24  C2  UNL     1     -15.165  12.385  37.167  1.00  0.00     0.022 C 
HETATM   25  C1  UNL     1     -14.496  11.231  36.487  1.00  0.00     0.009 C 
ENDBRANCH  23  24
ENDBRANCH  21  22
ENDBRANCH  20  21
ENDBRANCH  19  20
ENDBRANCH   1  19
BRANCH  12  26
HETATM   26  O2  UNL     1      -8.051  18.679  36.684  1.00  0.00    -0.395 OA
ATOM     27  H2  UNL     1      -8.566  19.367  36.280  1.00  0.00     0.210 HD
ENDBRANCH  12  26
TORSDOF 6
ENDMDL
