MODEL 1
REMARK VINA RESULT: -7.784674895      0.000      0.000
REMARK  7 active torsions:
REMARK  status: ('A' for Active; 'I' for Inactive)
REMARK    1  A    between atoms: O1_2  and  C2_3 
REMARK    2  A    between atoms: C2_3  and  C3_5 
REMARK    3  A    between atoms: C3_5  and  C4_6 
REMARK    4  A    between atoms: C14_16  and  O3_17 
REMARK    5  A    between atoms: C14_16  and  C15_19 
REMARK    6  A    between atoms: C15_19  and  C16_20 
REMARK    7  A    between atoms: C16_20  and  C18_22 
ROOT
HETATM    1  C4  UNL     1      -8.233  14.292  38.949  1.00  0.00     0.004 C 
HETATM    2  C5  UNL     1      -8.166  12.923  39.555  1.00  0.00     0.012 C 
HETATM    3  C6  UNL     1      -9.450  13.247  40.292  1.00  0.00     0.003 C 
HETATM    4  C7  UNL     1     -10.708  12.983  39.492  1.00  0.00     0.020 C 
HETATM    5  C8  UNL     1     -11.120  11.550  39.434  1.00  0.00     0.022 C 
HETATM    6  C9  UNL     1     -12.568  11.571  39.768  1.00  0.00    -0.005 C 
HETATM    7  C10 UNL     1     -12.871  10.295  40.521  1.00  0.00     0.019 C 
HETATM    8  C11 UNL     1     -12.807  12.795  40.615  1.00  0.00     0.026 C 
HETATM    9  C12 UNL     1     -14.161  13.327  40.203  1.00  0.00     0.013 C 
HETATM   10  C13 UNL     1     -14.122  13.108  38.708  1.00  0.00     0.039 C 
HETATM   11  C14 UNL     1     -13.523  11.729  38.619  1.00  0.00     0.066 C 
HETATM   12  C19 UNL     1     -11.781  13.753  40.180  1.00  0.00    -0.074 C 
HETATM   13  C20 UNL     1     -11.562  15.064  40.239  1.00  0.00    -0.022 C 
HETATM   14  C21 UNL     1     -10.294  15.536  39.614  1.00  0.00     0.037 C 
HETATM   15  C22 UNL     1      -9.110  14.714  40.099  1.00  0.00    -0.033 C 
HETATM   16  C23 UNL     1      -8.378  15.333  41.271  1.00  0.00     0.016 C 
ENDROOT
BRANCH  11  17
HETATM   17  O3  UNL     1     -14.569  10.807  38.886  1.00  0.00    -0.389 OA
ATOM     18  H3  UNL     1     -15.051  10.742  38.070  1.00  0.00     0.210 HD
ENDBRANCH  11  17
BRANCH  11  19
HETATM   19  C15 UNL     1     -12.959  11.434  37.294  1.00  0.00     0.045 C 
BRANCH  19  20
HETATM   20  C16 UNL     1     -12.965   9.982  36.965  1.00  0.00     0.013 C 
HETATM   21  C17 UNL     1     -13.930   9.684  35.810  1.00  0.00     0.012 C 
BRANCH  20  22
HETATM   22  C18 UNL     1     -11.662   9.339  36.674  1.00  0.00     0.226 C 
HETATM   23  F1  UNL     1     -11.750   8.249  35.837  1.00  0.00    -0.255 F 
ENDBRANCH  20  22
ENDBRANCH  19  20
ENDBRANCH  11  19
BRANCH   1  24
HETATM   24  C3  UNL     1      -6.916  15.017  38.834  1.00  0.00     0.116 C 
BRANCH  24  25
HETATM   25  C2  UNL     1      -6.885  15.686  37.506  1.00  0.00     0.258 C 
HETATM   26  O2  UNL     1      -6.863  16.948  37.378  1.00  0.00    -0.265 OA
BRANCH  25  27
HETATM   27  O1  UNL     1      -6.878  14.961  36.306  1.00  0.00    -0.326 OA
HETATM   28  C1  UNL     1      -5.748  14.226  35.886  1.00  0.00     0.213 C 
ENDBRANCH  25  27
ENDBRANCH  24  25
ENDBRANCH   1  24
TORSDOF 7
ENDMDL
MODEL 2
REMARK VINA RESULT: -7.660453411      0.499      1.099
REMARK  7 active torsions:
REMARK  status: ('A' for Active; 'I' for Inactive)
REMARK    1  A    between atoms: O1_2  and  C2_3 
REMARK    2  A    between atoms: C2_3  and  C3_5 
REMARK    3  A    between atoms: C3_5  and  C4_6 
REMARK    4  A    between atoms: C14_16  and  O3_17 
REMARK    5  A    between atoms: C14_16  and  C15_19 
REMARK    6  A    between atoms: C15_19  and  C16_20 
REMARK    7  A    between atoms: C16_20  and  C18_22 
ROOT
HETATM    1  C4  UNL     1      -8.340  14.305  38.979  1.00  0.00     0.004 C 
HETATM    2  C5  UNL     1      -8.260  12.922  39.551  1.00  0.00     0.012 C 
HETATM    3  C6  UNL     1      -9.539  13.222  40.309  1.00  0.00     0.003 C 
HETATM    4  C7  UNL     1     -10.803  12.971  39.515  1.00  0.00     0.020 C 
HETATM    5  C8  UNL     1     -11.209  11.538  39.427  1.00  0.00     0.022 C 
HETATM    6  C9  UNL     1     -12.653  11.543  39.776  1.00  0.00    -0.005 C 
HETATM    7  C10 UNL     1     -12.942  10.248  40.502  1.00  0.00     0.019 C 
HETATM    8  C11 UNL     1     -12.890  12.745  40.655  1.00  0.00     0.026 C 
HETATM    9  C12 UNL     1     -14.251  13.280  40.269  1.00  0.00     0.013 C 
HETATM   10  C13 UNL     1     -14.226  13.097  38.769  1.00  0.00     0.039 C 
HETATM   11  C14 UNL     1     -13.621  11.723  38.641  1.00  0.00     0.066 C 
HETATM   12  C19 UNL     1     -11.873  13.718  40.233  1.00  0.00    -0.074 C 
HETATM   13  C20 UNL     1     -11.659  15.029  40.321  1.00  0.00    -0.022 C 
HETATM   14  C21 UNL     1     -10.400  15.522  39.695  1.00  0.00     0.037 C 
HETATM   15  C22 UNL     1      -9.207  14.695  40.148  1.00  0.00    -0.033 C 
HETATM   16  C23 UNL     1      -8.467  15.290  41.327  1.00  0.00     0.016 C 
ENDROOT
BRANCH  11  17
HETATM   17  O3  UNL     1     -14.660  10.790  38.896  1.00  0.00    -0.389 OA
ATOM     18  H3  UNL     1     -14.410  10.362  39.706  1.00  0.00     0.210 HD
ENDBRANCH  11  17
BRANCH  11  19
HETATM   19  C15 UNL     1     -13.068  11.463  37.304  1.00  0.00     0.045 C 
BRANCH  19  20
HETATM   20  C16 UNL     1     -13.068  10.019  36.941  1.00  0.00     0.013 C 
HETATM   21  C17 UNL     1     -14.054   9.739  35.799  1.00  0.00     0.012 C 
BRANCH  20  22
HETATM   22  C18 UNL     1     -11.765   9.396  36.609  1.00  0.00     0.226 C 
HETATM   23  F1  UNL     1     -11.872   8.231  35.883  1.00  0.00    -0.255 F 
ENDBRANCH  20  22
ENDBRANCH  19  20
ENDBRANCH  11  19
BRANCH   1  24
HETATM   24  C3  UNL     1      -7.028  15.039  38.868  1.00  0.00     0.116 C 
BRANCH  24  25
HETATM   25  C2  UNL     1      -6.985  15.684  37.529  1.00  0.00     0.258 C 
HETATM   26  O2  UNL     1      -6.963  15.016  36.450  1.00  0.00    -0.265 OA
BRANCH  25  27
HETATM   27  O1  UNL     1      -6.967  17.077  37.373  1.00  0.00    -0.326 OA
HETATM   28  C1  UNL     1      -8.086  17.878  37.691  1.00  0.00     0.213 C 
ENDBRANCH  25  27
ENDBRANCH  24  25
ENDBRANCH   1  24
TORSDOF 7
ENDMDL
MODEL 3
REMARK VINA RESULT: -7.570851307      3.673      6.664
REMARK  7 active torsions:
REMARK  status: ('A' for Active; 'I' for Inactive)
REMARK    1  A    between atoms: O1_2  and  C2_3 
REMARK    2  A    between atoms: C2_3  and  C3_5 
REMARK    3  A    between atoms: C3_5  and  C4_6 
REMARK    4  A    between atoms: C14_16  and  O3_17 
REMARK    5  A    between atoms: C14_16  and  C15_19 
REMARK    6  A    between atoms: C15_19  and  C16_20 
REMARK    7  A    between atoms: C16_20  and  C18_22 
ROOT
HETATM    1  C4  UNL     1     -12.821  11.511  39.327  1.00  0.00     0.004 C 
HETATM    2  C5  UNL     1     -12.134  12.647  38.632  1.00  0.00     0.012 C 
HETATM    3  C6  UNL     1     -13.174  13.571  39.235  1.00  0.00     0.003 C 
HETATM    4  C7  UNL     1     -12.845  14.046  40.634  1.00  0.00     0.020 C 
HETATM    5  C8  UNL     1     -11.846  15.152  40.698  1.00  0.00     0.022 C 
HETATM    6  C9  UNL     1     -12.462  16.150  41.610  1.00  0.00    -0.005 C 
HETATM    7  C10 UNL     1     -12.036  17.519  41.128  1.00  0.00     0.019 C 
HETATM    8  C11 UNL     1     -13.955  15.964  41.524  1.00  0.00     0.026 C 
HETATM    9  C12 UNL     1     -14.484  16.197  42.922  1.00  0.00     0.013 C 
HETATM   10  C13 UNL     1     -13.416  15.532  43.757  1.00  0.00     0.039 C 
HETATM   11  C14 UNL     1     -12.159  16.004  43.074  1.00  0.00     0.066 C 
HETATM   12  C19 UNL     1     -14.133  14.543  41.194  1.00  0.00    -0.074 C 
HETATM   13  C20 UNL     1     -15.094  13.625  41.253  1.00  0.00    -0.022 C 
HETATM   14  C21 UNL     1     -14.725  12.270  40.755  1.00  0.00     0.037 C 
HETATM   15  C22 UNL     1     -14.069  12.354  39.385  1.00  0.00    -0.033 C 
HETATM   16  C23 UNL     1     -15.032  12.154  38.235  1.00  0.00     0.016 C 
ENDROOT
BRANCH  11  17
HETATM   17  O3  UNL     1     -11.914  17.325  43.530  1.00  0.00    -0.389 OA
ATOM     18  H3  UNL     1     -12.653  17.531  44.091  1.00  0.00     0.210 HD
ENDBRANCH  11  17
BRANCH  11  19
HETATM   19  C15 UNL     1     -10.989  15.170  43.388  1.00  0.00     0.045 C 
BRANCH  19  20
HETATM   20  C16 UNL     1      -9.705  15.923  43.344  1.00  0.00     0.013 C 
HETATM   21  C17 UNL     1      -9.139  16.127  44.757  1.00  0.00     0.012 C 
BRANCH  20  22
HETATM   22  C18 UNL     1      -8.630  15.395  42.472  1.00  0.00     0.226 C 
HETATM   23  F1  UNL     1      -8.954  14.218  41.835  1.00  0.00    -0.255 F 
ENDBRANCH  20  22
ENDBRANCH  19  20
ENDBRANCH  11  19
BRANCH   1  24
HETATM   24  C3  UNL     1     -12.934  10.235  38.532  1.00  0.00     0.116 C 
BRANCH  24  25
HETATM   25  C2  UNL     1     -11.917  10.289  37.448  1.00  0.00     0.258 C 
HETATM   26  O2  UNL     1     -12.222  10.518  36.238  1.00  0.00    -0.265 OA
BRANCH  25  27
HETATM   27  O1  UNL     1     -10.552  10.089  37.696  1.00  0.00    -0.326 OA
HETATM   28  C1  UNL     1     -10.089   9.526  38.905  1.00  0.00     0.213 C 
ENDBRANCH  25  27
ENDBRANCH  24  25
ENDBRANCH   1  24
TORSDOF 7
ENDMDL
MODEL 4
REMARK VINA RESULT: -7.474259910      4.139      7.046
REMARK  7 active torsions:
REMARK  status: ('A' for Active; 'I' for Inactive)
REMARK    1  A    between atoms: O1_2  and  C2_3 
REMARK    2  A    between atoms: C2_3  and  C3_5 
REMARK    3  A    between atoms: C3_5  and  C4_6 
REMARK    4  A    between atoms: C14_16  and  O3_17 
REMARK    5  A    between atoms: C14_16  and  C15_19 
REMARK    6  A    between atoms: C15_19  and  C16_20 
REMARK    7  A    between atoms: C16_20  and  C18_22 
ROOT
HETATM    1  C4  UNL     1     -13.034  11.555  40.114  1.00  0.00     0.004 C 
HETATM    2  C5  UNL     1     -12.481  12.814  39.519  1.00  0.00     0.012 C 
HETATM    3  C6  UNL     1     -13.830  13.459  39.771  1.00  0.00     0.003 C 
HETATM    4  C7  UNL     1     -13.996  14.026  41.164  1.00  0.00     0.020 C 
HETATM    5  C8  UNL     1     -13.339  15.348  41.382  1.00  0.00     0.022 C 
HETATM    6  C9  UNL     1     -14.389  16.176  42.030  1.00  0.00    -0.005 C 
HETATM    7  C10 UNL     1     -14.189  17.600  41.558  1.00  0.00     0.019 C 
HETATM    8  C11 UNL     1     -15.720  15.621  41.595  1.00  0.00     0.026 C 
HETATM    9  C12 UNL     1     -16.632  15.740  42.796  1.00  0.00     0.013 C 
HETATM   10  C13 UNL     1     -15.690  15.378  43.920  1.00  0.00     0.039 C 
HETATM   11  C14 UNL     1     -14.448  16.137  43.531  1.00  0.00     0.066 C 
HETATM   12  C19 UNL     1     -15.464  14.195  41.348  1.00  0.00    -0.074 C 
HETATM   13  C20 UNL     1     -16.162  13.067  41.243  1.00  0.00    -0.022 C 
HETATM   14  C21 UNL     1     -15.366  11.839  40.963  1.00  0.00     0.037 C 
HETATM   15  C22 UNL     1     -14.418  12.060  39.795  1.00  0.00    -0.033 C 
HETATM   16  C23 UNL     1     -14.975  11.605  38.463  1.00  0.00     0.016 C 
ENDROOT
BRANCH  11  17
HETATM   17  O3  UNL     1     -14.650  17.486  43.924  1.00  0.00    -0.389 OA
ATOM     18  H3  UNL     1     -13.947  17.969  43.506  1.00  0.00     0.210 HD
ENDBRANCH  11  17
BRANCH  11  19
HETATM   19  C15 UNL     1     -13.236  15.628  44.190  1.00  0.00     0.045 C 
BRANCH  19  20
HETATM   20  C16 UNL     1     -12.134  16.629  44.242  1.00  0.00     0.013 C 
HETATM   21  C17 UNL     1     -12.086  17.321  45.611  1.00  0.00     0.012 C 
BRANCH  20  22
HETATM   22  C18 UNL     1     -10.770  16.165  43.895  1.00  0.00     0.226 C 
HETATM   23  F1  UNL     1     -10.708  14.842  43.520  1.00  0.00    -0.255 F 
ENDBRANCH  20  22
ENDBRANCH  19  20
ENDBRANCH  11  19
BRANCH   1  24
HETATM   24  C3  UNL     1     -12.632  10.277  39.423  1.00  0.00     0.116 C 
BRANCH  24  25
HETATM   25  C2  UNL     1     -11.247  10.459  38.912  1.00  0.00     0.258 C 
HETATM   26  O2  UNL     1     -10.251  10.615  39.682  1.00  0.00    -0.265 OA
BRANCH  25  27
HETATM   27  O1  UNL     1     -10.953  10.469  37.542  1.00  0.00    -0.326 OA
HETATM   28  C1  UNL     1     -11.913  10.104  36.571  1.00  0.00     0.213 C 
ENDBRANCH  25  27
ENDBRANCH  24  25
ENDBRANCH   1  24
TORSDOF 7
ENDMDL
MODEL 5
REMARK VINA RESULT: -7.427502158      3.064      4.847
REMARK  7 active torsions:
REMARK  status: ('A' for Active; 'I' for Inactive)
REMARK    1  A    between atoms: O1_2  and  C2_3 
REMARK    2  A    between atoms: C2_3  and  C3_5 
REMARK    3  A    between atoms: C3_5  and  C4_6 
REMARK    4  A    between atoms: C14_16  and  O3_17 
REMARK    5  A    between atoms: C14_16  and  C15_19 
REMARK    6  A    between atoms: C15_19  and  C16_20 
REMARK    7  A    between atoms: C16_20  and  C18_22 
ROOT
HETATM    1  C4  UNL     1      -9.837  14.907  41.035  1.00  0.00     0.004 C 
HETATM    2  C5  UNL     1     -10.706  15.665  40.077  1.00  0.00     0.012 C 
HETATM    3  C6  UNL     1     -10.792  14.402  39.242  1.00  0.00     0.003 C 
HETATM    4  C7  UNL     1     -11.875  13.441  39.682  1.00  0.00     0.020 C 
HETATM    5  C8  UNL     1     -13.252  13.808  39.239  1.00  0.00     0.022 C 
HETATM    6  C9  UNL     1     -13.800  12.553  38.663  1.00  0.00    -0.005 C 
HETATM    7  C10 UNL     1     -14.716  12.947  37.526  1.00  0.00     0.019 C 
HETATM    8  C11 UNL     1     -12.626  11.739  38.183  1.00  0.00     0.026 C 
HETATM    9  C12 UNL     1     -12.974  10.297  38.475  1.00  0.00     0.013 C 
HETATM   10  C13 UNL     1     -13.652  10.422  39.819  1.00  0.00     0.039 C 
HETATM   11  C14 UNL     1     -14.520  11.635  39.609  1.00  0.00     0.066 C 
HETATM   12  C19 UNL     1     -11.517  12.134  39.063  1.00  0.00    -0.074 C 
HETATM   13  C20 UNL     1     -10.329  11.661  39.433  1.00  0.00    -0.022 C 
HETATM   14  C21 UNL     1      -9.567  12.508  40.393  1.00  0.00     0.037 C 
HETATM   15  C22 UNL     1      -9.508  13.952  39.917  1.00  0.00    -0.033 C 
HETATM   16  C23 UNL     1      -8.255  14.285  39.136  1.00  0.00     0.016 C 
ENDROOT
BRANCH  11  17
HETATM   17  O3  UNL     1     -15.667  11.202  38.894  1.00  0.00    -0.389 OA
ATOM     18  H3  UNL     1     -16.107  12.002  38.631  1.00  0.00     0.210 HD
ENDBRANCH  11  17
BRANCH  11  19
HETATM   19  C15 UNL     1     -14.953  12.254  40.870  1.00  0.00     0.045 C 
BRANCH  19  20
HETATM   20  C16 UNL     1     -16.366  12.724  40.836  1.00  0.00     0.013 C 
HETATM   21  C17 UNL     1     -17.282  11.765  41.608  1.00  0.00     0.012 C 
BRANCH  20  22
HETATM   22  C18 UNL     1     -16.639  14.109  41.287  1.00  0.00     0.226 C 
HETATM   23  F1  UNL     1     -15.521  14.911  41.338  1.00  0.00    -0.255 F 
ENDBRANCH  20  22
ENDBRANCH  19  20
ENDBRANCH  11  19
BRANCH   1  24
HETATM   24  C3  UNL     1      -8.670  15.675  41.600  1.00  0.00     0.116 C 
BRANCH  24  25
HETATM   25  C2  UNL     1      -8.694  15.508  43.077  1.00  0.00     0.258 C 
HETATM   26  O2  UNL     1      -9.614  14.871  43.677  1.00  0.00    -0.265 OA
BRANCH  25  27
HETATM   27  O1  UNL     1      -7.699  16.046  43.905  1.00  0.00    -0.326 OA
HETATM   28  C1  UNL     1      -7.949  17.149  44.751  1.00  0.00     0.213 C 
ENDBRANCH  25  27
ENDBRANCH  24  25
ENDBRANCH   1  24
TORSDOF 7
ENDMDL
