MODEL 1
REMARK VINA RESULT: -8.107442710      0.000      0.000
REMARK  10 active torsions:
REMARK  status: ('A' for Active; 'I' for Inactive)
REMARK    1  A    between atoms: C1_2  and  C2_4 
REMARK    2  A    between atoms: C2_4  and  C3_5 
REMARK    3  A    between atoms: C3_5  and  C4_6 
REMARK    4  A    between atoms: C4_6  and  N1_7 
REMARK    5  A    between atoms: C4_6  and  N2_16 
REMARK    6  A    between atoms: N1_7  and  C5_9 
REMARK    7  A    between atoms: N2_16  and  C11_18 
REMARK    8  A    between atoms: C12_23  and  S1_24 
REMARK    9  A    between atoms: S1_24  and  C13_25 
REMARK   10  A    between atoms: C13_25  and  C14_26 
ROOT
HETATM    1  N2  UNL     1      23.177  15.040  29.344  1.00  0.00    -0.325 N 
ATOM      2  H2  UNL     1      23.564  15.652  28.626  1.00  0.00     0.169 HD
ENDROOT
BRANCH   1   3
HETATM    3  C4  UNL     1      22.204  15.595  30.169  1.00  0.00     0.084 C 
BRANCH   3   4
HETATM    4  C3  UNL     1      22.527  16.645  31.200  1.00  0.00     0.087 C 
BRANCH   4   5
HETATM    5  C2  UNL     1      23.761  16.247  31.984  1.00  0.00     0.120 C 
BRANCH   5   6
HETATM    6  C1  UNL     1      24.960  17.038  31.633  1.00  0.00     0.172 C 
HETATM    7  O1  UNL     1      25.597  16.679  30.605  1.00  0.00    -0.648 OA
HETATM    8  O2  UNL     1      25.385  18.112  32.369  1.00  0.00    -0.648 OA
ENDBRANCH   5   6
ENDBRANCH   4   5
ENDBRANCH   3   4
BRANCH   3   9
HETATM    9  N1  UNL     1      20.975  15.219  30.057  1.00  0.00    -0.346 N 
ATOM     10  H1  UNL     1      20.467  15.353  29.182  1.00  0.00     0.167 HD
BRANCH   9  11
HETATM   11  C5  UNL     1      20.339  14.608  31.184  1.00  0.00     0.033 A 
HETATM   12  C6  UNL     1      19.072  15.015  31.545  1.00  0.00     0.032 A 
HETATM   13  C7  UNL     1      18.426  14.463  32.612  1.00  0.00     0.044 A 
HETATM   14  C8  UNL     1      19.072  13.475  33.333  1.00  0.00     0.116 A 
HETATM   15  F1  UNL     1      18.406  12.941  34.390  1.00  0.00    -0.206 F 
HETATM   16  C9  UNL     1      20.344  13.059  32.976  1.00  0.00     0.044 A 
HETATM   17  C10 UNL     1      20.967  13.631  31.903  1.00  0.00     0.032 A 
ENDBRANCH   9  11
ENDBRANCH   3   9
ENDBRANCH   1   3
BRANCH   1  18
HETATM   18  C11 UNL     1      23.644  13.837  29.384  1.00  0.00     0.167 A 
HETATM   19  N3  UNL     1      23.116  12.772  28.772  1.00  0.00    -0.278 N 
HETATM   20  N4  UNL     1      23.692  11.649  28.909  1.00  0.00    -0.286 N 
ATOM     21  H3  UNL     1      22.271  12.859  28.208  1.00  0.00     0.189 HD
HETATM   22  C12 UNL     1      24.784  11.532  29.635  1.00  0.00     0.130 A 
ATOM     23  H4  UNL     1      23.304  10.826  28.448  1.00  0.00     0.188 HD
HETATM   24  S2  UNL     1      25.004  13.144  30.162  1.00  0.00    -0.026 SA
BRANCH  22  25
HETATM   25  S1  UNL     1      25.780  10.061  29.982  1.00  0.00    -0.099 SA
BRANCH  25  26
HETATM   26  C13 UNL     1      25.443   9.542  31.687  1.00  0.00     0.120 C 
BRANCH  26  27
HETATM   27  C14 UNL     1      23.994   9.216  31.777  1.00  0.00    -0.048 A 
HETATM   28  C15 UNL     1      23.034  10.153  32.106  1.00  0.00     0.009 A 
HETATM   29  C16 UNL     1      21.710   9.821  32.180  1.00  0.00     0.019 A 
HETATM   30  C17 UNL     1      21.282   8.541  31.930  1.00  0.00     0.011 A 
HETATM   31 BR1  UNL     1      19.438   8.082  32.033  1.00  0.00    -0.051 Br
HETATM   32  C18 UNL     1      22.251   7.597  31.598  1.00  0.00     0.019 A 
HETATM   33  C19 UNL     1      23.588   7.905  31.516  1.00  0.00     0.009 A 
ENDBRANCH  26  27
ENDBRANCH  25  26
ENDBRANCH  22  25
ENDBRANCH   1  18
TORSDOF 10
ENDMDL
MODEL 2
REMARK VINA RESULT: -8.027136405      3.689      6.816
REMARK  10 active torsions:
REMARK  status: ('A' for Active; 'I' for Inactive)
REMARK    1  A    between atoms: C1_2  and  C2_4 
REMARK    2  A    between atoms: C2_4  and  C3_5 
REMARK    3  A    between atoms: C3_5  and  C4_6 
REMARK    4  A    between atoms: C4_6  and  N1_7 
REMARK    5  A    between atoms: C4_6  and  N2_16 
REMARK    6  A    between atoms: N1_7  and  C5_9 
REMARK    7  A    between atoms: N2_16  and  C11_18 
REMARK    8  A    between atoms: C12_23  and  S1_24 
REMARK    9  A    between atoms: S1_24  and  C13_25 
REMARK   10  A    between atoms: C13_25  and  C14_26 
ROOT
HETATM    1  N2  UNL     1      24.482  10.938  29.913  1.00  0.00    -0.325 N 
ATOM      2  H2  UNL     1      25.460  11.073  29.659  1.00  0.00     0.169 HD
ENDROOT
BRANCH   1   3
HETATM    3  C4  UNL     1      24.095   9.635  30.211  1.00  0.00     0.084 C 
BRANCH   3   4
HETATM    4  C3  UNL     1      23.922   8.583  29.146  1.00  0.00     0.087 C 
BRANCH   4   5
HETATM    5  C2  UNL     1      25.222   7.833  28.936  1.00  0.00     0.120 C 
BRANCH   5   6
HETATM    6  C1  UNL     1      25.362   6.645  29.806  1.00  0.00     0.172 C 
HETATM    7  O1  UNL     1      25.063   5.530  29.298  1.00  0.00    -0.648 OA
HETATM    8  O2  UNL     1      25.791   6.720  31.105  1.00  0.00    -0.648 OA
ENDBRANCH   5   6
ENDBRANCH   4   5
ENDBRANCH   3   4
BRANCH   3   9
HETATM    9  N1  UNL     1      23.882   9.293  31.436  1.00  0.00    -0.346 N 
ATOM     10  H1  UNL     1      24.620   9.375  32.136  1.00  0.00     0.167 HD
BRANCH   9  11
HETATM   11  C5  UNL     1      22.589   8.795  31.795  1.00  0.00     0.033 A 
HETATM   12  C6  UNL     1      21.515   9.660  31.812  1.00  0.00     0.032 A 
HETATM   13  C7  UNL     1      20.264   9.233  32.147  1.00  0.00     0.044 A 
HETATM   14  C8  UNL     1      20.090   7.900  32.472  1.00  0.00     0.116 A 
HETATM   15  F1  UNL     1      18.834   7.500  32.802  1.00  0.00    -0.206 F 
HETATM   16  C9  UNL     1      21.162   7.024  32.457  1.00  0.00     0.044 A 
HETATM   17  C10 UNL     1      22.405   7.481  32.117  1.00  0.00     0.032 A 
ENDBRANCH   9  11
ENDBRANCH   3   9
ENDBRANCH   1   3
BRANCH   1  18
HETATM   18  C11 UNL     1      23.740  11.995  29.921  1.00  0.00     0.167 A 
HETATM   19  N3  UNL     1      23.204  12.584  28.847  1.00  0.00    -0.278 N 
HETATM   20  N4  UNL     1      22.496  13.623  29.018  1.00  0.00    -0.286 N 
ATOM     21  H3  UNL     1      23.360  12.206  27.913  1.00  0.00     0.189 HD
HETATM   22  C12 UNL     1      22.292  14.113  30.223  1.00  0.00     0.130 A 
ATOM     23  H4  UNL     1      22.079  14.086  28.210  1.00  0.00     0.188 HD
HETATM   24  S2  UNL     1      23.176  13.008  31.183  1.00  0.00    -0.026 SA
BRANCH  22  25
HETATM   25  S1  UNL     1      21.334  15.565  30.724  1.00  0.00    -0.099 SA
BRANCH  25  26
HETATM   26  C13 UNL     1      19.574  15.134  30.646  1.00  0.00     0.120 C 
BRANCH  26  27
HETATM   27  C14 UNL     1      19.197  14.555  31.964  1.00  0.00    -0.048 A 
HETATM   28  C15 UNL     1      19.676  13.340  32.414  1.00  0.00     0.009 A 
HETATM   29  C16 UNL     1      19.309  12.837  33.631  1.00  0.00     0.019 A 
HETATM   30  C17 UNL     1      18.450  13.520  34.455  1.00  0.00     0.011 A 
HETATM   31 BR1  UNL     1      17.943  12.817  36.149  1.00  0.00    -0.051 Br
HETATM   32  C18 UNL     1      17.969  14.745  34.000  1.00  0.00     0.019 A 
HETATM   33  C19 UNL     1      18.322  15.273  32.781  1.00  0.00     0.009 A 
ENDBRANCH  26  27
ENDBRANCH  25  26
ENDBRANCH  22  25
ENDBRANCH   1  18
TORSDOF 10
ENDMDL
MODEL 3
REMARK VINA RESULT: -8.018511488      0.185      1.264
REMARK  10 active torsions:
REMARK  status: ('A' for Active; 'I' for Inactive)
REMARK    1  A    between atoms: C1_2  and  C2_4 
REMARK    2  A    between atoms: C2_4  and  C3_5 
REMARK    3  A    between atoms: C3_5  and  C4_6 
REMARK    4  A    between atoms: C4_6  and  N1_7 
REMARK    5  A    between atoms: C4_6  and  N2_16 
REMARK    6  A    between atoms: N1_7  and  C5_9 
REMARK    7  A    between atoms: N2_16  and  C11_18 
REMARK    8  A    between atoms: C12_23  and  S1_24 
REMARK    9  A    between atoms: S1_24  and  C13_25 
REMARK   10  A    between atoms: C13_25  and  C14_26 
ROOT
HETATM    1  N2  UNL     1      23.132  15.061  29.341  1.00  0.00    -0.325 N 
ATOM      2  H2  UNL     1      23.519  15.689  28.637  1.00  0.00     0.169 HD
ENDROOT
BRANCH   1   3
HETATM    3  C4  UNL     1      22.175  15.604  30.193  1.00  0.00     0.084 C 
BRANCH   3   4
HETATM    4  C3  UNL     1      22.517  16.642  31.230  1.00  0.00     0.087 C 
BRANCH   4   5
HETATM    5  C2  UNL     1      23.767  16.237  31.984  1.00  0.00     0.120 C 
BRANCH   5   6
HETATM    6  C1  UNL     1      24.958  17.032  31.616  1.00  0.00     0.172 C 
HETATM    7  O1  UNL     1      25.589  16.668  30.586  1.00  0.00    -0.648 OA
HETATM    8  O2  UNL     1      25.382  18.115  32.339  1.00  0.00    -0.648 OA
ENDBRANCH   5   6
ENDBRANCH   4   5
ENDBRANCH   3   4
BRANCH   3   9
HETATM    9  N1  UNL     1      20.945  15.226  30.101  1.00  0.00    -0.346 N 
ATOM     10  H1  UNL     1      20.420  15.367  29.238  1.00  0.00     0.167 HD
BRANCH   9  11
HETATM   11  C5  UNL     1      20.332  14.605  31.235  1.00  0.00     0.033 A 
HETATM   12  C6  UNL     1      21.013  13.615  31.911  1.00  0.00     0.032 A 
HETATM   13  C7  UNL     1      20.470  12.994  32.998  1.00  0.00     0.044 A 
HETATM   14  C8  UNL     1      19.209  13.380  33.414  1.00  0.00     0.116 A 
HETATM   15  F1  UNL     1      18.690  12.746  34.498  1.00  0.00    -0.206 F 
HETATM   16  C9  UNL     1      18.518  14.375  32.742  1.00  0.00     0.044 A 
HETATM   17  C10 UNL     1      19.087  14.979  31.656  1.00  0.00     0.032 A 
ENDBRANCH   9  11
ENDBRANCH   3   9
ENDBRANCH   1   3
BRANCH   1  18
HETATM   18  C11 UNL     1      23.584  13.851  29.342  1.00  0.00     0.167 A 
HETATM   19  N3  UNL     1      22.954  12.780  28.851  1.00  0.00    -0.278 N 
HETATM   20  N4  UNL     1      23.530  11.652  28.928  1.00  0.00    -0.286 N 
ATOM     21  H3  UNL     1      22.031  12.867  28.425  1.00  0.00     0.189 HD
HETATM   22  C12 UNL     1      24.721  11.535  29.476  1.00  0.00     0.130 A 
ATOM     23  H4  UNL     1      23.064  10.823  28.558  1.00  0.00     0.188 HD
HETATM   24  S2  UNL     1      25.041  13.157  29.915  1.00  0.00    -0.026 SA
BRANCH  22  25
HETATM   25  S1  UNL     1      25.740  10.057  29.704  1.00  0.00    -0.099 SA
BRANCH  25  26
HETATM   26  C13 UNL     1      25.565   9.511  31.425  1.00  0.00     0.120 C 
BRANCH  26  27
HETATM   27  C14 UNL     1      24.146   9.111  31.624  1.00  0.00    -0.048 A 
HETATM   28  C15 UNL     1      23.683   7.836  31.362  1.00  0.00     0.009 A 
HETATM   29  C16 UNL     1      22.372   7.501  31.557  1.00  0.00     0.019 A 
HETATM   30  C17 UNL     1      21.463   8.419  32.021  1.00  0.00     0.011 A 
HETATM   31 BR1  UNL     1      19.639   7.948  32.291  1.00  0.00    -0.051 Br
HETATM   32  C18 UNL     1      21.932   9.703  32.285  1.00  0.00     0.019 A 
HETATM   33  C19 UNL     1      23.244  10.066  32.098  1.00  0.00     0.009 A 
ENDBRANCH  26  27
ENDBRANCH  25  26
ENDBRANCH  22  25
ENDBRANCH   1  18
TORSDOF 10
ENDMDL
MODEL 4
REMARK VINA RESULT: -8.013374388      3.683      6.742
REMARK  10 active torsions:
REMARK  status: ('A' for Active; 'I' for Inactive)
REMARK    1  A    between atoms: C1_2  and  C2_4 
REMARK    2  A    between atoms: C2_4  and  C3_5 
REMARK    3  A    between atoms: C3_5  and  C4_6 
REMARK    4  A    between atoms: C4_6  and  N1_7 
REMARK    5  A    between atoms: C4_6  and  N2_16 
REMARK    6  A    between atoms: N1_7  and  C5_9 
REMARK    7  A    between atoms: N2_16  and  C11_18 
REMARK    8  A    between atoms: C12_23  and  S1_24 
REMARK    9  A    between atoms: S1_24  and  C13_25 
REMARK   10  A    between atoms: C13_25  and  C14_26 
ROOT
HETATM    1  N2  UNL     1      24.252  11.362  30.008  1.00  0.00    -0.325 N 
ATOM      2  H2  UNL     1      25.222  11.561  29.768  1.00  0.00     0.169 HD
ENDROOT
BRANCH   1   3
HETATM    3  C4  UNL     1      23.937  10.028  30.249  1.00  0.00     0.084 C 
BRANCH   3   4
HETATM    4  C3  UNL     1      23.767   9.027  29.136  1.00  0.00     0.087 C 
BRANCH   4   5
HETATM    5  C2  UNL     1      25.080   8.322  28.861  1.00  0.00     0.120 C 
BRANCH   5   6
HETATM    6  C1  UNL     1      25.207   7.025  29.558  1.00  0.00     0.172 C 
HETATM    7  O1  UNL     1      24.903   5.993  28.898  1.00  0.00    -0.648 OA
HETATM    8  O2  UNL     1      25.629   6.915  30.856  1.00  0.00    -0.648 OA
ENDBRANCH   5   6
ENDBRANCH   4   5
ENDBRANCH   3   4
BRANCH   3   9
HETATM    9  N1  UNL     1      23.791   9.611  31.462  1.00  0.00    -0.346 N 
ATOM     10  H1  UNL     1      24.561   9.670  32.129  1.00  0.00     0.167 HD
BRANCH   9  11
HETATM   11  C5  UNL     1      22.528   9.065  31.851  1.00  0.00     0.033 A 
HETATM   12  C6  UNL     1      22.447   7.731  32.192  1.00  0.00     0.032 A 
HETATM   13  C7  UNL     1      21.264   7.165  32.570  1.00  0.00     0.044 A 
HETATM   14  C8  UNL     1      20.136   7.963  32.606  1.00  0.00     0.116 A 
HETATM   15  F1  UNL     1      18.971   7.375  32.986  1.00  0.00    -0.206 F 
HETATM   16  C9  UNL     1      20.208   9.304  32.267  1.00  0.00     0.044 A 
HETATM   17  C10 UNL     1      21.406   9.843  31.892  1.00  0.00     0.032 A 
ENDBRANCH   9  11
ENDBRANCH   3   9
ENDBRANCH   1   3
BRANCH   1  18
HETATM   18  C11 UNL     1      23.453  12.375  30.055  1.00  0.00     0.167 A 
HETATM   19  N3  UNL     1      22.933  13.010  28.999  1.00  0.00    -0.278 N 
HETATM   20  N4  UNL     1      22.161  13.996  29.207  1.00  0.00    -0.286 N 
ATOM     21  H3  UNL     1      23.151  12.710  28.049  1.00  0.00     0.189 HD
HETATM   22  C12 UNL     1      21.875  14.386  30.432  1.00  0.00     0.130 A 
ATOM     23  H4  UNL     1      21.755  14.492  28.414  1.00  0.00     0.188 HD
HETATM   24  S2  UNL     1      22.777  13.263  31.354  1.00  0.00    -0.026 SA
BRANCH  22  25
HETATM   25  S1  UNL     1      20.816  15.746  30.985  1.00  0.00    -0.099 SA
BRANCH  25  26
HETATM   26  C13 UNL     1      19.101  15.156  30.995  1.00  0.00     0.120 C 
BRANCH  26  27
HETATM   27  C14 UNL     1      18.846  14.544  32.328  1.00  0.00    -0.048 A 
HETATM   28  C15 UNL     1      18.151  15.192  33.329  1.00  0.00     0.009 A 
HETATM   29  C16 UNL     1      17.934  14.601  34.543  1.00  0.00     0.019 A 
HETATM   30  C17 UNL     1      18.400  13.339  34.814  1.00  0.00     0.011 A 
HETATM   31 BR1  UNL     1      18.095  12.520  36.504  1.00  0.00    -0.051 Br
HETATM   32  C18 UNL     1      19.100  12.687  33.802  1.00  0.00     0.019 A 
HETATM   33  C19 UNL     1      19.331  13.258  32.574  1.00  0.00     0.009 A 
ENDBRANCH  26  27
ENDBRANCH  25  26
ENDBRANCH  22  25
ENDBRANCH   1  18
TORSDOF 10
ENDMDL
MODEL 5
REMARK VINA RESULT: -7.960292889      1.391      1.485
REMARK  10 active torsions:
REMARK  status: ('A' for Active; 'I' for Inactive)
REMARK    1  A    between atoms: C1_2  and  C2_4 
REMARK    2  A    between atoms: C2_4  and  C3_5 
REMARK    3  A    between atoms: C3_5  and  C4_6 
REMARK    4  A    between atoms: C4_6  and  N1_7 
REMARK    5  A    between atoms: C4_6  and  N2_16 
REMARK    6  A    between atoms: N1_7  and  C5_9 
REMARK    7  A    between atoms: N2_16  and  C11_18 
REMARK    8  A    between atoms: C12_23  and  S1_24 
REMARK    9  A    between atoms: S1_24  and  C13_25 
REMARK   10  A    between atoms: C13_25  and  C14_26 
ROOT
HETATM    1  N2  UNL     1      24.287  14.545  29.950  1.00  0.00    -0.325 N 
ATOM      2  H2  UNL     1      25.004  15.198  29.636  1.00  0.00     0.169 HD
ENDROOT
BRANCH   1   3
HETATM    3  C4  UNL     1      23.205  15.095  30.629  1.00  0.00     0.084 C 
BRANCH   3   4
HETATM    4  C3  UNL     1      23.379  16.059  31.775  1.00  0.00     0.087 C 
BRANCH   4   5
HETATM    5  C2  UNL     1      23.714  17.440  31.250  1.00  0.00     0.120 C 
BRANCH   5   6
HETATM    6  C1  UNL     1      22.578  18.102  30.573  1.00  0.00     0.172 C 
HETATM    7  O1  UNL     1      22.860  18.895  29.633  1.00  0.00    -0.648 OA
HETATM    8  O2  UNL     1      21.272  17.886  30.926  1.00  0.00    -0.648 OA
ENDBRANCH   5   6
ENDBRANCH   4   5
ENDBRANCH   3   4
BRANCH   3   9
HETATM    9  N1  UNL     1      22.002  14.792  30.275  1.00  0.00    -0.346 N 
ATOM     10  H1  UNL     1      21.679  14.970  29.324  1.00  0.00     0.167 HD
BRANCH   9  11
HETATM   11  C5  UNL     1      21.131  14.200  31.243  1.00  0.00     0.033 A 
HETATM   12  C6  UNL     1      19.882  14.746  31.449  1.00  0.00     0.032 A 
HETATM   13  C7  UNL     1      19.016  14.216  32.361  1.00  0.00     0.044 A 
HETATM   14  C8  UNL     1      19.420  13.109  33.084  1.00  0.00     0.116 A 
HETATM   15  F1  UNL     1      18.540  12.601  33.986  1.00  0.00    -0.206 F 
HETATM   16  C9  UNL     1      20.673  12.553  32.883  1.00  0.00     0.044 A 
HETATM   17  C10 UNL     1      21.518  13.105  31.962  1.00  0.00     0.032 A 
ENDBRANCH   9  11
ENDBRANCH   3   9
ENDBRANCH   1   3
BRANCH   1  18
HETATM   18  C11 UNL     1      24.485  13.299  29.672  1.00  0.00     0.167 A 
HETATM   19  N3  UNL     1      24.057  12.665  28.575  1.00  0.00    -0.278 N 
HETATM   20  N4  UNL     1      24.331  11.433  28.445  1.00  0.00    -0.286 N 
ATOM     21  H3  UNL     1      23.525  13.160  27.860  1.00  0.00     0.189 HD
HETATM   22  C12 UNL     1      25.019  10.790  29.365  1.00  0.00     0.130 A 
ATOM     23  H4  UNL     1      24.013  10.933  27.614  1.00  0.00     0.188 HD
HETATM   24  S2  UNL     1      25.296  12.039  30.500  1.00  0.00    -0.026 SA
BRANCH  22  25
HETATM   25  S1  UNL     1      25.530   9.054  29.413  1.00  0.00    -0.099 SA
BRANCH  25  26
HETATM   26  C13 UNL     1      25.485   8.501  31.140  1.00  0.00     0.120 C 
BRANCH  26  27
HETATM   27  C14 UNL     1      24.055   8.336  31.519  1.00  0.00    -0.048 A 
HETATM   28  C15 UNL     1      23.345   9.303  32.203  1.00  0.00     0.009 A 
HETATM   29  C16 UNL     1      22.032   9.119  32.536  1.00  0.00     0.019 A 
HETATM   30  C17 UNL     1      21.367   7.965  32.203  1.00  0.00     0.011 A 
HETATM   31 BR1  UNL     1      19.539   7.714  32.668  1.00  0.00    -0.051 Br
HETATM   32  C18 UNL     1      22.085   6.992  31.513  1.00  0.00     0.019 A 
HETATM   33  C19 UNL     1      23.405   7.151  31.166  1.00  0.00     0.009 A 
ENDBRANCH  26  27
ENDBRANCH  25  26
ENDBRANCH  22  25
ENDBRANCH   1  18
TORSDOF 10
ENDMDL
