MODEL 1
REMARK VINA RESULT: -9.809923312      0.000      0.000
REMARK  5 active torsions:
REMARK  status: ('A' for Active; 'I' for Inactive)
REMARK    1  A    between atoms: C2_3  and  C3_4 
REMARK    2  A    between atoms: C2_3  and  C13_22 
REMARK    3  A    between atoms: C2_3  and  C19_30 
REMARK       I    between atoms: C3_4  and  N1_6 
REMARK       I    between atoms: N1_6  and  C4_8 
REMARK       I    between atoms: C4_8  and  N4_19 
REMARK    4  A    between atoms: N2_9  and  N3_11 
REMARK    5  A    between atoms: N3_11  and  C5_13 
ROOT
HETATM    1  C1  UNL     1      24.282  15.595  33.278  1.00  0.00     0.204 C 
HETATM    2  O1  UNL     1      23.921  15.194  32.186  1.00  0.00    -0.366 OA
HETATM    3  C2  UNL     1      23.537  14.770  31.029  1.00  0.00     0.200 C 
ENDROOT
BRANCH   3   4
HETATM    4  C3  UNL     1      24.076  13.423  30.889  1.00  0.00     0.280 C 
HETATM    5  O2  UNL     1      25.231  13.193  31.304  1.00  0.00    -0.268 OA
HETATM    6  N1  UNL     1      23.416  12.301  30.321  1.00  0.00    -0.155 N 
HETATM    7  C4  UNL     1      23.975  11.019  30.210  1.00  0.00     0.696 C 
ATOM      8  H1  UNL     1      22.468  12.437  29.969  1.00  0.00     0.187 HD
HETATM    9  N2  UNL     1      23.276  10.051  29.666  1.00  0.00    -0.132 N 
HETATM   10  N4  UNL     1      25.273  10.632  30.642  1.00  0.00    -0.225 N 
ATOM     11  H2  UNL     1      22.336  10.269  29.337  1.00  0.00     0.205 HD
HETATM   12  C11 UNL     1      26.481  10.803  29.857  1.00  0.00     0.168 C 
HETATM   13  C12 UNL     1      25.464  10.001  31.955  1.00  0.00     0.168 C 
BRANCH   9  14
HETATM   14  N3  UNL     1      23.731   8.756  29.509  1.00  0.00    -0.287 N 
ATOM     15  H3  UNL     1      24.347   8.510  28.735  1.00  0.00     0.187 HD
BRANCH  14  16
HETATM   16  C5  UNL     1      23.319   7.770  30.457  1.00  0.00     0.048 A 
HETATM   17  C6  UNL     1      22.224   7.989  31.278  1.00  0.00     0.031 A 
HETATM   18  C7  UNL     1      21.790   7.060  32.211  1.00  0.00     0.002 A 
HETATM   19  C8  UNL     1      22.457   5.861  32.351  1.00  0.00     0.000 A 
HETATM   20  C9  UNL     1      23.555   5.655  31.520  1.00  0.00     0.002 A 
HETATM   21  C10 UNL     1      23.979   6.572  30.603  1.00  0.00     0.031 A 
ENDBRANCH  14  16
ENDBRANCH   9  14
ENDBRANCH   3   4
BRANCH   3  22
HETATM   22  C13 UNL     1      24.266  15.602  29.969  1.00  0.00     0.029 A 
HETATM   23  C14 UNL     1      25.081  16.659  30.293  1.00  0.00     0.017 A 
HETATM   24  C15 UNL     1      25.746  17.427  29.341  1.00  0.00     0.043 A 
HETATM   25  C16 UNL     1      25.593  17.128  28.010  1.00  0.00     0.119 A 
HETATM   26  F1  UNL     1      26.230  17.857  27.042  1.00  0.00    -0.206 F 
HETATM   27  C17 UNL     1      24.787  16.077  27.635  1.00  0.00     0.085 A 
HETATM   28  C18 UNL     1      24.142  15.337  28.618  1.00  0.00     0.129 A 
HETATM   29  F2  UNL     1      23.412  14.322  28.182  1.00  0.00    -0.205 F 
ENDBRANCH   3  22
BRANCH   3  30
HETATM   30  C19 UNL     1      22.121  15.095  31.010  1.00  0.00     0.002 A 
HETATM   31  C20 UNL     1      21.692  16.232  30.345  1.00  0.00     0.012 A 
HETATM   32  C21 UNL     1      20.382  16.668  30.320  1.00  0.00     0.002 A 
HETATM   33  C22 UNL     1      19.409  15.972  30.978  1.00  0.00     0.012 A 
HETATM   34  C23 UNL     1      19.776  14.840  31.658  1.00  0.00    -0.025 A 
HETATM   35  C24 UNL     1      18.830  14.102  32.366  1.00  0.00     0.012 A 
HETATM   36  C28 UNL     1      21.110  14.410  31.674  1.00  0.00    -0.016 A 
HETATM   37  C25 UNL     1      19.150  12.978  33.076  1.00  0.00     0.001 A 
HETATM   38  C26 UNL     1      20.465  12.578  33.078  1.00  0.00     0.001 A 
HETATM   39  C27 UNL     1      21.455  13.291  32.378  1.00  0.00     0.013 A 
ENDBRANCH   3  30
TORSDOF 5
ENDMDL
MODEL 2
REMARK VINA RESULT: -9.677620142      1.018      1.255
REMARK  5 active torsions:
REMARK  status: ('A' for Active; 'I' for Inactive)
REMARK    1  A    between atoms: C2_3  and  C3_4 
REMARK    2  A    between atoms: C2_3  and  C13_22 
REMARK    3  A    between atoms: C2_3  and  C19_30 
REMARK       I    between atoms: C3_4  and  N1_6 
REMARK       I    between atoms: N1_6  and  C4_8 
REMARK       I    between atoms: C4_8  and  N4_19 
REMARK    4  A    between atoms: N2_9  and  N3_11 
REMARK    5  A    between atoms: N3_11  and  C5_13 
ROOT
HETATM    1  C1  UNL     1      24.072  15.884  33.041  1.00  0.00     0.204 C 
HETATM    2  O1  UNL     1      23.659  15.414  31.995  1.00  0.00    -0.366 OA
HETATM    3  C2  UNL     1      23.220  14.917  30.888  1.00  0.00     0.200 C 
ENDROOT
BRANCH   3   4
HETATM    4  C3  UNL     1      23.903  13.642  30.715  1.00  0.00     0.280 C 
HETATM    5  O2  UNL     1      25.045  13.501  31.201  1.00  0.00    -0.268 OA
HETATM    6  N1  UNL     1      23.402  12.498  30.038  1.00  0.00    -0.155 N 
HETATM    7  C4  UNL     1      24.096  11.286  29.898  1.00  0.00     0.696 C 
ATOM      8  H1  UNL     1      22.472  12.562  29.624  1.00  0.00     0.187 HD
HETATM    9  N2  UNL     1      23.539  10.290  29.251  1.00  0.00    -0.132 N 
HETATM   10  N4  UNL     1      25.394  11.003  30.404  1.00  0.00    -0.225 N 
ATOM     11  H2  UNL     1      22.606  10.434  28.866  1.00  0.00     0.205 HD
HETATM   12  C11 UNL     1      26.629  11.341  29.722  1.00  0.00     0.168 C 
HETATM   13  C12 UNL     1      25.559  10.313  31.691  1.00  0.00     0.168 C 
BRANCH   9  14
HETATM   14  N3  UNL     1      24.134   9.058  29.058  1.00  0.00    -0.287 N 
ATOM     15  H3  UNL     1      24.912   8.952  28.406  1.00  0.00     0.187 HD
BRANCH  14  16
HETATM   16  C5  UNL     1      23.636   7.939  29.791  1.00  0.00     0.048 A 
HETATM   17  C6  UNL     1      22.827   8.121  30.901  1.00  0.00     0.031 A 
HETATM   18  C7  UNL     1      22.322   7.063  31.642  1.00  0.00     0.002 A 
HETATM   19  C8  UNL     1      22.622   5.766  31.284  1.00  0.00     0.000 A 
HETATM   20  C9  UNL     1      23.436   5.598  30.167  1.00  0.00     0.002 A 
HETATM   21  C10 UNL     1      23.931   6.642  29.440  1.00  0.00     0.031 A 
ENDBRANCH  14  16
ENDBRANCH   9  14
ENDBRANCH   3   4
BRANCH   3  22
HETATM   22  C13 UNL     1      23.737  15.803  29.750  1.00  0.00     0.029 A 
HETATM   23  C14 UNL     1      24.081  15.298  28.520  1.00  0.00     0.017 A 
HETATM   24  C15 UNL     1      24.556  16.090  27.478  1.00  0.00     0.043 A 
HETATM   25  C16 UNL     1      24.693  17.442  27.670  1.00  0.00     0.119 A 
HETATM   26  F1  UNL     1      25.156  18.257  26.671  1.00  0.00    -0.206 F 
HETATM   27  C17 UNL     1      24.361  17.996  28.885  1.00  0.00     0.085 A 
HETATM   28  C18 UNL     1      23.891  17.169  29.897  1.00  0.00     0.129 A 
HETATM   29  F2  UNL     1      23.559  17.779  31.025  1.00  0.00    -0.205 F 
ENDBRANCH   3  22
BRANCH   3  30
HETATM   30  C19 UNL     1      21.780  15.070  31.003  1.00  0.00     0.002 A 
HETATM   31  C20 UNL     1      21.150  16.109  30.338  1.00  0.00     0.012 A 
HETATM   32  C21 UNL     1      19.800  16.384  30.433  1.00  0.00     0.002 A 
HETATM   33  C22 UNL     1      18.991  15.616  31.219  1.00  0.00     0.012 A 
HETATM   34  C23 UNL     1      19.560  14.575  31.905  1.00  0.00    -0.025 A 
HETATM   35  C24 UNL     1      18.789  13.771  32.740  1.00  0.00     0.012 A 
HETATM   36  C28 UNL     1      20.932  14.308  31.800  1.00  0.00    -0.016 A 
HETATM   37  C25 UNL     1      19.314  12.734  33.461  1.00  0.00     0.001 A 
HETATM   38  C26 UNL     1      20.662  12.495  33.342  1.00  0.00     0.001 A 
HETATM   39  C27 UNL     1      21.481  13.279  32.511  1.00  0.00     0.013 A 
ENDBRANCH   3  30
TORSDOF 5
ENDMDL
MODEL 3
REMARK VINA RESULT: -9.060512066      0.840      1.166
REMARK  5 active torsions:
REMARK  status: ('A' for Active; 'I' for Inactive)
REMARK    1  A    between atoms: C2_3  and  C3_4 
REMARK    2  A    between atoms: C2_3  and  C13_22 
REMARK    3  A    between atoms: C2_3  and  C19_30 
REMARK       I    between atoms: C3_4  and  N1_6 
REMARK       I    between atoms: N1_6  and  C4_8 
REMARK       I    between atoms: C4_8  and  N4_19 
REMARK    4  A    between atoms: N2_9  and  N3_11 
REMARK    5  A    between atoms: N3_11  and  C5_13 
ROOT
HETATM    1  C1  UNL     1      24.924  15.353  32.795  1.00  0.00     0.204 C 
HETATM    2  O1  UNL     1      24.471  15.121  31.688  1.00  0.00    -0.366 OA
HETATM    3  C2  UNL     1      23.989  14.875  30.516  1.00  0.00     0.200 C 
ENDROOT
BRANCH   3   4
HETATM    4  C3  UNL     1      24.496  13.563  30.134  1.00  0.00     0.280 C 
HETATM    5  O2  UNL     1      25.731  13.378  30.121  1.00  0.00    -0.268 OA
HETATM    6  N1  UNL     1      23.723  12.430  29.767  1.00  0.00    -0.155 N 
HETATM    7  C4  UNL     1      24.255  11.182  29.408  1.00  0.00     0.696 C 
ATOM      8  H1  UNL     1      22.707  12.530  29.764  1.00  0.00     0.187 HD
HETATM    9  N2  UNL     1      23.448  10.200  29.085  1.00  0.00    -0.132 N 
HETATM   10  N4  UNL     1      25.636  10.847  29.356  1.00  0.00    -0.225 N 
ATOM     11  H2  UNL     1      22.445  10.381  29.105  1.00  0.00     0.205 HD
HETATM   12  C11 UNL     1      26.498  11.107  28.218  1.00  0.00     0.168 C 
HETATM   13  C12 UNL     1      26.285  10.180  30.493  1.00  0.00     0.168 C 
BRANCH   9  14
HETATM   14  N3  UNL     1      23.868   8.936  28.719  1.00  0.00    -0.287 N 
ATOM     15  H3  UNL     1      24.282   8.770  27.801  1.00  0.00     0.187 HD
BRANCH  14  16
HETATM   16  C5  UNL     1      23.711   7.868  29.654  1.00  0.00     0.048 A 
HETATM   17  C6  UNL     1      24.064   6.571  29.316  1.00  0.00     0.031 A 
HETATM   18  C7  UNL     1      23.927   5.505  30.192  1.00  0.00     0.002 A 
HETATM   19  C8  UNL     1      23.421   5.714  31.457  1.00  0.00     0.000 A 
HETATM   20  C9  UNL     1      23.071   7.022  31.783  1.00  0.00     0.002 A 
HETATM   21  C10 UNL     1      23.207   8.068  30.918  1.00  0.00     0.031 A 
ENDBRANCH  14  16
ENDBRANCH   9  14
ENDBRANCH   3   4
BRANCH   3  22
HETATM   22  C13 UNL     1      24.643  15.855  29.536  1.00  0.00     0.029 A 
HETATM   23  C14 UNL     1      25.419  16.908  29.953  1.00  0.00     0.017 A 
HETATM   24  C15 UNL     1      26.016  17.808  29.075  1.00  0.00     0.043 A 
HETATM   25  C16 UNL     1      25.832  17.651  27.724  1.00  0.00     0.119 A 
HETATM   26  F1  UNL     1      26.401  18.514  26.826  1.00  0.00    -0.206 F 
HETATM   27  C17 UNL     1      25.063  16.611  27.256  1.00  0.00     0.085 A 
HETATM   28  C18 UNL     1      24.486  15.736  28.167  1.00  0.00     0.129 A 
HETATM   29  F2  UNL     1      23.789  14.740  27.642  1.00  0.00    -0.205 F 
ENDBRANCH   3  22
BRANCH   3  30
HETATM   30  C19 UNL     1      22.581  15.202  30.660  1.00  0.00     0.002 A 
HETATM   31  C20 UNL     1      22.099  16.385  30.125  1.00  0.00     0.012 A 
HETATM   32  C21 UNL     1      20.796  16.824  30.261  1.00  0.00     0.002 A 
HETATM   33  C22 UNL     1      19.887  16.083  30.961  1.00  0.00     0.012 A 
HETATM   34  C23 UNL     1      20.309  14.904  31.517  1.00  0.00    -0.025 A 
HETATM   35  C24 UNL     1      19.432  14.118  32.259  1.00  0.00     0.012 A 
HETATM   36  C28 UNL     1      21.635  14.473  31.370  1.00  0.00    -0.016 A 
HETATM   37  C25 UNL     1      19.810  12.945  32.851  1.00  0.00     0.001 A 
HETATM   38  C26 UNL     1      21.115  12.544  32.694  1.00  0.00     0.001 A 
HETATM   39  C27 UNL     1      22.038  13.305  31.953  1.00  0.00     0.013 A 
ENDBRANCH   3  30
TORSDOF 5
ENDMDL
MODEL 4
REMARK VINA RESULT: -9.019371990      3.068      7.616
REMARK  5 active torsions:
REMARK  status: ('A' for Active; 'I' for Inactive)
REMARK    1  A    between atoms: C2_3  and  C3_4 
REMARK    2  A    between atoms: C2_3  and  C13_22 
REMARK    3  A    between atoms: C2_3  and  C19_30 
REMARK       I    between atoms: C3_4  and  N1_6 
REMARK       I    between atoms: N1_6  and  C4_8 
REMARK       I    between atoms: C4_8  and  N4_19 
REMARK    4  A    between atoms: N2_9  and  N3_11 
REMARK    5  A    between atoms: N3_11  and  C5_13 
ROOT
HETATM    1  C1  UNL     1      24.261  15.128  33.006  1.00  0.00     0.204 C 
HETATM    2  O1  UNL     1      23.778  14.837  31.926  1.00  0.00    -0.366 OA
HETATM    3  C2  UNL     1      23.266  14.529  30.782  1.00  0.00     0.200 C 
ENDROOT
BRANCH   3   4
HETATM    4  C3  UNL     1      24.106  15.164  29.775  1.00  0.00     0.280 C 
HETATM    5  O2  UNL     1      25.321  15.321  30.018  1.00  0.00    -0.268 OA
HETATM    6  N1  UNL     1      23.691  15.637  28.501  1.00  0.00    -0.155 N 
HETATM    7  C4  UNL     1      24.538  16.241  27.560  1.00  0.00     0.696 C 
ATOM      8  H1  UNL     1      22.707  15.530  28.254  1.00  0.00     0.187 HD
HETATM    9  N2  UNL     1      24.049  16.644  26.411  1.00  0.00    -0.132 N 
HETATM   10  N4  UNL     1      25.931  16.475  27.717  1.00  0.00    -0.225 N 
ATOM     11  H2  UNL     1      23.054  16.502  26.240  1.00  0.00     0.205 HD
HETATM   12  C11 UNL     1      26.496  17.630  28.390  1.00  0.00     0.168 C 
HETATM   13  C12 UNL     1      26.913  15.526  27.174  1.00  0.00     0.168 C 
BRANCH   9  14
HETATM   14  N3  UNL     1      24.794  17.248  25.418  1.00  0.00    -0.287 N 
ATOM     15  H3  UNL     1      25.309  16.688  24.738  1.00  0.00     0.187 HD
BRANCH  14  16
HETATM   16  C5  UNL     1      24.828  18.675  25.364  1.00  0.00     0.048 A 
HETATM   17  C6  UNL     1      23.710  19.424  25.694  1.00  0.00     0.031 A 
HETATM   18  C7  UNL     1      23.698  20.810  25.656  1.00  0.00     0.002 A 
HETATM   19  C8  UNL     1      24.831  21.498  25.276  1.00  0.00     0.000 A 
HETATM   20  C9  UNL     1      25.946  20.733  24.947  1.00  0.00     0.002 A 
HETATM   21  C10 UNL     1      25.954  19.369  24.986  1.00  0.00     0.031 A 
ENDBRANCH  14  16
ENDBRANCH   9  14
ENDBRANCH   3   4
BRANCH   3  22
HETATM   22  C13 UNL     1      21.913  15.239  30.678  1.00  0.00     0.029 A 
HETATM   23  C14 UNL     1      20.755  14.576  30.356  1.00  0.00     0.017 A 
HETATM   24  C15 UNL     1      19.519  15.208  30.253  1.00  0.00     0.043 A 
HETATM   25  C16 UNL     1      19.434  16.559  30.482  1.00  0.00     0.119 A 
HETATM   26  F1  UNL     1      18.238  17.220  30.392  1.00  0.00    -0.206 F 
HETATM   27  C17 UNL     1      20.568  17.268  30.809  1.00  0.00     0.085 A 
HETATM   28  C18 UNL     1      21.780  16.597  30.900  1.00  0.00     0.129 A 
HETATM   29  F2  UNL     1      22.819  17.339  31.253  1.00  0.00    -0.205 F 
ENDBRANCH   3  22
BRANCH   3  30
HETATM   30  C19 UNL     1      23.053  13.096  30.890  1.00  0.00     0.002 A 
HETATM   31  C20 UNL     1      23.653  12.248  29.974  1.00  0.00     0.012 A 
HETATM   32  C21 UNL     1      23.465  10.880  29.944  1.00  0.00     0.002 A 
HETATM   33  C22 UNL     1      22.643  10.275  30.852  1.00  0.00     0.012 A 
HETATM   34  C23 UNL     1      22.018  11.065  31.781  1.00  0.00    -0.025 A 
HETATM   35  C24 UNL     1      21.153  10.507  32.717  1.00  0.00     0.012 A 
HETATM   36  C28 UNL     1      22.220  12.452  31.798  1.00  0.00    -0.016 A 
HETATM   37  C25 UNL     1      20.490  11.256  33.650  1.00  0.00     0.001 A 
HETATM   38  C26 UNL     1      20.702  12.613  33.645  1.00  0.00     0.001 A 
HETATM   39  C27 UNL     1      21.568  13.222  32.719  1.00  0.00     0.013 A 
ENDBRANCH   3  30
TORSDOF 5
ENDMDL
MODEL 5
REMARK VINA RESULT: -8.961678316      2.751      6.741
REMARK  5 active torsions:
REMARK  status: ('A' for Active; 'I' for Inactive)
REMARK    1  A    between atoms: C2_3  and  C3_4 
REMARK    2  A    between atoms: C2_3  and  C13_22 
REMARK    3  A    between atoms: C2_3  and  C19_30 
REMARK       I    between atoms: C3_4  and  N1_6 
REMARK       I    between atoms: N1_6  and  C4_8 
REMARK       I    between atoms: C4_8  and  N4_19 
REMARK    4  A    between atoms: N2_9  and  N3_11 
REMARK    5  A    between atoms: N3_11  and  C5_13 
ROOT
HETATM    1  C1  UNL     1      22.444  10.050  27.706  1.00  0.00     0.204 C 
HETATM    2  O1  UNL     1      23.058  10.300  28.728  1.00  0.00    -0.366 OA
HETATM    3  C2  UNL     1      23.707  10.564  29.812  1.00  0.00     0.200 C 
ENDROOT
BRANCH   3   4
HETATM    4  C3  UNL     1      22.996  11.660  30.457  1.00  0.00     0.280 C 
HETATM    5  O2  UNL     1      23.083  12.804  29.964  1.00  0.00    -0.268 OA
HETATM    6  N1  UNL     1      22.184  11.576  31.619  1.00  0.00    -0.155 N 
HETATM    7  C4  UNL     1      21.514  12.661  32.205  1.00  0.00     0.696 C 
ATOM      8  H1  UNL     1      22.080  10.661  32.059  1.00  0.00     0.187 HD
HETATM    9  N2  UNL     1      20.788  12.471  33.281  1.00  0.00    -0.132 N 
HETATM   10  N4  UNL     1      21.532  14.004  31.741  1.00  0.00    -0.225 N 
ATOM     11  H2  UNL     1      20.735  11.526  33.661  1.00  0.00     0.205 HD
HETATM   12  C11 UNL     1      22.567  14.968  32.067  1.00  0.00     0.168 C 
HETATM   13  C12 UNL     1      20.454  14.511  30.882  1.00  0.00     0.168 C 
BRANCH   9  14
HETATM   14  N3  UNL     1      20.089  13.468  33.934  1.00  0.00    -0.287 N 
ATOM     15  H3  UNL     1      20.254  14.450  33.712  1.00  0.00     0.187 HD
BRANCH  14  16
HETATM   16  C5  UNL     1      19.132  13.092  34.925  1.00  0.00     0.048 A 
HETATM   17  C6  UNL     1      19.317  11.955  35.695  1.00  0.00     0.031 A 
HETATM   18  C7  UNL     1      18.414  11.554  36.667  1.00  0.00     0.002 A 
HETATM   19  C8  UNL     1      17.276  12.296  36.899  1.00  0.00     0.000 A 
HETATM   20  C9  UNL     1      17.103  13.436  36.118  1.00  0.00     0.002 A 
HETATM   21  C10 UNL     1      17.994  13.828  35.162  1.00  0.00     0.031 A 
ENDBRANCH  14  16
ENDBRANCH   9  14
ENDBRANCH   3   4
BRANCH   3  22
HETATM   22  C13 UNL     1      25.061  11.154  29.404  1.00  0.00     0.029 A 
HETATM   23  C14 UNL     1      25.471  11.225  28.095  1.00  0.00     0.017 A 
HETATM   24  C15 UNL     1      26.699  11.754  27.709  1.00  0.00     0.043 A 
HETATM   25  C16 UNL     1      27.555  12.234  28.669  1.00  0.00     0.119 A 
HETATM   26  F1  UNL     1      28.772  12.763  28.333  1.00  0.00    -0.206 F 
HETATM   27  C17 UNL     1      27.190  12.185  29.995  1.00  0.00     0.085 A 
HETATM   28  C18 UNL     1      25.955  11.649  30.335  1.00  0.00     0.129 A 
HETATM   29  F2  UNL     1      25.659  11.668  31.626  1.00  0.00    -0.205 F 
ENDBRANCH   3  22
BRANCH   3  30
HETATM   30  C19 UNL     1      23.910   9.253  30.405  1.00  0.00     0.002 A 
HETATM   31  C20 UNL     1      25.141   8.632  30.279  1.00  0.00     0.012 A 
HETATM   32  C21 UNL     1      25.420   7.362  30.745  1.00  0.00     0.002 A 
HETATM   33  C22 UNL     1      24.456   6.630  31.376  1.00  0.00     0.012 A 
HETATM   34  C23 UNL     1      23.216   7.192  31.526  1.00  0.00    -0.025 A 
HETATM   35  C24 UNL     1      22.187   6.484  32.142  1.00  0.00     0.012 A 
HETATM   36  C28 UNL     1      22.948   8.482  31.047  1.00  0.00    -0.016 A 
HETATM   37  C25 UNL     1      20.928   6.994  32.297  1.00  0.00     0.001 A 
HETATM   38  C26 UNL     1      20.690   8.260  31.817  1.00  0.00     0.001 A 
HETATM   39  C27 UNL     1      21.697   9.013  31.188  1.00  0.00     0.013 A 
ENDBRANCH   3  30
TORSDOF 5
ENDMDL
