MODEL 1
REMARK VINA RESULT: -8.827034132      0.000      0.000
REMARK  7 active torsions:
REMARK  status: ('A' for Active; 'I' for Inactive)
REMARK       I    between atoms: C2_2  and  N1_4 
REMARK    1  A    between atoms: N1_4  and  C3_6 
REMARK    2  A    between atoms: C6_9  and  O2_10 
REMARK    3  A    between atoms: O2_10  and  C7_11 
REMARK    4  A    between atoms: C10_14  and  S1_15 
REMARK    5  A    between atoms: S1_15  and  N2_18 
REMARK    6  A    between atoms: N2_18  and  C11_20 
REMARK    7  A    between atoms: C14_23  and  S2_24 
ROOT
HETATM    1  C7  UNL     1      23.226  13.915  30.335  1.00  0.00     0.079 A 
HETATM    2  C8  UNL     1      24.459  14.267  30.839  1.00  0.00     0.039 A 
HETATM    3  C9  UNL     1      25.581  13.545  30.527  1.00  0.00     0.031 A 
HETATM    4  C10 UNL     1      25.555  12.415  29.684  1.00  0.00     0.118 A 
HETATM    5  C17 UNL     1      24.331  12.077  29.192  1.00  0.00     0.142 A 
HETATM    6  F2  UNL     1      24.186  11.013  28.374  1.00  0.00    -0.204 F 
HETATM    7  C18 UNL     1      23.180  12.819  29.513  1.00  0.00     0.081 A 
ENDROOT
BRANCH   4   8
HETATM    8  S1  UNL     1      27.040  11.565  29.349  1.00  0.00     0.266 S 
HETATM    9  O3  UNL     1      28.218  12.412  29.827  1.00  0.00    -0.200 OA
HETATM   10  O4  UNL     1      27.235  11.443  27.855  1.00  0.00    -0.200 OA
BRANCH   8  11
HETATM   11  N2  UNL     1      27.125   9.988  29.995  1.00  0.00    -0.281 N 
ATOM     12  H2  UNL     1      28.044   9.663  30.291  1.00  0.00     0.179 HD
BRANCH  11  13
HETATM   13  C11 UNL     1      26.048   9.086  30.161  1.00  0.00     0.042 A 
HETATM   14  C12 UNL     1      25.576   8.183  29.253  1.00  0.00     0.031 A 
HETATM   15  C13 UNL     1      24.479   7.355  29.522  1.00  0.00     0.028 A 
HETATM   16  C14 UNL     1      23.813   7.408  30.724  1.00  0.00     0.090 A 
HETATM   17  C15 UNL     1      24.284   8.316  31.645  1.00  0.00     0.028 A 
HETATM   18  C16 UNL     1      25.359   9.131  31.386  1.00  0.00     0.031 A 
BRANCH  16  19
HETATM   19  S2  UNL     1      22.443   6.385  31.086  1.00  0.00     0.333 S 
HETATM   20  O5  UNL     1      22.648   5.633  32.367  1.00  0.00    -0.189 OA
HETATM   21  O6  UNL     1      22.223   5.383  29.990  1.00  0.00    -0.189 OA
HETATM   22  F1  UNL     1      21.079   7.339  31.197  1.00  0.00    -0.100 F 
ENDBRANCH  16  19
ENDBRANCH  11  13
ENDBRANCH   8  11
ENDBRANCH   4   8
BRANCH   1  23
HETATM   23  O2  UNL     1      22.091  14.655  30.658  1.00  0.00    -0.311 OA
BRANCH  23  24
HETATM   24  C6  UNL     1      21.143  14.192  31.564  1.00  0.00     0.076 A 
HETATM   25  C5  UNL     1      19.847  14.584  31.572  1.00  0.00     0.039 A 
HETATM   26  C4  UNL     1      18.975  14.067  32.516  1.00  0.00     0.032 A 
HETATM   27  C3  UNL     1      19.335  13.157  33.479  1.00  0.00     0.034 A 
HETATM   28  C20 UNL     1      20.689  12.780  33.434  1.00  0.00     0.032 A 
HETATM   29  C19 UNL     1      21.561  13.282  32.506  1.00  0.00     0.039 A 
BRANCH  27  30
HETATM   30  N1  UNL     1      18.518  12.604  34.473  1.00  0.00    -0.328 N 
HETATM   31  C2  UNL     1      17.970  13.269  35.550  1.00  0.00     0.218 C 
HETATM   32  C1  UNL     1      17.100  12.488  36.521  1.00  0.00     0.117 C 
HETATM   33  O1  UNL     1      18.142  14.477  35.781  1.00  0.00    -0.274 OA
ATOM     34  H1  UNL     1      18.307  11.610  34.392  1.00  0.00     0.169 HD
ENDBRANCH  27  30
ENDBRANCH  23  24
ENDBRANCH   1  23
TORSDOF 7
ENDMDL
MODEL 2
REMARK VINA RESULT: -8.821441104      0.702      1.180
REMARK  7 active torsions:
REMARK  status: ('A' for Active; 'I' for Inactive)
REMARK       I    between atoms: C2_2  and  N1_4 
REMARK    1  A    between atoms: N1_4  and  C3_6 
REMARK    2  A    between atoms: C6_9  and  O2_10 
REMARK    3  A    between atoms: O2_10  and  C7_11 
REMARK    4  A    between atoms: C10_14  and  S1_15 
REMARK    5  A    between atoms: S1_15  and  N2_18 
REMARK    6  A    between atoms: N2_18  and  C11_20 
REMARK    7  A    between atoms: C14_23  and  S2_24 
ROOT
HETATM    1  C7  UNL     1      23.327  13.685  30.442  1.00  0.00     0.079 A 
HETATM    2  C8  UNL     1      24.555  14.006  30.979  1.00  0.00     0.039 A 
HETATM    3  C9  UNL     1      25.686  13.328  30.606  1.00  0.00     0.031 A 
HETATM    4  C10 UNL     1      25.675  12.278  29.665  1.00  0.00     0.118 A 
HETATM    5  C17 UNL     1      24.457  11.971  29.142  1.00  0.00     0.142 A 
HETATM    6  F2  UNL     1      24.326  10.983  28.232  1.00  0.00    -0.204 F 
HETATM    7  C18 UNL     1      23.295  12.667  29.525  1.00  0.00     0.081 A 
ENDROOT
BRANCH   4   8
HETATM    8  S1  UNL     1      27.171  11.480  29.260  1.00  0.00     0.266 S 
HETATM    9  O3  UNL     1      28.339  12.311  29.788  1.00  0.00    -0.200 OA
HETATM   10  O4  UNL     1      27.354  11.467  27.760  1.00  0.00    -0.200 OA
BRANCH   8  11
HETATM   11  N2  UNL     1      27.288   9.863  29.792  1.00  0.00    -0.281 N 
ATOM     12  H2  UNL     1      28.225   9.509  29.978  1.00  0.00     0.179 HD
BRANCH  11  13
HETATM   13  C11 UNL     1      26.215   8.964  30.000  1.00  0.00     0.042 A 
HETATM   14  C12 UNL     1      25.706   8.061  29.112  1.00  0.00     0.031 A 
HETATM   15  C13 UNL     1      24.618   7.237  29.425  1.00  0.00     0.028 A 
HETATM   16  C14 UNL     1      23.999   7.294  30.651  1.00  0.00     0.090 A 
HETATM   17  C15 UNL     1      24.507   8.203  31.551  1.00  0.00     0.028 A 
HETATM   18  C16 UNL     1      25.573   9.014  31.251  1.00  0.00     0.031 A 
BRANCH  16  19
HETATM   19  S2  UNL     1      22.640   6.277  31.067  1.00  0.00     0.333 S 
HETATM   20  O5  UNL     1      22.290   5.348  29.942  1.00  0.00    -0.189 OA
HETATM   21  O6  UNL     1      21.427   7.108  31.375  1.00  0.00    -0.189 OA
HETATM   22  F1  UNL     1      23.027   5.399  32.431  1.00  0.00    -0.100 F 
ENDBRANCH  16  19
ENDBRANCH  11  13
ENDBRANCH   8  11
ENDBRANCH   4   8
BRANCH   1  23
HETATM   23  O2  UNL     1      22.183  14.379  30.827  1.00  0.00    -0.311 OA
BRANCH  23  24
HETATM   24  C6  UNL     1      21.298  13.875  31.775  1.00  0.00     0.076 A 
HETATM   25  C5  UNL     1      21.617  12.919  32.678  1.00  0.00     0.039 A 
HETATM   26  C4  UNL     1      20.667  12.479  33.584  1.00  0.00     0.032 A 
HETATM   27  C3  UNL     1      19.379  12.954  33.639  1.00  0.00     0.034 A 
HETATM   28  C20 UNL     1      19.092  13.945  32.684  1.00  0.00     0.032 A 
HETATM   29  C19 UNL     1      20.022  14.389  31.783  1.00  0.00     0.039 A 
BRANCH  27  30
HETATM   30  N1  UNL     1      18.362  12.550  34.512  1.00  0.00    -0.328 N 
HETATM   31  C2  UNL     1      17.914  13.232  35.624  1.00  0.00     0.218 C 
HETATM   32  C1  UNL     1      16.789  12.625  36.446  1.00  0.00     0.117 C 
HETATM   33  O1  UNL     1      18.374  14.322  36.002  1.00  0.00    -0.274 OA
ATOM     34  H1  UNL     1      17.907  11.661  34.305  1.00  0.00     0.169 HD
ENDBRANCH  27  30
ENDBRANCH  23  24
ENDBRANCH   1  23
TORSDOF 7
ENDMDL
MODEL 3
REMARK VINA RESULT: -8.608122722      3.897      5.401
REMARK  7 active torsions:
REMARK  status: ('A' for Active; 'I' for Inactive)
REMARK       I    between atoms: C2_2  and  N1_4 
REMARK    1  A    between atoms: N1_4  and  C3_6 
REMARK    2  A    between atoms: C6_9  and  O2_10 
REMARK    3  A    between atoms: O2_10  and  C7_11 
REMARK    4  A    between atoms: C10_14  and  S1_15 
REMARK    5  A    between atoms: S1_15  and  N2_18 
REMARK    6  A    between atoms: N2_18  and  C11_20 
REMARK    7  A    between atoms: C14_23  and  S2_24 
ROOT
HETATM    1  C7  UNL     1      21.955   9.668  32.970  1.00  0.00     0.079 A 
HETATM    2  C8  UNL     1      22.870   9.976  31.987  1.00  0.00     0.039 A 
HETATM    3  C9  UNL     1      23.344   9.010  31.138  1.00  0.00     0.031 A 
HETATM    4  C10 UNL     1      22.938   7.662  31.207  1.00  0.00     0.118 A 
HETATM    5  C17 UNL     1      22.034   7.370  32.183  1.00  0.00     0.142 A 
HETATM    6  F2  UNL     1      21.574   6.111  32.344  1.00  0.00    -0.204 F 
HETATM    7  C18 UNL     1      21.548   8.362  33.054  1.00  0.00     0.081 A 
ENDROOT
BRANCH   4   8
HETATM    8  S1  UNL     1      23.603   6.511  30.080  1.00  0.00     0.266 S 
HETATM    9  O3  UNL     1      23.719   7.169  28.706  1.00  0.00    -0.200 OA
HETATM   10  O4  UNL     1      22.631   5.371  29.879  1.00  0.00    -0.200 OA
BRANCH   8  11
HETATM   11  N2  UNL     1      25.091   5.823  30.551  1.00  0.00    -0.281 N 
ATOM     12  H2  UNL     1      25.934   6.243  30.162  1.00  0.00     0.179 HD
BRANCH  11  13
HETATM   13  C11 UNL     1      25.273   4.728  31.428  1.00  0.00     0.042 A 
HETATM   14  C12 UNL     1      24.518   4.404  32.517  1.00  0.00     0.031 A 
HETATM   15  C13 UNL     1      24.813   3.302  33.331  1.00  0.00     0.028 A 
HETATM   16  C14 UNL     1      25.887   2.484  33.076  1.00  0.00     0.090 A 
HETATM   17  C15 UNL     1      26.654   2.805  31.979  1.00  0.00     0.028 A 
HETATM   18  C16 UNL     1      26.370   3.883  31.177  1.00  0.00     0.031 A 
BRANCH  16  19
HETATM   19  S2  UNL     1      26.277   1.104  34.075  1.00  0.00     0.333 S 
HETATM   20  O5  UNL     1      25.938   1.360  35.514  1.00  0.00    -0.189 OA
HETATM   21  O6  UNL     1      27.742   0.784  33.994  1.00  0.00    -0.189 OA
HETATM   22  F1  UNL     1      25.426  -0.218  33.516  1.00  0.00    -0.100 F 
ENDBRANCH  16  19
ENDBRANCH  11  13
ENDBRANCH   8  11
ENDBRANCH   4   8
BRANCH   1  23
HETATM   23  O2  UNL     1      21.478  10.656  33.828  1.00  0.00    -0.311 OA
BRANCH  23  24
HETATM   24  C6  UNL     1      20.671  11.696  33.379  1.00  0.00     0.076 A 
HETATM   25  C5  UNL     1      21.074  12.644  32.501  1.00  0.00     0.039 A 
HETATM   26  C4  UNL     1      20.198  13.643  32.111  1.00  0.00     0.032 A 
HETATM   27  C3  UNL     1      18.906  13.751  32.564  1.00  0.00     0.034 A 
HETATM   28  C20 UNL     1      18.531  12.747  33.474  1.00  0.00     0.032 A 
HETATM   29  C19 UNL     1      19.387  11.754  33.866  1.00  0.00     0.039 A 
BRANCH  27  30
HETATM   30  N1  UNL     1      17.969  14.738  32.230  1.00  0.00    -0.328 N 
HETATM   31  C2  UNL     1      17.556  15.783  33.030  1.00  0.00     0.218 C 
HETATM   32  C1  UNL     1      16.528  16.757  32.481  1.00  0.00     0.117 C 
HETATM   33  O1  UNL     1      17.974  15.982  34.183  1.00  0.00    -0.274 OA
ATOM     34  H1  UNL     1      17.551  14.677  31.303  1.00  0.00     0.169 HD
ENDBRANCH  27  30
ENDBRANCH  23  24
ENDBRANCH   1  23
TORSDOF 7
ENDMDL
MODEL 4
REMARK VINA RESULT: -8.545026290      3.424      4.059
REMARK  7 active torsions:
REMARK  status: ('A' for Active; 'I' for Inactive)
REMARK       I    between atoms: C2_2  and  N1_4 
REMARK    1  A    between atoms: N1_4  and  C3_6 
REMARK    2  A    between atoms: C6_9  and  O2_10 
REMARK    3  A    between atoms: O2_10  and  C7_11 
REMARK    4  A    between atoms: C10_14  and  S1_15 
REMARK    5  A    between atoms: S1_15  and  N2_18 
REMARK    6  A    between atoms: N2_18  and  C11_20 
REMARK    7  A    between atoms: C14_23  and  S2_24 
ROOT
HETATM    1  C7  UNL     1      23.562  11.260  30.600  1.00  0.00     0.079 A 
HETATM    2  C8  UNL     1      23.419  10.764  29.322  1.00  0.00     0.039 A 
HETATM    3  C9  UNL     1      24.109   9.651  28.917  1.00  0.00     0.031 A 
HETATM    4  C10 UNL     1      24.994   8.949  29.760  1.00  0.00     0.118 A 
HETATM    5  C17 UNL     1      25.127   9.449  31.019  1.00  0.00     0.142 A 
HETATM    6  F2  UNL     1      25.948   8.858  31.913  1.00  0.00    -0.204 F 
HETATM    7  C18 UNL     1      24.419  10.591  31.435  1.00  0.00     0.081 A 
ENDROOT
BRANCH   4   8
HETATM    8  S1  UNL     1      25.824   7.544  29.146  1.00  0.00     0.266 S 
HETATM    9  O3  UNL     1      26.656   7.949  27.930  1.00  0.00    -0.200 OA
HETATM   10  O4  UNL     1      24.820   6.550  28.610  1.00  0.00    -0.200 OA
BRANCH   8  11
HETATM   11  N2  UNL     1      26.783   6.720  30.291  1.00  0.00    -0.281 N 
ATOM     12  H2  UNL     1      27.720   7.087  30.453  1.00  0.00     0.179 HD
BRANCH  11  13
HETATM   13  C11 UNL     1      26.409   5.580  31.039  1.00  0.00     0.042 A 
HETATM   14  C12 UNL     1      25.195   5.322  31.606  1.00  0.00     0.031 A 
HETATM   15  C13 UNL     1      24.949   4.162  32.352  1.00  0.00     0.028 A 
HETATM   16  C14 UNL     1      25.923   3.214  32.555  1.00  0.00     0.090 A 
HETATM   17  C15 UNL     1      27.150   3.468  31.986  1.00  0.00     0.028 A 
HETATM   18  C16 UNL     1      27.398   4.603  31.254  1.00  0.00     0.031 A 
BRANCH  16  19
HETATM   19  S2  UNL     1      25.642   1.759  33.480  1.00  0.00     0.333 S 
HETATM   20  O5  UNL     1      26.116   1.912  34.895  1.00  0.00    -0.189 OA
HETATM   21  O6  UNL     1      26.367   0.593  32.872  1.00  0.00    -0.189 OA
HETATM   22  F1  UNL     1      24.009   1.421  33.461  1.00  0.00    -0.100 F 
ENDBRANCH  16  19
ENDBRANCH  11  13
ENDBRANCH   8  11
ENDBRANCH   4   8
BRANCH   1  23
HETATM   23  O2  UNL     1      22.857  12.391  31.004  1.00  0.00    -0.311 OA
BRANCH  23  24
HETATM   24  C6  UNL     1      21.828  12.324  31.937  1.00  0.00     0.076 A 
HETATM   25  C5  UNL     1      21.465  11.193  32.586  1.00  0.00     0.039 A 
HETATM   26  C4  UNL     1      20.425  11.224  33.500  1.00  0.00     0.032 A 
HETATM   27  C3  UNL     1      19.708  12.353  33.810  1.00  0.00     0.034 A 
HETATM   28  C20 UNL     1      20.119  13.503  33.114  1.00  0.00     0.032 A 
HETATM   29  C19 UNL     1      21.145  13.487  32.208  1.00  0.00     0.039 A 
BRANCH  27  30
HETATM   30  N1  UNL     1      18.638  12.460  34.708  1.00  0.00    -0.328 N 
HETATM   31  C2  UNL     1      18.646  12.106  36.041  1.00  0.00     0.218 C 
HETATM   32  C1  UNL     1      17.377  12.304  36.854  1.00  0.00     0.117 C 
HETATM   33  O1  UNL     1      19.632  11.631  36.628  1.00  0.00    -0.274 OA
ATOM     34  H1  UNL     1      17.766  12.837  34.339  1.00  0.00     0.169 HD
ENDBRANCH  27  30
ENDBRANCH  23  24
ENDBRANCH   1  23
TORSDOF 7
ENDMDL
MODEL 5
REMARK VINA RESULT: -8.493685863      5.260      9.398
REMARK  7 active torsions:
REMARK  status: ('A' for Active; 'I' for Inactive)
REMARK       I    between atoms: C2_2  and  N1_4 
REMARK    1  A    between atoms: N1_4  and  C3_6 
REMARK    2  A    between atoms: C6_9  and  O2_10 
REMARK    3  A    between atoms: O2_10  and  C7_11 
REMARK    4  A    between atoms: C10_14  and  S1_15 
REMARK    5  A    between atoms: S1_15  and  N2_18 
REMARK    6  A    between atoms: N2_18  and  C11_20 
REMARK    7  A    between atoms: C14_23  and  S2_24 
ROOT
HETATM    1  C7  UNL     1      20.658  12.817  32.385  1.00  0.00     0.079 A 
HETATM    2  C8  UNL     1      19.770  13.812  32.039  1.00  0.00     0.039 A 
HETATM    3  C9  UNL     1      20.207  14.981  31.471  1.00  0.00     0.031 A 
HETATM    4  C10 UNL     1      21.566  15.242  31.204  1.00  0.00     0.118 A 
HETATM    5  C17 UNL     1      22.434  14.251  31.550  1.00  0.00     0.142 A 
HETATM    6  F2  UNL     1      23.760  14.391  31.341  1.00  0.00    -0.204 F 
HETATM    7  C18 UNL     1      21.985  13.052  32.133  1.00  0.00     0.081 A 
ENDROOT
BRANCH   4   8
HETATM    8  S1  UNL     1      22.017  16.761  30.479  1.00  0.00     0.266 S 
HETATM    9  O3  UNL     1      22.573  17.685  31.562  1.00  0.00    -0.200 OA
HETATM   10  O4  UNL     1      20.785  17.469  29.965  1.00  0.00    -0.200 OA
BRANCH   8  11
HETATM   11  N2  UNL     1      23.105  16.637  29.171  1.00  0.00    -0.281 N 
ATOM     12  H2  UNL     1      23.456  15.704  28.953  1.00  0.00     0.179 HD
BRANCH  11  13
HETATM   13  C11 UNL     1      23.569  17.696  28.356  1.00  0.00     0.042 A 
HETATM   14  C12 UNL     1      23.657  19.017  28.686  1.00  0.00     0.031 A 
HETATM   15  C13 UNL     1      24.111  19.985  27.781  1.00  0.00     0.028 A 
HETATM   16  C14 UNL     1      24.495  19.655  26.503  1.00  0.00     0.090 A 
HETATM   17  C15 UNL     1      24.409  18.323  26.164  1.00  0.00     0.028 A 
HETATM   18  C16 UNL     1      23.964  17.370  27.046  1.00  0.00     0.031 A 
BRANCH  16  19
HETATM   19  S2  UNL     1      25.065  20.843  25.355  1.00  0.00     0.333 S 
HETATM   20  O5  UNL     1      25.066  20.295  23.959  1.00  0.00    -0.189 OA
HETATM   21  O6  UNL     1      26.466  21.272  25.685  1.00  0.00    -0.189 OA
HETATM   22  F1  UNL     1      24.079  22.185  25.440  1.00  0.00    -0.100 F 
ENDBRANCH  16  19
ENDBRANCH  11  13
ENDBRANCH   8  11
ENDBRANCH   4   8
BRANCH   1  23
HETATM   23  O2  UNL     1      20.206  11.633  32.961  1.00  0.00    -0.311 OA
BRANCH  23  24
HETATM   24  C6  UNL     1      20.720  10.393  32.598  1.00  0.00     0.076 A 
HETATM   25  C5  UNL     1      19.967   9.361  32.150  1.00  0.00     0.039 A 
HETATM   26  C4  UNL     1      20.570   8.161  31.811  1.00  0.00     0.032 A 
HETATM   27  C3  UNL     1      21.921   7.928  31.899  1.00  0.00     0.034 A 
HETATM   28  C20 UNL     1      22.663   9.026  32.369  1.00  0.00     0.032 A 
HETATM   29  C19 UNL     1      22.080  10.217  32.706  1.00  0.00     0.039 A 
BRANCH  27  30
HETATM   30  N1  UNL     1      22.599   6.742  31.592  1.00  0.00    -0.328 N 
HETATM   31  C2  UNL     1      23.353   6.495  30.464  1.00  0.00     0.218 C 
HETATM   32  C1  UNL     1      24.018   5.137  30.316  1.00  0.00     0.117 C 
HETATM   33  O1  UNL     1      23.525   7.319  29.550  1.00  0.00    -0.274 OA
ATOM     34  H1  UNL     1      22.529   5.985  32.271  1.00  0.00     0.169 HD
ENDBRANCH  27  30
ENDBRANCH  23  24
ENDBRANCH   1  23
TORSDOF 7
ENDMDL
