MODEL 1
REMARK VINA RESULT: -9.392329645      0.000      0.000
REMARK  7 active torsions:
REMARK  status: ('A' for Active; 'I' for Inactive)
REMARK    1  A    between atoms: O1_2  and  C2_3 
REMARK    2  A    between atoms: C5_7  and  C6_8 
REMARK    3  A    between atoms: C6_8  and  C16_23 
REMARK    4  A    between atoms: C7_9  and  C8_10 
REMARK    5  A    between atoms: N1_11  and  N2_13 
REMARK       I    between atoms: N2_13  and  C9_15 
REMARK    6  A    between atoms: C9_15  and  C10_17 
REMARK    7  A    between atoms: C21_30  and  C22_31 
ROOT
HETATM    1  C6  UNL     1      21.131  12.567  33.004  1.00  0.00     0.009 C 
HETATM    2  C7  UNL     1      21.266  13.813  32.730  1.00  0.00     0.034 C 
ENDROOT
BRANCH   1   3
HETATM    3  C5  UNL     1      21.568  11.372  32.303  1.00  0.00    -0.019 A 
HETATM    4  C4  UNL     1      22.728  11.197  31.613  1.00  0.00     0.057 A 
HETATM    5  C3  UNL     1      23.083   9.957  31.100  1.00  0.00     0.151 A 
HETATM    6  C2  UNL     1      22.278   8.851  31.264  1.00  0.00     0.123 A 
HETATM    7  F1  UNL     1      24.258   9.885  30.430  1.00  0.00    -0.203 F 
HETATM    8  C21 UNL     1      21.099   8.988  31.953  1.00  0.00     0.078 A 
HETATM    9  C20 UNL     1      20.759  10.224  32.459  1.00  0.00     0.034 A 
BRANCH   6  10
HETATM   10  O1  UNL     1      22.669   7.630  30.737  1.00  0.00    -0.352 OA
HETATM   11  C1  UNL     1      23.709   6.838  31.314  1.00  0.00     0.210 C 
ENDBRANCH   6  10
BRANCH   8  12
HETATM   12  C22 UNL     1      20.178   7.880  32.166  1.00  0.00     0.212 C 
HETATM   13  O4  UNL     1      19.006   7.940  31.725  1.00  0.00    -0.644 OA
HETATM   14  O5  UNL     1      20.534   6.733  32.847  1.00  0.00    -0.644 OA
ENDBRANCH   8  12
ENDBRANCH   1   3
BRANCH   1  15
HETATM   15  C16 UNL     1      20.330  12.237  34.244  1.00  0.00     0.087 A 
HETATM   16  C17 UNL     1      19.092  12.726  34.533  1.00  0.00     0.059 A 
HETATM   17  C18 UNL     1      18.691  12.181  35.761  1.00  0.00     0.036 A 
HETATM   18 BR1  UNL     1      17.050  12.494  36.684  1.00  0.00    -0.049 Br
HETATM   19  C19 UNL     1      19.742  11.377  36.141  1.00  0.00     0.161 A 
HETATM   20  O3  UNL     1      20.665  11.452  35.217  1.00  0.00    -0.321 OA
ENDBRANCH   1  15
BRANCH   2  21
HETATM   21  C8  UNL     1      21.888  14.512  31.672  1.00  0.00     0.108 C 
HETATM   22  N1  UNL     1      21.530  15.469  30.933  1.00  0.00    -0.309 N 
ATOM     23  H1  UNL     1      20.601  15.863  31.083  1.00  0.00     0.186 HD
BRANCH  22  24
HETATM   24  N2  UNL     1      22.311  16.021  29.931  1.00  0.00    -0.266 N 
HETATM   25  C9  UNL     1      22.532  17.413  29.816  1.00  0.00     0.270 C 
HETATM   26  O2  UNL     1      21.986  18.158  30.670  1.00  0.00    -0.266 OA
ATOM     27  H2  UNL     1      22.743  15.398  29.248  1.00  0.00     0.190 HD
BRANCH  25  28
HETATM   28  C10 UNL     1      23.356  18.006  28.761  1.00  0.00     0.033 A 
HETATM   29  C11 UNL     1      24.044  17.267  27.826  1.00  0.00     0.017 A 
HETATM   30  C12 UNL     1      24.817  17.860  26.838  1.00  0.00     0.001 A 
HETATM   31  C13 UNL     1      24.923  19.230  26.758  1.00  0.00     0.000 A 
HETATM   32  C14 UNL     1      24.243  19.989  27.683  1.00  0.00     0.001 A 
HETATM   33  C15 UNL     1      23.477  19.398  28.663  1.00  0.00     0.017 A 
ENDBRANCH  25  28
ENDBRANCH  22  24
ENDBRANCH   2  21
TORSDOF 7
ENDMDL
MODEL 2
REMARK VINA RESULT: -9.076456037      3.133      5.306
REMARK  7 active torsions:
REMARK  status: ('A' for Active; 'I' for Inactive)
REMARK    1  A    between atoms: O1_2  and  C2_3 
REMARK    2  A    between atoms: C5_7  and  C6_8 
REMARK    3  A    between atoms: C6_8  and  C16_23 
REMARK    4  A    between atoms: C7_9  and  C8_10 
REMARK    5  A    between atoms: N1_11  and  N2_13 
REMARK       I    between atoms: N2_13  and  C9_15 
REMARK    6  A    between atoms: C9_15  and  C10_17 
REMARK    7  A    between atoms: C21_30  and  C22_31 
ROOT
HETATM    1  C6  UNL     1      21.717  10.886  32.134  1.00  0.00     0.009 C 
HETATM    2  C7  UNL     1      22.529  11.508  31.361  1.00  0.00     0.034 C 
ENDROOT
BRANCH   1   3
HETATM    3  C5  UNL     1      20.798  11.364  33.153  1.00  0.00    -0.019 A 
HETATM    4  C4  UNL     1      20.692  10.931  34.440  1.00  0.00     0.057 A 
HETATM    5  C3  UNL     1      19.859  11.566  35.350  1.00  0.00     0.151 A 
HETATM    6  C2  UNL     1      19.101  12.659  34.992  1.00  0.00     0.123 A 
HETATM    7  F1  UNL     1      19.826  11.061  36.606  1.00  0.00    -0.203 F 
HETATM    8  C21 UNL     1      19.178  13.125  33.703  1.00  0.00     0.078 A 
HETATM    9  C20 UNL     1      20.011  12.486  32.810  1.00  0.00     0.034 A 
BRANCH   6  10
HETATM   10  O1  UNL     1      18.282  13.266  35.931  1.00  0.00    -0.352 OA
HETATM   11  C1  UNL     1      17.070  12.670  36.398  1.00  0.00     0.210 C 
ENDBRANCH   6  10
BRANCH   8  12
HETATM   12  C22 UNL     1      18.406  14.265  33.230  1.00  0.00     0.212 C 
HETATM   13  O4  UNL     1      17.843  14.225  32.110  1.00  0.00    -0.644 OA
HETATM   14  O5  UNL     1      18.254  15.422  33.967  1.00  0.00    -0.644 OA
ENDBRANCH   8  12
ENDBRANCH   1   3
BRANCH   1  15
HETATM   15  C16 UNL     1      21.724   9.376  32.040  1.00  0.00     0.087 A 
HETATM   16  C17 UNL     1      22.826   8.608  31.814  1.00  0.00     0.059 A 
HETATM   17  C18 UNL     1      22.419   7.267  31.802  1.00  0.00     0.036 A 
HETATM   18 BR1  UNL     1      23.516   5.728  31.533  1.00  0.00    -0.049 Br
HETATM   19  C19 UNL     1      21.062   7.316  32.028  1.00  0.00     0.161 A 
HETATM   20  O3  UNL     1      20.717   8.571  32.158  1.00  0.00    -0.321 OA
ENDBRANCH   1  15
BRANCH   2  21
HETATM   21  C8  UNL     1      22.845  12.872  31.180  1.00  0.00     0.108 C 
HETATM   22  N1  UNL     1      22.376  13.783  30.444  1.00  0.00    -0.309 N 
ATOM     23  H1  UNL     1      21.603  13.541  29.824  1.00  0.00     0.186 HD
BRANCH  22  24
HETATM   24  N2  UNL     1      22.840  15.088  30.419  1.00  0.00    -0.266 N 
HETATM   25  C9  UNL     1      23.634  15.595  29.363  1.00  0.00     0.270 C 
HETATM   26  O2  UNL     1      23.916  14.809  28.423  1.00  0.00    -0.266 OA
ATOM     27  H2  UNL     1      22.600  15.708  31.193  1.00  0.00     0.190 HD
BRANCH  25  28
HETATM   28  C10 UNL     1      24.128  16.972  29.328  1.00  0.00     0.033 A 
HETATM   29  C11 UNL     1      25.081  17.462  30.193  1.00  0.00     0.017 A 
HETATM   30  C12 UNL     1      25.528  18.774  30.133  1.00  0.00     0.001 A 
HETATM   31  C13 UNL     1      25.028  19.645  29.192  1.00  0.00     0.000 A 
HETATM   32  C14 UNL     1      24.075  19.176  28.315  1.00  0.00     0.001 A 
HETATM   33  C15 UNL     1      23.632  17.873  28.377  1.00  0.00     0.017 A 
ENDBRANCH  25  28
ENDBRANCH  22  24
ENDBRANCH   2  21
TORSDOF 7
ENDMDL
MODEL 3
REMARK VINA RESULT: -8.968660512      1.592      1.880
REMARK  7 active torsions:
REMARK  status: ('A' for Active; 'I' for Inactive)
REMARK    1  A    between atoms: O1_2  and  C2_3 
REMARK    2  A    between atoms: C5_7  and  C6_8 
REMARK    3  A    between atoms: C6_8  and  C16_23 
REMARK    4  A    between atoms: C7_9  and  C8_10 
REMARK    5  A    between atoms: N1_11  and  N2_13 
REMARK       I    between atoms: N2_13  and  C9_15 
REMARK    6  A    between atoms: C9_15  and  C10_17 
REMARK    7  A    between atoms: C21_30  and  C22_31 
ROOT
HETATM    1  C6  UNL     1      21.258  12.415  32.951  1.00  0.00     0.009 C 
HETATM    2  C7  UNL     1      21.466  13.644  32.648  1.00  0.00     0.034 C 
ENDROOT
BRANCH   1   3
HETATM    3  C5  UNL     1      21.638  11.180  32.287  1.00  0.00    -0.019 A 
HETATM    4  C4  UNL     1      22.791  10.928  31.608  1.00  0.00     0.057 A 
HETATM    5  C3  UNL     1      23.086   9.657  31.133  1.00  0.00     0.151 A 
HETATM    6  C2  UNL     1      22.226   8.598  31.325  1.00  0.00     0.123 A 
HETATM    7  F1  UNL     1      24.258   9.507  30.472  1.00  0.00    -0.203 F 
HETATM    8  C21 UNL     1      21.052   8.813  32.003  1.00  0.00     0.078 A 
HETATM    9  C20 UNL     1      20.772  10.078  32.472  1.00  0.00     0.034 A 
BRANCH   6  10
HETATM   10  O1  UNL     1      22.558   7.344  30.835  1.00  0.00    -0.352 OA
HETATM   11  C1  UNL     1      23.541   6.511  31.452  1.00  0.00     0.210 C 
ENDBRANCH   6  10
BRANCH   8  12
HETATM   12  C22 UNL     1      20.077   7.759  32.243  1.00  0.00     0.212 C 
HETATM   13  O4  UNL     1      18.919   7.850  31.770  1.00  0.00    -0.644 OA
HETATM   14  O5  UNL     1      20.364   6.630  32.985  1.00  0.00    -0.644 OA
ENDBRANCH   8  12
ENDBRANCH   1   3
BRANCH   1  15
HETATM   15  C16 UNL     1      20.423  12.161  34.186  1.00  0.00     0.087 A 
HETATM   16  C17 UNL     1      19.196  12.701  34.430  1.00  0.00     0.059 A 
HETATM   17  C18 UNL     1      18.754  12.220  35.670  1.00  0.00     0.036 A 
HETATM   18 BR1  UNL     1      17.106  12.622  36.546  1.00  0.00    -0.049 Br
HETATM   19  C19 UNL     1      19.771  11.400  36.104  1.00  0.00     0.161 A 
HETATM   20  O3  UNL     1      20.713  11.407  35.197  1.00  0.00    -0.321 OA
ENDBRANCH   1  15
BRANCH   2  21
HETATM   21  C8  UNL     1      22.141  14.280  31.583  1.00  0.00     0.108 C 
HETATM   22  N1  UNL     1      22.014  14.245  30.328  1.00  0.00    -0.309 N 
ATOM     23  H1  UNL     1      21.285  13.645  29.942  1.00  0.00     0.186 HD
BRANCH  22  24
HETATM   24  N2  UNL     1      22.797  14.964  29.440  1.00  0.00    -0.266 N 
HETATM   25  C9  UNL     1      23.942  14.416  28.817  1.00  0.00     0.270 C 
HETATM   26  O2  UNL     1      24.241  13.227  29.098  1.00  0.00    -0.266 OA
ATOM     27  H2  UNL     1      22.537  15.928  29.228  1.00  0.00     0.190 HD
BRANCH  25  28
HETATM   28  C10 UNL     1      24.776  15.168  27.877  1.00  0.00     0.033 A 
HETATM   29  C11 UNL     1      25.957  14.691  27.357  1.00  0.00     0.017 A 
HETATM   30  C12 UNL     1      26.725  15.429  26.468  1.00  0.00     0.001 A 
HETATM   31  C13 UNL     1      26.325  16.685  26.069  1.00  0.00     0.000 A 
HETATM   32  C14 UNL     1      25.146  17.182  26.578  1.00  0.00     0.001 A 
HETATM   33  C15 UNL     1      24.386  16.447  27.460  1.00  0.00     0.017 A 
ENDBRANCH  25  28
ENDBRANCH  22  24
ENDBRANCH   2  21
TORSDOF 7
ENDMDL
MODEL 4
REMARK VINA RESULT: -8.942238323      1.479      2.369
REMARK  7 active torsions:
REMARK  status: ('A' for Active; 'I' for Inactive)
REMARK    1  A    between atoms: O1_2  and  C2_3 
REMARK    2  A    between atoms: C5_7  and  C6_8 
REMARK    3  A    between atoms: C6_8  and  C16_23 
REMARK    4  A    between atoms: C7_9  and  C8_10 
REMARK    5  A    between atoms: N1_11  and  N2_13 
REMARK       I    between atoms: N2_13  and  C9_15 
REMARK    6  A    between atoms: C9_15  and  C10_17 
REMARK    7  A    between atoms: C21_30  and  C22_31 
ROOT
HETATM    1  C6  UNL     1      20.977  12.133  33.066  1.00  0.00     0.009 C 
HETATM    2  C7  UNL     1      21.128  13.329  32.631  1.00  0.00     0.034 C 
ENDROOT
BRANCH   1   3
HETATM    3  C5  UNL     1      21.401  10.850  32.531  1.00  0.00    -0.019 A 
HETATM    4  C4  UNL     1      20.619   9.770  32.258  1.00  0.00     0.057 A 
HETATM    5  C3  UNL     1      21.134   8.648  31.623  1.00  0.00     0.151 A 
HETATM    6  C2  UNL     1      22.456   8.577  31.244  1.00  0.00     0.123 A 
HETATM    7  F1  UNL     1      20.275   7.626  31.393  1.00  0.00    -0.203 F 
HETATM    8  C21 UNL     1      23.277   9.646  31.505  1.00  0.00     0.078 A 
HETATM    9  C20 UNL     1      22.753  10.754  32.134  1.00  0.00     0.034 A 
BRANCH   6  10
HETATM   10  O1  UNL     1      22.931   7.439  30.612  1.00  0.00    -0.352 OA
HETATM   11  C1  UNL     1      23.253   6.240  31.319  1.00  0.00     0.210 C 
ENDBRANCH   6  10
BRANCH   8  12
HETATM   12  C22 UNL     1      24.690   9.658  31.153  1.00  0.00     0.212 C 
HETATM   13  O4  UNL     1      25.554   9.326  31.999  1.00  0.00    -0.644 OA
HETATM   14  O5  UNL     1      25.146  10.024  29.902  1.00  0.00    -0.644 OA
ENDBRANCH   8  12
ENDBRANCH   1   3
BRANCH   1  15
HETATM   15  C16 UNL     1      20.168  11.978  34.335  1.00  0.00     0.087 A 
HETATM   16  C17 UNL     1      18.950  12.544  34.564  1.00  0.00     0.059 A 
HETATM   17  C18 UNL     1      18.533  12.160  35.847  1.00  0.00     0.036 A 
HETATM   18 BR1  UNL     1      16.908  12.639  36.726  1.00  0.00    -0.049 Br
HETATM   19  C19 UNL     1      19.555  11.367  36.318  1.00  0.00     0.161 A 
HETATM   20  O3  UNL     1      20.477  11.299  35.393  1.00  0.00    -0.321 OA
ENDBRANCH   1  15
BRANCH   2  21
HETATM   21  C8  UNL     1      21.762  13.876  31.493  1.00  0.00     0.108 C 
HETATM   22  N1  UNL     1      21.908  15.051  31.059  1.00  0.00    -0.309 N 
ATOM     23  H1  UNL     1      21.501  15.812  31.604  1.00  0.00     0.186 HD
BRANCH  22  24
HETATM   24  N2  UNL     1      22.582  15.379  29.894  1.00  0.00    -0.266 N 
HETATM   25  C9  UNL     1      23.173  16.647  29.687  1.00  0.00     0.270 C 
HETATM   26  O2  UNL     1      23.067  17.493  30.612  1.00  0.00    -0.266 OA
ATOM     27  H2  UNL     1      22.654  14.678  29.156  1.00  0.00     0.190 HD
BRANCH  25  28
HETATM   28  C10 UNL     1      23.887  17.003  28.460  1.00  0.00     0.033 A 
HETATM   29  C11 UNL     1      24.896  16.240  27.917  1.00  0.00     0.017 A 
HETATM   30  C12 UNL     1      25.555  16.606  26.752  1.00  0.00     0.001 A 
HETATM   31  C13 UNL     1      25.216  17.763  26.088  1.00  0.00     0.000 A 
HETATM   32  C14 UNL     1      24.209  18.542  26.613  1.00  0.00     0.001 A 
HETATM   33  C15 UNL     1      23.557  18.177  27.770  1.00  0.00     0.017 A 
ENDBRANCH  25  28
ENDBRANCH  22  24
ENDBRANCH   2  21
TORSDOF 7
ENDMDL
MODEL 5
REMARK VINA RESULT: -8.941660128      4.625      7.759
REMARK  7 active torsions:
REMARK  status: ('A' for Active; 'I' for Inactive)
REMARK    1  A    between atoms: O1_2  and  C2_3 
REMARK    2  A    between atoms: C5_7  and  C6_8 
REMARK    3  A    between atoms: C6_8  and  C16_23 
REMARK    4  A    between atoms: C7_9  and  C8_10 
REMARK    5  A    between atoms: N1_11  and  N2_13 
REMARK       I    between atoms: N2_13  and  C9_15 
REMARK    6  A    between atoms: C9_15  and  C10_17 
REMARK    7  A    between atoms: C21_30  and  C22_31 
ROOT
HETATM    1  C6  UNL     1      23.480   8.264  31.514  1.00  0.00     0.009 C 
HETATM    2  C7  UNL     1      22.556   8.197  32.401  1.00  0.00     0.034 C 
ENDROOT
BRANCH   1   3
HETATM    3  C5  UNL     1      23.904   9.345  30.641  1.00  0.00    -0.019 A 
HETATM    4  C4  UNL     1      23.860   9.374  29.280  1.00  0.00     0.057 A 
HETATM    5  C3  UNL     1      24.174  10.526  28.572  1.00  0.00     0.151 A 
HETATM    6  C2  UNL     1      24.546  11.687  29.212  1.00  0.00     0.123 A 
HETATM    7  F1  UNL     1      24.099  10.453  27.221  1.00  0.00    -0.203 F 
HETATM    8  C21 UNL     1      24.604  11.698  30.583  1.00  0.00     0.078 A 
HETATM    9  C20 UNL     1      24.287  10.548  31.275  1.00  0.00     0.034 A 
BRANCH   6  10
HETATM   10  O1  UNL     1      24.851  12.816  28.468  1.00  0.00    -0.352 OA
HETATM   11  C1  UNL     1      26.094  12.976  27.783  1.00  0.00     0.210 C 
ENDBRANCH   6  10
BRANCH   8  12
HETATM   12  C22 UNL     1      24.997  12.874  31.346  1.00  0.00     0.212 C 
HETATM   13  O4  UNL     1      26.171  12.986  31.772  1.00  0.00    -0.644 OA
HETATM   14  O5  UNL     1      24.124  13.903  31.636  1.00  0.00    -0.644 OA
ENDBRANCH   8  12
ENDBRANCH   1   3
BRANCH   1  15
HETATM   15  C16 UNL     1      24.258   6.992  31.260  1.00  0.00     0.087 A 
HETATM   16  C17 UNL     1      25.617   6.896  31.226  1.00  0.00     0.059 A 
HETATM   17  C18 UNL     1      25.945   5.557  30.969  1.00  0.00     0.036 A 
HETATM   18 BR1  UNL     1      27.693   4.806  30.808  1.00  0.00    -0.049 Br
HETATM   19  C19 UNL     1      24.731   4.918  30.862  1.00  0.00     0.161 A 
HETATM   20  O3  UNL     1      23.788   5.806  31.041  1.00  0.00    -0.321 OA
ENDBRANCH   1  15
BRANCH   2  21
HETATM   21  C8  UNL     1      21.608   9.125  32.887  1.00  0.00     0.108 C 
HETATM   22  N1  UNL     1      20.806   9.922  32.328  1.00  0.00    -0.309 N 
ATOM     23  H1  UNL     1      20.795   9.947  31.308  1.00  0.00     0.186 HD
BRANCH  22  24
HETATM   24  N2  UNL     1      19.940  10.766  33.004  1.00  0.00    -0.266 N 
HETATM   25  C9  UNL     1      20.138  12.164  33.075  1.00  0.00     0.270 C 
HETATM   26  O2  UNL     1      21.149  12.636  32.494  1.00  0.00    -0.266 OA
ATOM     27  H2  UNL     1      19.127  10.361  33.470  1.00  0.00     0.190 HD
BRANCH  25  28
HETATM   28  C10 UNL     1      19.229  13.064  33.786  1.00  0.00     0.033 A 
HETATM   29  C11 UNL     1      18.778  12.834  35.067  1.00  0.00     0.017 A 
HETATM   30  C12 UNL     1      17.915  13.707  35.714  1.00  0.00     0.001 A 
HETATM   31  C13 UNL     1      17.473  14.851  35.088  1.00  0.00     0.000 A 
HETATM   32  C14 UNL     1      17.912  15.101  33.807  1.00  0.00     0.001 A 
HETATM   33  C15 UNL     1      18.768  14.232  33.167  1.00  0.00     0.017 A 
ENDBRANCH  25  28
ENDBRANCH  22  24
ENDBRANCH   2  21
TORSDOF 7
ENDMDL
