MODEL 1
REMARK VINA RESULT: -9.962501486      0.000      0.000
REMARK  10 active torsions:
REMARK  status: ('A' for Active; 'I' for Inactive)
REMARK    1  A    between atoms: C5_5  and  C6_6 
REMARK    2  A    between atoms: C6_6  and  O1_7 
REMARK    3  A    between atoms: C6_6  and  C7_9 
REMARK    4  A    between atoms: C10_12  and  C11_13 
REMARK    5  A    between atoms: C16_18  and  C17_19 
REMARK    6  A    between atoms: C17_19  and  N1_20 
REMARK    7  A    between atoms: N1_20  and  C18_22 
REMARK    8  A    between atoms: C18_22  and  C19_23 
REMARK    9  A    between atoms: C22_26  and  N2_27 
REMARK   10  A    between atoms: N3_30  and  O2_31 
ROOT
HETATM    1  C7  UNL     1      25.481  11.964  31.023  1.00  0.00    -0.024 A 
HETATM    2  C8  UNL     1      25.693  10.994  31.980  1.00  0.00     0.011 A 
HETATM    3  C9  UNL     1      25.048   9.779  31.931  1.00  0.00     0.014 A 
HETATM    4  C10 UNL     1      24.168   9.493  30.926  1.00  0.00    -0.005 A 
HETATM    5  C25 UNL     1      23.936  10.439  29.961  1.00  0.00     0.056 A 
HETATM    6  C26 UNL     1      23.007  10.223  28.850  1.00  0.00     0.100 C 
HETATM    7  N4  UNL     1      22.267  10.035  27.981  1.00  0.00    -0.191 NA
HETATM    8  C27 UNL     1      24.587  11.650  30.016  1.00  0.00     0.033 A 
ENDROOT
BRANCH   4   9
HETATM    9  C11 UNL     1      23.492   8.226  30.766  1.00  0.00    -0.016 A 
HETATM   10  C12 UNL     1      23.948   7.378  29.767  1.00  0.00     0.013 A 
HETATM   11  C13 UNL     1      23.356   6.149  29.632  1.00  0.00     0.001 A 
HETATM   12  C14 UNL     1      22.334   5.751  30.458  1.00  0.00     0.001 A 
HETATM   13  C15 UNL     1      21.914   6.630  31.436  1.00  0.00     0.010 A 
HETATM   14  C16 UNL     1      22.478   7.895  31.621  1.00  0.00    -0.027 A 
BRANCH  14  15
HETATM   15  C17 UNL     1      21.883   8.747  32.654  1.00  0.00     0.200 C 
BRANCH  15  16
HETATM   16  N1  UNL     1      20.879   9.660  32.222  1.00  0.00    -0.223 N 
HETATM   17  F1  UNL     1      19.684   9.249  31.949  1.00  0.00    -0.099 F 
BRANCH  16  18
HETATM   18  C18 UNL     1      21.116  11.032  32.285  1.00  0.00     0.133 C 
BRANCH  18  19
HETATM   19  C19 UNL     1      20.505  11.601  33.494  1.00  0.00    -0.017 C 
HETATM   20  C20 UNL     1      19.547  12.608  33.333  1.00  0.00     0.017 C 
HETATM   21  C21 UNL     1      18.622  13.089  34.236  1.00  0.00     0.051 C 
HETATM   22  C22 UNL     1      18.369  12.575  35.488  1.00  0.00     0.126 C 
HETATM   23  N3  UNL     1      19.051  11.671  36.211  1.00  0.00    -0.220 N 
HETATM   24  C23 UNL     1      20.238  11.121  35.896  1.00  0.00     0.126 C 
HETATM   25  C24 UNL     1      20.927  11.095  34.698  1.00  0.00     0.032 C 
BRANCH  22  26
HETATM   26  N2  UNL     1      17.308  13.042  36.045  1.00  0.00    -0.384 N 
ATOM     27  H22 UNL     1      17.268  14.058  36.129  1.00  0.00     0.157 HD
ATOM     28  H21 UNL     1      16.640  12.328  36.335  1.00  0.00     0.157 HD
ENDBRANCH  22  26
BRANCH  23  29
HETATM   29  O2  UNL     1      18.453  11.277  37.402  1.00  0.00    -0.282 OA
ATOM     30  H2  UNL     1      18.734  10.438  37.746  1.00  0.00     0.245 HD
ENDBRANCH  23  29
ENDBRANCH  18  19
ENDBRANCH  16  18
ENDBRANCH  15  16
ENDBRANCH  14  15
ENDBRANCH   4   9
BRANCH   1  31
HETATM   31  C6  UNL     1      26.151  13.289  31.029  1.00  0.00     0.184 C 
BRANCH  31  32
HETATM   32  C5  UNL     1      25.191  14.417  30.945  1.00  0.00    -0.025 A 
HETATM   33  C4  UNL     1      24.262  14.667  31.936  1.00  0.00     0.010 A 
HETATM   34  C3  UNL     1      23.365  15.725  31.854  1.00  0.00     0.007 A 
HETATM   35  C2  UNL     1      23.375  16.567  30.764  1.00  0.00    -0.062 A 
HETATM   36  C1  UNL     1      22.413  17.695  30.682  1.00  0.00     0.048 C 
HETATM   37  C29 UNL     1      24.294  16.333  29.766  1.00  0.00     0.007 A 
HETATM   38  C28 UNL     1      25.189  15.270  29.860  1.00  0.00     0.010 A 
ENDBRANCH  31  32
BRANCH  31  39
HETATM   39  O1  UNL     1      27.118  13.321  30.040  1.00  0.00    -0.386 OA
ATOM     40  H1  UNL     1      27.578  12.496  29.939  1.00  0.00     0.210 HD
ENDBRANCH  31  39
ENDBRANCH   1  31
TORSDOF 10
ENDMDL
MODEL 2
REMARK VINA RESULT: -9.914744958      2.983      5.744
REMARK  10 active torsions:
REMARK  status: ('A' for Active; 'I' for Inactive)
REMARK    1  A    between atoms: C5_5  and  C6_6 
REMARK    2  A    between atoms: C6_6  and  O1_7 
REMARK    3  A    between atoms: C6_6  and  C7_9 
REMARK    4  A    between atoms: C10_12  and  C11_13 
REMARK    5  A    between atoms: C16_18  and  C17_19 
REMARK    6  A    between atoms: C17_19  and  N1_20 
REMARK    7  A    between atoms: N1_20  and  C18_22 
REMARK    8  A    between atoms: C18_22  and  C19_23 
REMARK    9  A    between atoms: C22_26  and  N2_27 
REMARK   10  A    between atoms: N3_30  and  O2_31 
ROOT
HETATM    1  C7  UNL     1      20.814  10.315  32.978  1.00  0.00    -0.024 A 
HETATM    2  C8  UNL     1      20.200   9.359  32.196  1.00  0.00     0.011 A 
HETATM    3  C9  UNL     1      20.930   8.460  31.450  1.00  0.00     0.014 A 
HETATM    4  C10 UNL     1      22.295   8.489  31.459  1.00  0.00    -0.005 A 
HETATM    5  C25 UNL     1      22.933   9.429  32.227  1.00  0.00     0.056 A 
HETATM    6  C26 UNL     1      24.391   9.537  32.294  1.00  0.00     0.100 C 
HETATM    7  N4  UNL     1      25.546   9.609  32.332  1.00  0.00    -0.191 NA
HETATM    8  C27 UNL     1      22.196  10.322  32.970  1.00  0.00     0.033 A 
ENDROOT
BRANCH   4   9
HETATM    9  C11 UNL     1      23.137   7.550  30.754  1.00  0.00    -0.016 A 
HETATM   10  C12 UNL     1      23.272   6.278  31.293  1.00  0.00     0.013 A 
HETATM   11  C13 UNL     1      24.024   5.356  30.612  1.00  0.00     0.001 A 
HETATM   12  C14 UNL     1      24.637   5.666  29.424  1.00  0.00     0.001 A 
HETATM   13  C15 UNL     1      24.475   6.944  28.929  1.00  0.00     0.010 A 
HETATM   14  C16 UNL     1      23.722   7.927  29.577  1.00  0.00    -0.027 A 
BRANCH  14  15
HETATM   15  C17 UNL     1      23.697   9.260  28.968  1.00  0.00     0.200 C 
BRANCH  15  16
HETATM   16  N1  UNL     1      24.940   9.952  28.909  1.00  0.00    -0.223 N 
HETATM   17  F1  UNL     1      26.051   9.342  29.160  1.00  0.00    -0.099 F 
BRANCH  16  18
HETATM   18  C18 UNL     1      24.991  11.242  28.381  1.00  0.00     0.133 C 
BRANCH  18  19
HETATM   19  C19 UNL     1      24.740  12.235  29.433  1.00  0.00    -0.017 C 
HETATM   20  C20 UNL     1      25.665  12.331  30.479  1.00  0.00     0.017 C 
HETATM   21  C21 UNL     1      25.842  13.340  31.402  1.00  0.00     0.051 C 
HETATM   22  C22 UNL     1      25.193  14.554  31.409  1.00  0.00     0.126 C 
HETATM   23  N3  UNL     1      24.131  14.977  30.704  1.00  0.00    -0.220 N 
HETATM   24  C23 UNL     1      23.373  14.238  29.873  1.00  0.00     0.126 C 
HETATM   25  C24 UNL     1      23.606  12.997  29.309  1.00  0.00     0.032 C 
BRANCH  22  26
HETATM   26  N2  UNL     1      25.693  15.415  32.224  1.00  0.00    -0.384 N 
ATOM     27  H22 UNL     1      25.537  15.222  33.214  1.00  0.00     0.157 HD
ATOM     28  H21 UNL     1      26.184  16.185  31.770  1.00  0.00     0.157 HD
ENDBRANCH  22  26
BRANCH  23  29
HETATM   29  O2  UNL     1      23.796  16.316  30.862  1.00  0.00    -0.282 OA
ATOM     30  H2  UNL     1      22.908  16.551  30.619  1.00  0.00     0.245 HD
ENDBRANCH  23  29
ENDBRANCH  18  19
ENDBRANCH  16  18
ENDBRANCH  15  16
ENDBRANCH  14  15
ENDBRANCH   4   9
BRANCH   1  31
HETATM   31  C6  UNL     1      20.075  11.306  33.801  1.00  0.00     0.184 C 
BRANCH  31  32
HETATM   32  C5  UNL     1      19.773  12.555  33.059  1.00  0.00    -0.025 A 
HETATM   33  C4  UNL     1      20.739  13.239  32.346  1.00  0.00     0.010 A 
HETATM   34  C3  UNL     1      20.453  14.408  31.653  1.00  0.00     0.007 A 
HETATM   35  C2  UNL     1      19.177  14.928  31.656  1.00  0.00    -0.062 A 
HETATM   36  C1  UNL     1      18.877  16.178  30.913  1.00  0.00     0.048 C 
HETATM   37  C29 UNL     1      18.201  14.260  32.361  1.00  0.00     0.007 A 
HETATM   38  C28 UNL     1      18.500  13.089  33.052  1.00  0.00     0.010 A 
ENDBRANCH  31  32
BRANCH  31  39
HETATM   39  O1  UNL     1      20.759  11.525  34.983  1.00  0.00    -0.386 OA
ATOM     40  H1  UNL     1      20.909  10.731  35.482  1.00  0.00     0.210 HD
ENDBRANCH  31  39
ENDBRANCH   1  31
TORSDOF 10
ENDMDL
MODEL 3
REMARK VINA RESULT: -9.829081892      1.956      2.423
REMARK  10 active torsions:
REMARK  status: ('A' for Active; 'I' for Inactive)
REMARK    1  A    between atoms: C5_5  and  C6_6 
REMARK    2  A    between atoms: C6_6  and  O1_7 
REMARK    3  A    between atoms: C6_6  and  C7_9 
REMARK    4  A    between atoms: C10_12  and  C11_13 
REMARK    5  A    between atoms: C16_18  and  C17_19 
REMARK    6  A    between atoms: C17_19  and  N1_20 
REMARK    7  A    between atoms: N1_20  and  C18_22 
REMARK    8  A    between atoms: C18_22  and  C19_23 
REMARK    9  A    between atoms: C22_26  and  N2_27 
REMARK   10  A    between atoms: N3_30  and  O2_31 
ROOT
HETATM    1  C7  UNL     1      25.607  11.929  31.024  1.00  0.00    -0.024 A 
HETATM    2  C8  UNL     1      25.820  10.955  31.977  1.00  0.00     0.011 A 
HETATM    3  C9  UNL     1      25.126   9.766  31.962  1.00  0.00     0.014 A 
HETATM    4  C10 UNL     1      24.195   9.512  30.995  1.00  0.00    -0.005 A 
HETATM    5  C25 UNL     1      23.961  10.461  30.034  1.00  0.00     0.056 A 
HETATM    6  C26 UNL     1      22.980  10.278  28.964  1.00  0.00     0.100 C 
HETATM    7  N4  UNL     1      22.197  10.115  28.127  1.00  0.00    -0.191 NA
HETATM    8  C27 UNL     1      24.661  11.647  30.056  1.00  0.00     0.033 A 
ENDROOT
BRANCH   4   9
HETATM    9  C11 UNL     1      23.464   8.271  30.870  1.00  0.00    -0.016 A 
HETATM   10  C12 UNL     1      23.806   7.428  29.822  1.00  0.00     0.013 A 
HETATM   11  C13 UNL     1      23.161   6.223  29.716  1.00  0.00     0.001 A 
HETATM   12  C14 UNL     1      22.198   5.843  30.616  1.00  0.00     0.001 A 
HETATM   13  C15 UNL     1      21.892   6.716  31.641  1.00  0.00     0.010 A 
HETATM   14  C16 UNL     1      22.513   7.957  31.801  1.00  0.00    -0.027 A 
BRANCH  14  15
HETATM   15  C17 UNL     1      22.035   8.808  32.894  1.00  0.00     0.200 C 
BRANCH  15  16
HETATM   16  N1  UNL     1      20.962   9.692  32.586  1.00  0.00    -0.223 N 
HETATM   17  F1  UNL     1      20.329   9.599  31.464  1.00  0.00    -0.099 F 
BRANCH  16  18
HETATM   18  C18 UNL     1      20.451  10.532  33.575  1.00  0.00     0.133 C 
BRANCH  18  19
HETATM   19  C19 UNL     1      20.400  11.918  33.090  1.00  0.00    -0.017 C 
HETATM   20  C20 UNL     1      21.443  12.366  32.271  1.00  0.00     0.017 C 
HETATM   21  C21 UNL     1      21.499  13.474  31.452  1.00  0.00     0.051 C 
HETATM   22  C22 UNL     1      20.459  14.333  31.178  1.00  0.00     0.126 C 
HETATM   23  N3  UNL     1      19.252  14.450  31.757  1.00  0.00    -0.220 N 
HETATM   24  C23 UNL     1      18.817  13.792  32.847  1.00  0.00     0.126 C 
HETATM   25  C24 UNL     1      19.323  12.673  33.483  1.00  0.00     0.032 C 
BRANCH  22  26
HETATM   26  N2  UNL     1      20.689  15.148  30.210  1.00  0.00    -0.384 N 
ATOM     27  H22 UNL     1      21.656  15.461  30.122  1.00  0.00     0.157 HD
ATOM     28  H21 UNL     1      19.866  15.378  29.653  1.00  0.00     0.157 HD
ENDBRANCH  22  26
BRANCH  23  29
HETATM   29  O2  UNL     1      18.379  15.348  31.155  1.00  0.00    -0.282 OA
ATOM     30  H2  UNL     1      17.712  15.718  31.721  1.00  0.00     0.245 HD
ENDBRANCH  23  29
ENDBRANCH  18  19
ENDBRANCH  16  18
ENDBRANCH  15  16
ENDBRANCH  14  15
ENDBRANCH   4   9
BRANCH   1  31
HETATM   31  C6  UNL     1      26.328  13.226  30.994  1.00  0.00     0.184 C 
BRANCH  31  32
HETATM   32  C5  UNL     1      25.412  14.393  31.046  1.00  0.00    -0.025 A 
HETATM   33  C4  UNL     1      24.920  14.888  32.237  1.00  0.00     0.010 A 
HETATM   34  C3  UNL     1      24.062  15.981  32.282  1.00  0.00     0.007 A 
HETATM   35  C2  UNL     1      23.672  16.610  31.120  1.00  0.00    -0.062 A 
HETATM   36  C1  UNL     1      22.755  17.777  31.174  1.00  0.00     0.048 C 
HETATM   37  C29 UNL     1      24.152  16.130  29.923  1.00  0.00     0.007 A 
HETATM   38  C28 UNL     1      25.012  15.035  29.892  1.00  0.00     0.010 A 
ENDBRANCH  31  32
BRANCH  31  39
HETATM   39  O1  UNL     1      27.185  13.254  29.908  1.00  0.00    -0.386 OA
ATOM     40  H1  UNL     1      26.802  12.885  29.120  1.00  0.00     0.210 HD
ENDBRANCH  31  39
ENDBRANCH   1  31
TORSDOF 10
ENDMDL
MODEL 4
REMARK VINA RESULT: -9.812314090      2.534      3.247
REMARK  10 active torsions:
REMARK  status: ('A' for Active; 'I' for Inactive)
REMARK    1  A    between atoms: C5_5  and  C6_6 
REMARK    2  A    between atoms: C6_6  and  O1_7 
REMARK    3  A    between atoms: C6_6  and  C7_9 
REMARK    4  A    between atoms: C10_12  and  C11_13 
REMARK    5  A    between atoms: C16_18  and  C17_19 
REMARK    6  A    between atoms: C17_19  and  N1_20 
REMARK    7  A    between atoms: N1_20  and  C18_22 
REMARK    8  A    between atoms: C18_22  and  C19_23 
REMARK    9  A    between atoms: C22_26  and  N2_27 
REMARK   10  A    between atoms: N3_30  and  O2_31 
ROOT
HETATM    1  C7  UNL     1      24.567  11.844  29.398  1.00  0.00    -0.024 A 
HETATM    2  C8  UNL     1      23.193  11.757  29.469  1.00  0.00     0.011 A 
HETATM    3  C9  UNL     1      22.567  10.648  29.993  1.00  0.00     0.014 A 
HETATM    4  C10 UNL     1      23.293   9.590  30.462  1.00  0.00    -0.005 A 
HETATM    5  C25 UNL     1      24.662   9.649  30.404  1.00  0.00     0.056 A 
HETATM    6  C26 UNL     1      25.520   8.562  30.878  1.00  0.00     0.100 C 
HETATM    7  N4  UNL     1      26.182   7.691  31.255  1.00  0.00    -0.191 NA
HETATM    8  C27 UNL     1      25.279  10.761  29.880  1.00  0.00     0.033 A 
ENDROOT
BRANCH   4   9
HETATM    9  C11 UNL     1      22.721   8.416  31.079  1.00  0.00    -0.016 A 
HETATM   10  C12 UNL     1      22.780   7.225  30.368  1.00  0.00     0.013 A 
HETATM   11  C13 UNL     1      22.292   6.087  30.957  1.00  0.00     0.001 A 
HETATM   12  C14 UNL     1      21.752   6.108  32.219  1.00  0.00     0.001 A 
HETATM   13  C15 UNL     1      21.713   7.316  32.885  1.00  0.00     0.010 A 
HETATM   14  C16 UNL     1      22.196   8.508  32.337  1.00  0.00    -0.027 A 
BRANCH  14  15
HETATM   15  C17 UNL     1      22.024   9.726  33.133  1.00  0.00     0.200 C 
BRANCH  15  16
HETATM   16  N1  UNL     1      20.780  10.407  32.991  1.00  0.00    -0.223 N 
HETATM   17  F1  UNL     1      19.909  10.018  32.120  1.00  0.00    -0.099 F 
BRANCH  16  18
HETATM   18  C18 UNL     1      20.406  11.370  33.927  1.00  0.00     0.133 C 
BRANCH  18  19
HETATM   19  C19 UNL     1      20.329  12.693  33.294  1.00  0.00    -0.017 C 
HETATM   20  C20 UNL     1      21.450  13.152  32.593  1.00  0.00     0.017 C 
HETATM   21  C21 UNL     1      21.551  14.178  31.677  1.00  0.00     0.051 C 
HETATM   22  C22 UNL     1      20.505  14.911  31.163  1.00  0.00     0.126 C 
HETATM   23  N3  UNL     1      19.219  14.976  31.544  1.00  0.00    -0.220 N 
HETATM   24  C23 UNL     1      18.670  14.388  32.623  1.00  0.00     0.126 C 
HETATM   25  C24 UNL     1      19.152  13.383  33.442  1.00  0.00     0.032 C 
BRANCH  22  26
HETATM   26  N2  UNL     1      20.822  15.648  30.158  1.00  0.00    -0.384 N 
ATOM     27  H22 UNL     1      21.652  16.227  30.284  1.00  0.00     0.157 HD
ATOM     28  H21 UNL     1      20.194  15.556  29.359  1.00  0.00     0.157 HD
ENDBRANCH  22  26
BRANCH  23  29
HETATM   29  O2  UNL     1      18.385  15.731  30.728  1.00  0.00    -0.282 OA
ATOM     30  H2  UNL     1      17.453  15.618  30.872  1.00  0.00     0.245 HD
ENDBRANCH  23  29
ENDBRANCH  18  19
ENDBRANCH  16  18
ENDBRANCH  15  16
ENDBRANCH  14  15
ENDBRANCH   4   9
BRANCH   1  31
HETATM   31  C6  UNL     1      25.292  13.016  28.844  1.00  0.00     0.184 C 
BRANCH  31  32
HETATM   32  C5  UNL     1      25.107  14.242  29.660  1.00  0.00    -0.025 A 
HETATM   33  C4  UNL     1      24.609  15.413  29.124  1.00  0.00     0.010 A 
HETATM   34  C3  UNL     1      24.437  16.559  29.892  1.00  0.00     0.007 A 
HETATM   35  C2  UNL     1      24.764  16.559  31.230  1.00  0.00    -0.062 A 
HETATM   36  C1  UNL     1      24.580  17.787  32.044  1.00  0.00     0.048 C 
HETATM   37  C29 UNL     1      25.263  15.400  31.781  1.00  0.00     0.007 A 
HETATM   38  C28 UNL     1      25.430  14.259  31.002  1.00  0.00     0.010 A 
ENDBRANCH  31  32
BRANCH  31  39
HETATM   39  O1  UNL     1      24.943  13.188  27.516  1.00  0.00    -0.386 OA
ATOM     40  H1  UNL     1      24.076  12.858  27.311  1.00  0.00     0.210 HD
ENDBRANCH  31  39
ENDBRANCH   1  31
TORSDOF 10
ENDMDL
MODEL 5
REMARK VINA RESULT: -9.705838416      2.150      3.329
REMARK  10 active torsions:
REMARK  status: ('A' for Active; 'I' for Inactive)
REMARK    1  A    between atoms: C5_5  and  C6_6 
REMARK    2  A    between atoms: C6_6  and  O1_7 
REMARK    3  A    between atoms: C6_6  and  C7_9 
REMARK    4  A    between atoms: C10_12  and  C11_13 
REMARK    5  A    between atoms: C16_18  and  C17_19 
REMARK    6  A    between atoms: C17_19  and  N1_20 
REMARK    7  A    between atoms: N1_20  and  C18_22 
REMARK    8  A    between atoms: C18_22  and  C19_23 
REMARK    9  A    between atoms: C22_26  and  N2_27 
REMARK   10  A    between atoms: N3_30  and  O2_31 
ROOT
HETATM    1  C7  UNL     1      23.654  15.401  31.445  1.00  0.00    -0.024 A 
HETATM    2  C8  UNL     1      22.470  14.740  31.196  1.00  0.00     0.011 A 
HETATM    3  C9  UNL     1      22.451  13.443  30.732  1.00  0.00     0.014 A 
HETATM    4  C10 UNL     1      23.614  12.766  30.502  1.00  0.00    -0.005 A 
HETATM    5  C25 UNL     1      24.808  13.398  30.740  1.00  0.00     0.056 A 
HETATM    6  C26 UNL     1      26.102  12.752  30.516  1.00  0.00     0.100 C 
HETATM    7  N4  UNL     1      27.116  12.227  30.330  1.00  0.00    -0.191 NA
HETATM    8  C27 UNL     1      24.817  14.693  31.204  1.00  0.00     0.033 A 
ENDROOT
BRANCH   4   9
HETATM    9  C11 UNL     1      23.687  11.388  30.071  1.00  0.00    -0.016 A 
HETATM   10  C12 UNL     1      24.119  11.142  28.776  1.00  0.00     0.013 A 
HETATM   11  C13 UNL     1      24.246   9.841  28.365  1.00  0.00     0.001 A 
HETATM   12  C14 UNL     1      23.955   8.793  29.202  1.00  0.00     0.001 A 
HETATM   13  C15 UNL     1      23.527   9.087  30.481  1.00  0.00     0.010 A 
HETATM   14  C16 UNL     1      23.379  10.393  30.956  1.00  0.00    -0.027 A 
BRANCH  14  15
HETATM   15  C17 UNL     1      22.847  10.553  32.313  1.00  0.00     0.200 C 
BRANCH  15  16
HETATM   16  N1  UNL     1      21.797   9.668  32.691  1.00  0.00    -0.223 N 
HETATM   17  F1  UNL     1      22.047   8.594  33.365  1.00  0.00    -0.099 F 
BRANCH  16  18
HETATM   18  C18 UNL     1      20.469  10.054  32.517  1.00  0.00     0.133 C 
BRANCH  18  19
HETATM   19  C19 UNL     1      20.107  11.091  33.492  1.00  0.00    -0.017 C 
HETATM   20  C20 UNL     1      19.665  12.326  33.002  1.00  0.00     0.017 C 
HETATM   21  C21 UNL     1      18.993  13.337  33.655  1.00  0.00     0.051 C 
HETATM   22  C22 UNL     1      18.500  13.285  34.940  1.00  0.00     0.126 C 
HETATM   23  N3  UNL     1      18.712  12.388  35.917  1.00  0.00    -0.220 N 
HETATM   24  C23 UNL     1      19.570  11.352  35.884  1.00  0.00     0.126 C 
HETATM   25  C24 UNL     1      20.231  10.766  34.819  1.00  0.00     0.032 C 
BRANCH  22  26
HETATM   26  N2  UNL     1      17.712  14.255  35.242  1.00  0.00    -0.384 N 
ATOM     27  H22 UNL     1      17.882  15.129  34.744  1.00  0.00     0.157 HD
ATOM     28  H21 UNL     1      17.013  14.022  35.948  1.00  0.00     0.157 HD
ENDBRANCH  22  26
BRANCH  23  29
HETATM   29  O2  UNL     1      17.959  12.564  37.071  1.00  0.00    -0.282 OA
ATOM     30  H2  UNL     1      18.444  12.830  37.844  1.00  0.00     0.245 HD
ENDBRANCH  23  29
ENDBRANCH  18  19
ENDBRANCH  16  18
ENDBRANCH  15  16
ENDBRANCH  14  15
ENDBRANCH   4   9
BRANCH   1  31
HETATM   31  C6  UNL     1      23.730  16.797  31.946  1.00  0.00     0.184 C 
BRANCH  31  32
HETATM   32  C5  UNL     1      24.050  17.773  30.874  1.00  0.00    -0.025 A 
HETATM   33  C4  UNL     1      25.309  18.324  30.735  1.00  0.00     0.010 A 
HETATM   34  C3  UNL     1      25.606  19.237  29.731  1.00  0.00     0.007 A 
HETATM   35  C2  UNL     1      24.638  19.625  28.831  1.00  0.00    -0.062 A 
HETATM   36  C1  UNL     1      24.960  20.602  27.760  1.00  0.00     0.048 C 
HETATM   37  C29 UNL     1      23.377  19.086  28.954  1.00  0.00     0.007 A 
HETATM   38  C28 UNL     1      23.092  18.171  29.965  1.00  0.00     0.010 A 
ENDBRANCH  31  32
BRANCH  31  39
HETATM   39  O1  UNL     1      24.603  16.856  33.017  1.00  0.00    -0.386 OA
ATOM     40  H1  UNL     1      24.379  17.533  33.645  1.00  0.00     0.210 HD
ENDBRANCH  31  39
ENDBRANCH   1  31
TORSDOF 10
ENDMDL
