MODEL 1
REMARK VINA RESULT: 2.411956802      0.000      0.000
REMARK  6 active torsions:
REMARK  status: ('A' for Active; 'I' for Inactive)
REMARK    1  A    between atoms: C2_2  and  O1_3 
REMARK    2  A    between atoms: O1_3  and  C3_4 
REMARK    3  A    between atoms: C4_5  and  C5_6 
REMARK    4  A    between atoms: C8_13  and  S1_14 
REMARK    5  A    between atoms: S1_14  and  C9_15 
REMARK    6  A    between atoms: C9_15  and  C10_16 
ROOT
HETATM    1  S1  UNL     1      64.821  43.625   9.731  1.00  0.00    -0.105 SA
ENDROOT
BRANCH   1   2
HETATM    2  C8  UNL     1      65.443  45.074  10.564  1.00  0.00     0.096 A 
HETATM    3  C6  UNL     1      64.940  45.620  11.816  1.00  0.00     0.016 A 
HETATM    4  C5  UNL     1      63.955  45.130  12.523  1.00  0.00     0.017 C 
HETATM    5  C7  UNL     1      65.768  46.791  12.075  1.00  0.00     0.121 A 
HETATM    6  N1  UNL     1      66.615  46.884  11.102  1.00  0.00    -0.310 N 
HETATM    7  N2  UNL     1      66.419  45.844  10.185  1.00  0.00    -0.294 N 
ATOM      8  H1  UNL     1      67.325  47.612  11.014  1.00  0.00     0.186 HD
ATOM      9  H2  UNL     1      66.967  45.709   9.336  1.00  0.00     0.187 HD
BRANCH   4  10
HETATM   10  C4  UNL     1      63.537  45.758  13.760  1.00  0.00     0.025 C 
HETATM   11  C3  UNL     1      62.397  45.407  14.312  1.00  0.00     0.134 C 
BRANCH  11  12
HETATM   12  O1  UNL     1      61.973  45.994  15.496  1.00  0.00    -0.363 OA
BRANCH  12  13
HETATM   13  C2  UNL     1      62.787  45.747  16.643  1.00  0.00     0.170 C 
HETATM   14  C1  UNL     1      61.939  45.007  17.642  1.00  0.00     0.034 C 
ENDBRANCH  12  13
ENDBRANCH  11  12
ENDBRANCH   4  10
ENDBRANCH   1   2
BRANCH   1  15
HETATM   15  C9  UNL     1      66.200  42.434   9.556  1.00  0.00     0.119 C 
BRANCH  15  16
HETATM   16  C10 UNL     1      66.337  42.011   8.135  1.00  0.00    -0.046 A 
HETATM   17  C11 UNL     1      66.489  40.668   7.793  1.00  0.00     0.010 A 
HETATM   18  C12 UNL     1      66.615  40.278   6.472  1.00  0.00     0.032 A 
HETATM   19  C13 UNL     1      66.588  41.256   5.503  1.00  0.00     0.063 A 
HETATM   20  N3  UNL     1      66.681  41.230   4.163  1.00  0.00    -0.307 N 
HETATM   21  C15 UNL     1      66.437  42.591   5.833  1.00  0.00     0.063 A 
HETATM   22  C14 UNL     1      66.592  42.497   3.687  1.00  0.00     0.325 A 
ATOM     23  H3  UNL     1      66.799  40.391   3.595  1.00  0.00     0.170 HD
HETATM   24  O2  UNL     1      66.643  42.816   2.478  1.00  0.00    -0.247 OA
HETATM   25  N4  UNL     1      66.441  43.345   4.718  1.00  0.00    -0.306 N 
ATOM     26  H4  UNL     1      66.347  44.360   4.665  1.00  0.00     0.170 HD
HETATM   27  C16 UNL     1      66.312  42.975   7.143  1.00  0.00     0.039 A 
ENDBRANCH  15  16
ENDBRANCH   1  15
TORSDOF 6
ENDMDL
MODEL 2
REMARK VINA RESULT: 3.254918101      1.172      1.289
REMARK  6 active torsions:
REMARK  status: ('A' for Active; 'I' for Inactive)
REMARK    1  A    between atoms: C2_2  and  O1_3 
REMARK    2  A    between atoms: O1_3  and  C3_4 
REMARK    3  A    between atoms: C4_5  and  C5_6 
REMARK    4  A    between atoms: C8_13  and  S1_14 
REMARK    5  A    between atoms: S1_14  and  C9_15 
REMARK    6  A    between atoms: C9_15  and  C10_16 
ROOT
HETATM    1  S1  UNL     1      66.751  43.982   9.931  1.00  0.00    -0.105 SA
ENDROOT
BRANCH   1   2
HETATM    2  C8  UNL     1      66.122  45.636  10.139  1.00  0.00     0.096 A 
HETATM    3  C6  UNL     1      65.275  46.097  11.230  1.00  0.00     0.016 A 
HETATM    4  C5  UNL     1      64.845  45.365  12.225  1.00  0.00     0.017 C 
HETATM    5  C7  UNL     1      65.036  47.507  10.952  1.00  0.00     0.121 A 
HETATM    6  N1  UNL     1      65.664  47.794   9.858  1.00  0.00    -0.310 N 
HETATM    7  N2  UNL     1      66.322  46.661   9.365  1.00  0.00    -0.294 N 
ATOM      8  H1  UNL     1      65.677  48.714   9.417  1.00  0.00     0.186 HD
ATOM      9  H2  UNL     1      66.883  46.641   8.513  1.00  0.00     0.187 HD
BRANCH   4  10
HETATM   10  C4  UNL     1      64.003  45.929  13.260  1.00  0.00     0.025 C 
HETATM   11  C3  UNL     1      62.972  45.245  13.702  1.00  0.00     0.134 C 
BRANCH  11  12
HETATM   12  O1  UNL     1      62.149  45.763  14.692  1.00  0.00    -0.363 OA
BRANCH  12  13
HETATM   13  C2  UNL     1      62.778  46.052  15.940  1.00  0.00     0.170 C 
HETATM   14  C1  UNL     1      62.031  45.294  17.004  1.00  0.00     0.034 C 
ENDBRANCH  12  13
ENDBRANCH  11  12
ENDBRANCH   4  10
ENDBRANCH   1   2
BRANCH   1  15
HETATM   15  C9  UNL     1      65.357  42.900   9.444  1.00  0.00     0.119 C 
BRANCH  15  16
HETATM   16  C10 UNL     1      65.782  41.972   8.360  1.00  0.00    -0.046 A 
HETATM   17  C11 UNL     1      66.001  40.617   8.613  1.00  0.00     0.010 A 
HETATM   18  C12 UNL     1      66.396  39.757   7.605  1.00  0.00     0.032 A 
HETATM   19  C13 UNL     1      66.568  40.278   6.341  1.00  0.00     0.063 A 
HETATM   20  N3  UNL     1      66.933  39.742   5.166  1.00  0.00    -0.307 N 
HETATM   21  C15 UNL     1      66.353  41.619   6.080  1.00  0.00     0.063 A 
HETATM   22  C14 UNL     1      66.945  40.712   4.219  1.00  0.00     0.325 A 
ATOM     23  H3  UNL     1      67.166  38.761   5.010  1.00  0.00     0.170 HD
HETATM   24  O2  UNL     1      67.243  40.541   3.016  1.00  0.00    -0.247 OA
HETATM   25  N4  UNL     1      66.585  41.879   4.780  1.00  0.00    -0.306 N 
ATOM     26  H4  UNL     1      66.505  42.783   4.313  1.00  0.00     0.170 HD
HETATM   27  C16 UNL     1      65.961  42.470   7.082  1.00  0.00     0.039 A 
ENDBRANCH  15  16
ENDBRANCH   1  15
TORSDOF 6
ENDMDL
MODEL 3
REMARK VINA RESULT: 3.857418624      1.639      2.202
REMARK  6 active torsions:
REMARK  status: ('A' for Active; 'I' for Inactive)
REMARK    1  A    between atoms: C2_2  and  O1_3 
REMARK    2  A    between atoms: O1_3  and  C3_4 
REMARK    3  A    between atoms: C4_5  and  C5_6 
REMARK    4  A    between atoms: C8_13  and  S1_14 
REMARK    5  A    between atoms: S1_14  and  C9_15 
REMARK    6  A    between atoms: C9_15  and  C10_16 
ROOT
HETATM    1  S1  UNL     1      65.196  43.867   9.818  1.00  0.00    -0.105 SA
ENDROOT
BRANCH   1   2
HETATM    2  C8  UNL     1      65.642  45.357  10.690  1.00  0.00     0.096 A 
HETATM    3  C6  UNL     1      65.050  45.827  11.934  1.00  0.00     0.016 A 
HETATM    4  C5  UNL     1      64.099  45.227  12.603  1.00  0.00     0.017 C 
HETATM    5  C7  UNL     1      65.746  47.071  12.236  1.00  0.00     0.121 A 
HETATM    6  N1  UNL     1      66.607  47.267  11.291  1.00  0.00    -0.310 N 
HETATM    7  N2  UNL     1      66.545  46.229  10.354  1.00  0.00    -0.294 N 
ATOM      8  H1  UNL     1      67.242  48.064  11.236  1.00  0.00     0.186 HD
ATOM      9  H2  UNL     1      67.128  46.165   9.520  1.00  0.00     0.187 HD
BRANCH   4  10
HETATM   10  C4  UNL     1      63.583  45.787  13.836  1.00  0.00     0.025 C 
HETATM   11  C3  UNL     1      62.406  45.405  14.278  1.00  0.00     0.134 C 
BRANCH  11  12
HETATM   12  O1  UNL     1      61.889  45.927  15.456  1.00  0.00    -0.363 OA
BRANCH  12  13
HETATM   13  C2  UNL     1      62.706  45.782  16.617  1.00  0.00     0.170 C 
HETATM   14  C1  UNL     1      61.906  45.015  17.635  1.00  0.00     0.034 C 
ENDBRANCH  12  13
ENDBRANCH  11  12
ENDBRANCH   4  10
ENDBRANCH   1   2
BRANCH   1  15
HETATM   15  C9  UNL     1      66.738  42.999   9.350  1.00  0.00     0.119 C 
BRANCH  15  16
HETATM   16  C10 UNL     1      66.522  42.200   8.113  1.00  0.00    -0.046 A 
HETATM   17  C11 UNL     1      66.341  42.818   6.875  1.00  0.00     0.010 A 
HETATM   18  C12 UNL     1      66.140  42.072   5.728  1.00  0.00     0.032 A 
HETATM   19  C13 UNL     1      66.122  40.700   5.842  1.00  0.00     0.063 A 
HETATM   20  N3  UNL     1      65.957  39.703   4.958  1.00  0.00    -0.307 N 
HETATM   21  C15 UNL     1      66.301  40.078   7.065  1.00  0.00     0.063 A 
HETATM   22  C14 UNL     1      66.029  38.515   5.608  1.00  0.00     0.325 A 
ATOM     23  H3  UNL     1      65.802  39.821   3.957  1.00  0.00     0.170 HD
HETATM   24  O2  UNL     1      65.915  37.392   5.069  1.00  0.00    -0.247 OA
HETATM   25  N4  UNL     1      66.243  38.742   6.915  1.00  0.00    -0.306 N 
ATOM     26  H4  UNL     1      66.341  38.039   7.649  1.00  0.00     0.170 HD
HETATM   27  C16 UNL     1      66.500  40.819   8.201  1.00  0.00     0.039 A 
ENDBRANCH  15  16
ENDBRANCH   1  15
TORSDOF 6
ENDMDL
MODEL 4
REMARK VINA RESULT: 3.899958335      3.534      4.997
REMARK  6 active torsions:
REMARK  status: ('A' for Active; 'I' for Inactive)
REMARK    1  A    between atoms: C2_2  and  O1_3 
REMARK    2  A    between atoms: O1_3  and  C3_4 
REMARK    3  A    between atoms: C4_5  and  C5_6 
REMARK    4  A    between atoms: C8_13  and  S1_14 
REMARK    5  A    between atoms: S1_14  and  C9_15 
REMARK    6  A    between atoms: C9_15  and  C10_16 
ROOT
HETATM    1  S1  UNL     1      64.720  42.966   9.744  1.00  0.00    -0.105 SA
ENDROOT
BRANCH   1   2
HETATM    2  C8  UNL     1      65.149  44.542  10.458  1.00  0.00     0.096 A 
HETATM    3  C6  UNL     1      66.083  45.508   9.897  1.00  0.00     0.016 A 
HETATM    4  C5  UNL     1      66.752  45.365   8.782  1.00  0.00     0.017 C 
HETATM    5  C7  UNL     1      66.088  46.619  10.840  1.00  0.00     0.121 A 
HETATM    6  N1  UNL     1      65.269  46.314  11.794  1.00  0.00    -0.310 N 
HETATM    7  N2  UNL     1      64.699  45.057  11.563  1.00  0.00    -0.294 N 
ATOM      8  H1  UNL     1      65.067  46.907  12.600  1.00  0.00     0.186 HD
ATOM      9  H2  UNL     1      64.024  44.605  12.179  1.00  0.00     0.187 HD
BRANCH   4  10
HETATM   10  C4  UNL     1      67.659  46.395   8.317  1.00  0.00     0.025 C 
HETATM   11  C3  UNL     1      67.498  46.908   7.118  1.00  0.00     0.134 C 
BRANCH  11  12
HETATM   12  O1  UNL     1      68.353  47.895   6.649  1.00  0.00    -0.363 OA
BRANCH  12  13
HETATM   13  C2  UNL     1      67.775  49.186   6.458  1.00  0.00     0.170 C 
HETATM   14  C1  UNL     1      66.538  49.252   7.313  1.00  0.00     0.034 C 
ENDBRANCH  12  13
ENDBRANCH  11  12
ENDBRANCH   4  10
ENDBRANCH   1   2
BRANCH   1  15
HETATM   15  C9  UNL     1      66.271  42.056   9.400  1.00  0.00     0.119 C 
BRANCH  15  16
HETATM   16  C10 UNL     1      66.377  41.754   7.946  1.00  0.00    -0.046 A 
HETATM   17  C11 UNL     1      66.494  40.441   7.488  1.00  0.00     0.010 A 
HETATM   18  C12 UNL     1      66.592  40.163   6.137  1.00  0.00     0.032 A 
HETATM   19  C13 UNL     1      66.573  41.221   5.255  1.00  0.00     0.063 A 
HETATM   20  N3  UNL     1      66.646  41.307   3.917  1.00  0.00    -0.307 N 
HETATM   21  C15 UNL     1      66.458  42.526   5.700  1.00  0.00     0.063 A 
HETATM   22  C14 UNL     1      66.579  42.611   3.552  1.00  0.00     0.325 A 
ATOM     23  H3  UNL     1      66.737  40.518   3.278  1.00  0.00     0.170 HD
HETATM   24  O2  UNL     1      66.621  43.031   2.373  1.00  0.00    -0.247 OA
HETATM   25  N4  UNL     1      66.463  43.372   4.653  1.00  0.00    -0.306 N 
ATOM     26  H4  UNL     1      66.392  44.389   4.688  1.00  0.00     0.170 HD
HETATM   27  C16 UNL     1      66.360  42.799   7.040  1.00  0.00     0.039 A 
ENDBRANCH  15  16
ENDBRANCH   1  15
TORSDOF 6
ENDMDL
MODEL 5
REMARK VINA RESULT: 5.577495233      2.989      4.130
REMARK  6 active torsions:
REMARK  status: ('A' for Active; 'I' for Inactive)
REMARK    1  A    between atoms: C2_2  and  O1_3 
REMARK    2  A    between atoms: O1_3  and  C3_4 
REMARK    3  A    between atoms: C4_5  and  C5_6 
REMARK    4  A    between atoms: C8_13  and  S1_14 
REMARK    5  A    between atoms: S1_14  and  C9_15 
REMARK    6  A    between atoms: C9_15  and  C10_16 
ROOT
HETATM    1  S1  UNL     1      66.710  43.363   9.633  1.00  0.00    -0.105 SA
ENDROOT
BRANCH   1   2
HETATM    2  C8  UNL     1      65.556  44.364  10.551  1.00  0.00     0.096 A 
HETATM    3  C6  UNL     1      65.412  45.809  10.452  1.00  0.00     0.016 A 
HETATM    4  C5  UNL     1      66.110  46.595   9.672  1.00  0.00     0.017 C 
HETATM    5  C7  UNL     1      64.350  46.148  11.390  1.00  0.00     0.121 A 
HETATM    6  N1  UNL     1      63.955  45.043  11.936  1.00  0.00    -0.310 N 
HETATM    7  N2  UNL     1      64.685  43.962  11.428  1.00  0.00    -0.294 N 
ATOM      8  H1  UNL     1      63.217  44.970  12.637  1.00  0.00     0.186 HD
ATOM      9  H2  UNL     1      64.553  42.991  11.709  1.00  0.00     0.187 HD
BRANCH   4  10
HETATM   10  C4  UNL     1      65.881  48.026   9.655  1.00  0.00     0.025 C 
HETATM   11  C3  UNL     1      65.461  48.602   8.551  1.00  0.00     0.134 C 
BRANCH  11  12
HETATM   12  O1  UNL     1      65.235  49.971   8.508  1.00  0.00    -0.363 OA
BRANCH  12  13
HETATM   13  C2  UNL     1      64.832  50.578   9.735  1.00  0.00     0.170 C 
HETATM   14  C1  UNL     1      65.972  51.440  10.204  1.00  0.00     0.034 C 
ENDBRANCH  12  13
ENDBRANCH  11  12
ENDBRANCH   4  10
ENDBRANCH   1   2
BRANCH   1  15
HETATM   15  C9  UNL     1      65.816  41.893   9.006  1.00  0.00     0.119 C 
BRANCH  15  16
HETATM   16  C10 UNL     1      66.086  41.709   7.554  1.00  0.00    -0.046 A 
HETATM   17  C11 UNL     1      66.233  40.436   7.002  1.00  0.00     0.010 A 
HETATM   18  C12 UNL     1      66.484  40.268   5.653  1.00  0.00     0.032 A 
HETATM   19  C13 UNL     1      66.585  41.395   4.868  1.00  0.00     0.063 A 
HETATM   20  N3  UNL     1      66.815  41.589   3.559  1.00  0.00    -0.307 N 
HETATM   21  C15 UNL     1      66.440  42.661   5.405  1.00  0.00     0.063 A 
HETATM   22  C14 UNL     1      66.813  42.920   3.301  1.00  0.00     0.325 A 
ATOM     23  H3  UNL     1      66.966  40.853   2.870  1.00  0.00     0.170 HD
HETATM   24  O2  UNL     1      66.998  43.435   2.175  1.00  0.00    -0.247 OA
HETATM   25  N4  UNL     1      66.581  43.590   4.442  1.00  0.00    -0.306 N 
ATOM     26  H4  UNL     1      66.523  44.603   4.555  1.00  0.00     0.170 HD
HETATM   27  C16 UNL     1      66.192  42.826   6.744  1.00  0.00     0.039 A 
ENDBRANCH  15  16
ENDBRANCH   1  15
TORSDOF 6
ENDMDL
