MODEL 1
REMARK VINA RESULT: -4.411564591      0.000      0.000
REMARK  7 active torsions:
REMARK  status: ('A' for Active; 'I' for Inactive)
REMARK    1  A    between atoms: C2_2  and  C3_3 
REMARK    2  A    between atoms: C2_2  and  C7_15 
REMARK    3  A    between atoms: C4_4  and  C5_5 
REMARK    4  A    between atoms: C4_4  and  C6_10 
REMARK    5  A    between atoms: C5_5  and  N1_6 
REMARK    6  A    between atoms: C6_10  and  N2_11 
REMARK    7  A    between atoms: C7_15  and  N3_16 
ROOT
HETATM    1  C3  UNL     1      66.586  42.847   8.598  1.00  0.00    -0.015 C 
HETATM    2  C4  UNL     1      66.155  43.734   9.475  1.00  0.00    -0.033 C 
ENDROOT
BRANCH   2   3
HETATM    3  C5  UNL     1      64.759  43.689   9.923  1.00  0.00     0.265 C 
BRANCH   3   4
HETATM    4  N1  UNL     1      64.460  44.545  11.039  1.00  0.00    -0.076 N 
ATOM      5  H13 UNL     1      65.195  44.480  11.743  1.00  0.00     0.274 HD
ATOM      6  H12 UNL     1      64.560  45.525  10.771  1.00  0.00     0.274 HD
ATOM      7  H11 UNL     1      63.546  44.386  11.464  1.00  0.00     0.274 HD
ENDBRANCH   3   4
ENDBRANCH   2   3
BRANCH   2   8
HETATM    8  C6  UNL     1      67.117  44.767   9.986  1.00  0.00     0.265 C 
BRANCH   8   9
HETATM    9  N2  UNL     1      66.879  46.062   9.389  1.00  0.00    -0.076 N 
ATOM     10  H23 UNL     1      66.820  45.998   8.373  1.00  0.00     0.274 HD
ATOM     11  H22 UNL     1      65.933  46.392   9.582  1.00  0.00     0.274 HD
ATOM     12  H21 UNL     1      67.577  46.746   9.679  1.00  0.00     0.274 HD
ENDBRANCH   8   9
ENDBRANCH   2   8
BRANCH   1  13
HETATM   13  C2  UNL     1      65.875  41.756   7.951  1.00  0.00     0.030 C 
HETATM   14  C1  UNL     1      66.542  40.441   8.373  1.00  0.00     0.016 C 
BRANCH  13  15
HETATM   15  C7  UNL     1      66.040  41.886   6.431  1.00  0.00     0.237 C 
BRANCH  15  16
HETATM   16  N3  UNL     1      66.461  40.615   5.865  1.00  0.00    -0.079 N 
ATOM     17  H33 UNL     1      65.691  39.948   5.807  1.00  0.00     0.274 HD
ATOM     18  H32 UNL     1      66.669  40.690   4.870  1.00  0.00     0.274 HD
ATOM     19  H31 UNL     1      67.249  40.243   6.394  1.00  0.00     0.274 HD
ENDBRANCH  15  16
ENDBRANCH  13  15
ENDBRANCH   1  13
TORSDOF 7
ENDMDL
MODEL 2
REMARK VINA RESULT: -4.335779825      0.735      2.204
REMARK  7 active torsions:
REMARK  status: ('A' for Active; 'I' for Inactive)
REMARK    1  A    between atoms: C2_2  and  C3_3 
REMARK    2  A    between atoms: C2_2  and  C7_15 
REMARK    3  A    between atoms: C4_4  and  C5_5 
REMARK    4  A    between atoms: C4_4  and  C6_10 
REMARK    5  A    between atoms: C5_5  and  N1_6 
REMARK    6  A    between atoms: C6_10  and  N2_11 
REMARK    7  A    between atoms: C7_15  and  N3_16 
ROOT
HETATM    1  C3  UNL     1      65.568  42.666   8.820  1.00  0.00    -0.015 C 
HETATM    2  C4  UNL     1      65.678  43.725   9.601  1.00  0.00    -0.033 C 
ENDROOT
BRANCH   2   3
HETATM    3  C5  UNL     1      66.957  44.441   9.674  1.00  0.00     0.265 C 
BRANCH   3   4
HETATM    4  N1  UNL     1      66.881  45.838   9.343  1.00  0.00    -0.076 N 
ATOM      5  H13 UNL     1      65.938  46.190   9.507  1.00  0.00     0.274 HD
ATOM      6  H12 UNL     1      67.397  46.392  10.027  1.00  0.00     0.274 HD
ATOM      7  H11 UNL     1      67.186  46.068   8.397  1.00  0.00     0.274 HD
ENDBRANCH   3   4
ENDBRANCH   2   3
BRANCH   2   8
HETATM    8  C6  UNL     1      64.482  44.161  10.395  1.00  0.00     0.265 C 
BRANCH   8   9
HETATM    9  N2  UNL     1      64.838  45.117  11.420  1.00  0.00    -0.076 N 
ATOM     10  H23 UNL     1      65.804  44.995  11.722  1.00  0.00     0.274 HD
ATOM     11  H22 UNL     1      64.908  46.060  11.039  1.00  0.00     0.274 HD
ATOM     12  H21 UNL     1      64.194  45.082  12.210  1.00  0.00     0.274 HD
ENDBRANCH   8   9
ENDBRANCH   2   8
BRANCH   1  13
HETATM   13  C2  UNL     1      66.557  42.039   7.958  1.00  0.00     0.030 C 
HETATM   14  C1  UNL     1      66.138  42.285   6.503  1.00  0.00     0.016 C 
BRANCH  13  15
HETATM   15  C7  UNL     1      66.531  40.522   8.192  1.00  0.00     0.237 C 
BRANCH  15  16
HETATM   16  N3  UNL     1      66.749  39.821   6.938  1.00  0.00    -0.079 N 
ATOM     17  H33 UNL     1      67.626  40.096   6.494  1.00  0.00     0.274 HD
ATOM     18  H32 UNL     1      66.959  38.834   7.083  1.00  0.00     0.274 HD
ATOM     19  H31 UNL     1      65.949  39.956   6.319  1.00  0.00     0.274 HD
ENDBRANCH  15  16
ENDBRANCH  13  15
ENDBRANCH   1  13
TORSDOF 7
ENDMDL
MODEL 3
REMARK VINA RESULT: -3.613289648      1.257      4.638
REMARK  7 active torsions:
REMARK  status: ('A' for Active; 'I' for Inactive)
REMARK    1  A    between atoms: C2_2  and  C3_3 
REMARK    2  A    between atoms: C2_2  and  C7_15 
REMARK    3  A    between atoms: C4_4  and  C5_5 
REMARK    4  A    between atoms: C4_4  and  C6_10 
REMARK    5  A    between atoms: C5_5  and  N1_6 
REMARK    6  A    between atoms: C6_10  and  N2_11 
REMARK    7  A    between atoms: C7_15  and  N3_16 
ROOT
HETATM    1  C3  UNL     1      65.622  43.276   8.693  1.00  0.00    -0.015 C 
HETATM    2  C4  UNL     1      66.002  42.122   8.176  1.00  0.00    -0.033 C 
ENDROOT
BRANCH   2   3
HETATM    3  C5  UNL     1      67.110  41.383   8.790  1.00  0.00     0.265 C 
BRANCH   3   4
HETATM    4  N1  UNL     1      67.361  40.091   8.213  1.00  0.00    -0.076 N 
ATOM      5  H13 UNL     1      67.795  39.474   8.899  1.00  0.00     0.274 HD
ATOM      6  H12 UNL     1      66.483  39.594   8.060  1.00  0.00     0.274 HD
ATOM      7  H11 UNL     1      67.912  40.108   7.354  1.00  0.00     0.274 HD
ENDBRANCH   3   4
ENDBRANCH   2   3
BRANCH   2   8
HETATM    8  C6  UNL     1      65.280  41.604   6.965  1.00  0.00     0.265 C 
BRANCH   8   9
HETATM    9  N2  UNL     1      66.125  41.615   5.793  1.00  0.00    -0.076 N 
ATOM     10  H23 UNL     1      65.583  41.465   4.942  1.00  0.00     0.274 HD
ATOM     11  H22 UNL     1      66.474  42.553   5.595  1.00  0.00     0.274 HD
ATOM     12  H21 UNL     1      66.888  40.943   5.870  1.00  0.00     0.274 HD
ENDBRANCH   8   9
ENDBRANCH   2   8
BRANCH   1  13
HETATM   13  C2  UNL     1      66.142  43.995   9.844  1.00  0.00     0.030 C 
HETATM   14  C1  UNL     1      64.954  44.398  10.726  1.00  0.00     0.016 C 
BRANCH  13  15
HETATM   15  C7  UNL     1      66.813  45.289   9.361  1.00  0.00     0.237 C 
BRANCH  15  16
HETATM   16  N3  UNL     1      66.412  46.403  10.205  1.00  0.00    -0.079 N 
ATOM     17  H33 UNL     1      66.029  46.088  11.097  1.00  0.00     0.274 HD
ATOM     18  H32 UNL     1      67.215  46.920  10.562  1.00  0.00     0.274 HD
ATOM     19  H31 UNL     1      65.762  47.005   9.701  1.00  0.00     0.274 HD
ENDBRANCH  15  16
ENDBRANCH  13  15
ENDBRANCH   1  13
TORSDOF 7
ENDMDL
MODEL 4
REMARK VINA RESULT: -3.327729677      1.285      4.859
REMARK  7 active torsions:
REMARK  status: ('A' for Active; 'I' for Inactive)
REMARK    1  A    between atoms: C2_2  and  C3_3 
REMARK    2  A    between atoms: C2_2  and  C7_15 
REMARK    3  A    between atoms: C4_4  and  C5_5 
REMARK    4  A    between atoms: C4_4  and  C6_10 
REMARK    5  A    between atoms: C5_5  and  N1_6 
REMARK    6  A    between atoms: C6_10  and  N2_11 
REMARK    7  A    between atoms: C7_15  and  N3_16 
ROOT
HETATM    1  C3  UNL     1      66.195  42.678   7.344  1.00  0.00    -0.015 C 
HETATM    2  C4  UNL     1      66.335  41.574   6.635  1.00  0.00    -0.033 C 
ENDROOT
BRANCH   2   3
HETATM    3  C5  UNL     1      66.584  40.300   7.318  1.00  0.00     0.265 C 
BRANCH   3   4
HETATM    4  N1  UNL     1      66.472  39.138   6.479  1.00  0.00    -0.076 N 
ATOM      5  H13 UNL     1      66.146  39.402   5.550  1.00  0.00     0.274 HD
ATOM      6  H12 UNL     1      67.399  38.780   6.245  1.00  0.00     0.274 HD
ATOM      7  H11 UNL     1      65.890  38.392   6.861  1.00  0.00     0.274 HD
ENDBRANCH   3   4
ENDBRANCH   2   3
BRANCH   2   8
HETATM    8  C6  UNL     1      66.235  41.662   5.139  1.00  0.00     0.265 C 
BRANCH   8   9
HETATM    9  N2  UNL     1      67.332  40.982   4.488  1.00  0.00    -0.076 N 
ATOM     10  H23 UNL     1      68.209  41.127   4.988  1.00  0.00     0.274 HD
ATOM     11  H22 UNL     1      67.255  39.970   4.592  1.00  0.00     0.274 HD
ATOM     12  H21 UNL     1      67.414  41.249   3.507  1.00  0.00     0.274 HD
ENDBRANCH   8   9
ENDBRANCH   2   8
BRANCH   1  13
HETATM   13  C2  UNL     1      66.246  42.870   8.785  1.00  0.00     0.030 C 
HETATM   14  C1  UNL     1      64.817  42.751   9.328  1.00  0.00     0.016 C 
BRANCH  13  15
HETATM   15  C7  UNL     1      66.730  44.297   9.079  1.00  0.00     0.237 C 
BRANCH  15  16
HETATM   16  N3  UNL     1      66.501  44.622  10.477  1.00  0.00    -0.079 N 
ATOM     17  H33 UNL     1      66.456  45.629  10.634  1.00  0.00     0.274 HD
ATOM     18  H32 UNL     1      65.555  44.383  10.775  1.00  0.00     0.274 HD
ATOM     19  H31 UNL     1      67.209  44.176  11.059  1.00  0.00     0.274 HD
ENDBRANCH  15  16
ENDBRANCH  13  15
ENDBRANCH   1  13
TORSDOF 7
ENDMDL
MODEL 5
REMARK VINA RESULT: -3.295711348     11.317     12.346
REMARK  7 active torsions:
REMARK  status: ('A' for Active; 'I' for Inactive)
REMARK    1  A    between atoms: C2_2  and  C3_3 
REMARK    2  A    between atoms: C2_2  and  C7_15 
REMARK    3  A    between atoms: C4_4  and  C5_5 
REMARK    4  A    between atoms: C4_4  and  C6_10 
REMARK    5  A    between atoms: C5_5  and  N1_6 
REMARK    6  A    between atoms: C6_10  and  N2_11 
REMARK    7  A    between atoms: C7_15  and  N3_16 
ROOT
HETATM    1  C3  UNL     1      68.890  50.651   0.128  1.00  0.00    -0.015 C 
HETATM    2  C4  UNL     1      69.127  51.531   1.083  1.00  0.00    -0.033 C 
ENDROOT
BRANCH   2   3
HETATM    3  C5  UNL     1      69.592  52.876   0.728  1.00  0.00     0.265 C 
BRANCH   3   4
HETATM    4  N1  UNL     1      70.909  53.200   1.205  1.00  0.00    -0.076 N 
ATOM      5  H13 UNL     1      71.265  54.029   0.728  1.00  0.00     0.274 HD
ATOM      6  H12 UNL     1      70.863  53.555   2.161  1.00  0.00     0.274 HD
ATOM      7  H11 UNL     1      71.584  52.438   1.141  1.00  0.00     0.274 HD
ENDBRANCH   3   4
ENDBRANCH   2   3
BRANCH   2   8
HETATM    8  C6  UNL     1      68.913  51.119   2.511  1.00  0.00     0.265 C 
BRANCH   8   9
HETATM    9  N2  UNL     1      69.058  49.692   2.684  1.00  0.00    -0.076 N 
ATOM     10  H23 UNL     1      70.022  49.439   2.902  1.00  0.00     0.274 HD
ATOM     11  H22 UNL     1      68.613  49.375   3.545  1.00  0.00     0.274 HD
ATOM     12  H21 UNL     1      68.712  49.175   1.876  1.00  0.00     0.274 HD
ENDBRANCH   8   9
ENDBRANCH   2   8
BRANCH   1  13
HETATM   13  C2  UNL     1      69.015  50.787  -1.314  1.00  0.00     0.030 C 
HETATM   14  C1  UNL     1      67.895  49.965  -1.964  1.00  0.00     0.016 C 
BRANCH  13  15
HETATM   15  C7  UNL     1      70.350  50.173  -1.758  1.00  0.00     0.237 C 
BRANCH  15  16
HETATM   16  N3  UNL     1      71.124  49.772  -0.594  1.00  0.00    -0.079 N 
ATOM     17  H33 UNL     1      70.794  50.223   0.259  1.00  0.00     0.274 HD
ATOM     18  H32 UNL     1      70.943  48.804  -0.330  1.00  0.00     0.274 HD
ATOM     19  H31 UNL     1      72.116  49.945  -0.759  1.00  0.00     0.274 HD
ENDBRANCH  15  16
ENDBRANCH  13  15
ENDBRANCH   1  13
TORSDOF 7
ENDMDL
