MODEL 1
REMARK VINA RESULT: -6.644264156      0.000      0.000
REMARK  9 active torsions:
REMARK  status: ('A' for Active; 'I' for Inactive)
REMARK    1  A    between atoms: C2_2  and  C3_3 
REMARK    2  A    between atoms: C3_3  and  C5_5 
REMARK    3  A    between atoms: C11_17  and  C12_18 
REMARK    4  A    between atoms: C12_18  and  N3_19 
REMARK    5  A    between atoms: N3_19  and  C13_20 
REMARK    6  A    between atoms: C18_25  and  C19_26 
REMARK       I    between atoms: N4_28  and  C20_29 
REMARK    7  A    between atoms: C22_32  and  C23_33 
REMARK    8  A    between atoms: C23_33  and  C25_35 
REMARK    9  A    between atoms: C27_37  and  O5_38 
ROOT
HETATM    1  C5  UNL     1      -3.027   5.304  20.923  1.00  0.00     0.096 C 
HETATM    2  C6  UNL     1      -3.987   5.356  22.054  1.00  0.00     0.128 C 
HETATM    3  C7  UNL     1      -5.369   4.945  21.704  1.00  0.00     0.220 C 
HETATM    4  O1  UNL     1      -6.201   5.162  22.663  1.00  0.00    -0.274 OA
HETATM    5  N1  UNL     1      -5.865   4.386  20.536  1.00  0.00    -0.352 N 
ATOM      6  H1  UNL     1      -6.619   4.920  20.104  1.00  0.00     0.162 HD
HETATM    7  C8  UNL     1      -5.512   3.196  19.829  1.00  0.00     0.225 C 
HETATM    8  C9  UNL     1      -5.806   1.923  20.535  1.00  0.00     0.235 C 
HETATM    9  O2  UNL     1      -7.053   1.610  20.560  1.00  0.00    -0.272 OA
HETATM   10  N2  UNL     1      -4.885   1.053  21.154  1.00  0.00    -0.358 N 
ATOM     11  H2  UNL     1      -4.906   0.087  20.825  1.00  0.00     0.162 HD
HETATM   12  C10 UNL     1      -3.932   1.331  22.172  1.00  0.00     0.150 C 
HETATM   13  C11 UNL     1      -2.542   0.708  21.979  1.00  0.00     0.137 C 
HETATM   14  N4  UNL     1      -1.714   1.420  22.939  1.00  0.00    -0.306 N 
HETATM   15  C20 UNL     1      -1.541   0.676  24.136  1.00  0.00     0.221 C 
HETATM   16  C21 UNL     1      -2.147  -0.692  24.358  1.00  0.00     0.117 C 
HETATM   17  O4  UNL     1      -0.892   1.069  25.086  1.00  0.00    -0.273 OA
HETATM   18  C22 UNL     1      -1.113   2.671  22.866  1.00  0.00     0.090 C 
HETATM   19  C27 UNL     1      -1.199   3.594  21.725  1.00  0.00     0.164 C 
HETATM   20  N5  UNL     1      -2.086   4.229  20.908  1.00  0.00    -0.364 N 
ATOM     21  H5  UNL     1      -2.074   3.795  19.985  1.00  0.00     0.162 HD
ENDROOT
BRANCH  13  22
HETATM   22  C12 UNL     1      -2.148   0.477  20.607  1.00  0.00     0.265 C 
BRANCH  22  23
HETATM   23  N3  UNL     1      -1.386  -0.583  20.131  1.00  0.00    -0.055 N 
HETATM   24  C15 UNL     1      -2.049  -1.762  19.634  1.00  0.00     0.238 C 
HETATM   25  C16 UNL     1      -2.762  -1.442  18.367  1.00  0.00     0.030 C 
HETATM   26  C17 UNL     1      -1.883  -0.336  17.813  1.00  0.00     0.042 C 
HETATM   27  C18 UNL     1      -0.772  -0.166  18.834  1.00  0.00     0.251 C 
BRANCH  23  28
HETATM   28  C13 UNL     1      -0.273  -1.074  20.887  1.00  0.00     0.234 C 
HETATM   29  C14 UNL     1       0.567  -2.127  20.265  1.00  0.00     0.035 C 
ENDBRANCH  23  28
BRANCH  27  30
HETATM   30  C19 UNL     1      -0.371   1.230  18.803  1.00  0.00     0.264 C 
HETATM   31  O3  UNL     1       0.444   1.517  17.910  1.00  0.00    -0.305 OA
ENDBRANCH  27  30
ENDBRANCH  22  23
ENDBRANCH  13  22
BRANCH  18  32
HETATM   32  C23 UNL     1      -0.738   3.496  24.048  1.00  0.00    -0.053 C 
HETATM   33  C24 UNL     1       0.659   3.812  24.364  1.00  0.00     0.046 C 
BRANCH  32  34
HETATM   34  C25 UNL     1      -1.702   4.484  24.615  1.00  0.00     0.031 C 
HETATM   35  C26 UNL     1      -1.879   4.269  26.131  1.00  0.00     0.010 C 
ENDBRANCH  32  34
ENDBRANCH  18  32
BRANCH  19  36
HETATM   36  O5  UNL     1       0.057   3.937  21.356  1.00  0.00    -0.345 OA
ATOM     37  H5  UNL     1       0.022   4.781  20.921  1.00  0.00     0.219 HD
ENDBRANCH  19  36
BRANCH   1  38
HETATM   38  C3  UNL     1      -2.437   6.706  20.689  1.00  0.00     0.004 C 
HETATM   39  C4  UNL     1      -3.596   7.599  20.284  1.00  0.00     0.012 C 
BRANCH  38  40
HETATM   40  C2  UNL     1      -1.424   6.588  19.583  1.00  0.00     0.002 C 
HETATM   41  C1  UNL     1      -1.418   7.816  18.689  1.00  0.00     0.005 C 
ENDBRANCH  38  40
ENDBRANCH   1  38
TORSDOF 9
ENDMDL
MODEL 2
REMARK VINA RESULT: -6.522693378      2.756      7.087
REMARK  9 active torsions:
REMARK  status: ('A' for Active; 'I' for Inactive)
REMARK    1  A    between atoms: C2_2  and  C3_3 
REMARK    2  A    between atoms: C3_3  and  C5_5 
REMARK    3  A    between atoms: C11_17  and  C12_18 
REMARK    4  A    between atoms: C12_18  and  N3_19 
REMARK    5  A    between atoms: N3_19  and  C13_20 
REMARK    6  A    between atoms: C18_25  and  C19_26 
REMARK       I    between atoms: N4_28  and  C20_29 
REMARK    7  A    between atoms: C22_32  and  C23_33 
REMARK    8  A    between atoms: C23_33  and  C25_35 
REMARK    9  A    between atoms: C27_37  and  O5_38 
ROOT
HETATM    1  C5  UNL     1      -2.648   5.344  21.335  1.00  0.00     0.096 C 
HETATM    2  C6  UNL     1      -2.185   4.026  20.832  1.00  0.00     0.128 C 
HETATM    3  C7  UNL     1      -0.915   3.553  21.435  1.00  0.00     0.220 C 
HETATM    4  O1  UNL     1      -0.464   2.493  20.857  1.00  0.00    -0.274 OA
HETATM    5  N1  UNL     1      -0.178   4.073  22.489  1.00  0.00    -0.352 N 
ATOM      6  H1  UNL     1       0.786   4.303  22.251  1.00  0.00     0.162 HD
HETATM    7  C8  UNL     1      -0.526   4.343  23.847  1.00  0.00     0.225 C 
HETATM    8  C9  UNL     1      -0.828   3.151  24.680  1.00  0.00     0.235 C 
HETATM    9  O2  UNL     1       0.208   2.469  25.018  1.00  0.00    -0.272 OA
HETATM   10  N2  UNL     1      -2.092   2.712  25.122  1.00  0.00    -0.358 N 
ATOM     11  H2  UNL     1      -2.188   2.599  26.132  1.00  0.00     0.162 HD
HETATM   12  C10 UNL     1      -3.253   2.404  24.360  1.00  0.00     0.150 C 
HETATM   13  C11 UNL     1      -4.584   2.924  24.923  1.00  0.00     0.137 C 
HETATM   14  N4  UNL     1      -5.505   2.776  23.808  1.00  0.00    -0.306 N 
HETATM   15  C20 UNL     1      -6.278   1.590  23.921  1.00  0.00     0.221 C 
HETATM   16  C21 UNL     1      -6.146   0.619  25.073  1.00  0.00     0.117 C 
HETATM   17  O4  UNL     1      -7.113   1.250  23.105  1.00  0.00    -0.273 OA
HETATM   18  C22 UNL     1      -5.716   3.578  22.693  1.00  0.00     0.090 C 
HETATM   19  C27 UNL     1      -4.999   4.826  22.391  1.00  0.00     0.164 C 
HETATM   20  N5  UNL     1      -3.750   5.350  22.245  1.00  0.00    -0.364 N 
ATOM     21  H5  UNL     1      -3.528   5.940  23.048  1.00  0.00     0.162 HD
ENDROOT
BRANCH  13  22
HETATM   22  C12 UNL     1      -4.494   4.124  25.726  1.00  0.00     0.265 C 
BRANCH  22  23
HETATM   23  N3  UNL     1      -4.583   4.202  27.111  1.00  0.00    -0.055 N 
HETATM   24  C15 UNL     1      -3.429   4.611  27.870  1.00  0.00     0.238 C 
HETATM   25  C16 UNL     1      -3.134   6.046  27.605  1.00  0.00     0.030 C 
HETATM   26  C17 UNL     1      -4.526   6.577  27.313  1.00  0.00     0.042 C 
HETATM   27  C18 UNL     1      -5.444   5.376  27.453  1.00  0.00     0.251 C 
BRANCH  23  28
HETATM   28  C13 UNL     1      -5.162   3.130  27.863  1.00  0.00     0.234 C 
HETATM   29  C14 UNL     1      -4.235   2.187  28.536  1.00  0.00     0.035 C 
ENDBRANCH  23  28
BRANCH  27  30
HETATM   30  C19 UNL     1      -6.551   5.572  26.533  1.00  0.00     0.264 C 
HETATM   31  O3  UNL     1      -7.438   6.340  26.943  1.00  0.00    -0.305 OA
ENDBRANCH  27  30
ENDBRANCH  22  23
ENDBRANCH  13  22
BRANCH  18  32
HETATM   32  C23 UNL     1      -6.284   3.096  21.403  1.00  0.00    -0.053 C 
HETATM   33  C24 UNL     1      -7.597   3.536  20.920  1.00  0.00     0.046 C 
BRANCH  32  34
HETATM   34  C25 UNL     1      -5.383   2.637  20.307  1.00  0.00     0.031 C 
HETATM   35  C26 UNL     1      -4.792   1.249  20.628  1.00  0.00     0.010 C 
ENDBRANCH  32  34
ENDBRANCH  18  32
BRANCH  19  36
HETATM   36  O5  UNL     1      -5.910   5.804  22.181  1.00  0.00    -0.345 OA
ATOM     37  H5  UNL     1      -6.590   5.464  21.611  1.00  0.00     0.219 HD
ENDBRANCH  19  36
BRANCH   1  38
HETATM   38  C3  UNL     1      -2.753   6.331  20.158  1.00  0.00     0.004 C 
HETATM   39  C4  UNL     1      -1.346   6.833  19.890  1.00  0.00     0.012 C 
BRANCH  38  40
HETATM   40  C2  UNL     1      -3.661   7.449  20.591  1.00  0.00     0.002 C 
HETATM   41  C1  UNL     1      -3.413   8.718  19.793  1.00  0.00     0.005 C 
ENDBRANCH  38  40
ENDBRANCH   1  38
TORSDOF 9
ENDMDL
MODEL 3
REMARK VINA RESULT: -6.498119045      2.791      7.036
REMARK  9 active torsions:
REMARK  status: ('A' for Active; 'I' for Inactive)
REMARK    1  A    between atoms: C2_2  and  C3_3 
REMARK    2  A    between atoms: C3_3  and  C5_5 
REMARK    3  A    between atoms: C11_17  and  C12_18 
REMARK    4  A    between atoms: C12_18  and  N3_19 
REMARK    5  A    between atoms: N3_19  and  C13_20 
REMARK    6  A    between atoms: C18_25  and  C19_26 
REMARK       I    between atoms: N4_28  and  C20_29 
REMARK    7  A    between atoms: C22_32  and  C23_33 
REMARK    8  A    between atoms: C23_33  and  C25_35 
REMARK    9  A    between atoms: C27_37  and  O5_38 
ROOT
HETATM    1  C5  UNL     1      -2.562   5.396  21.231  1.00  0.00     0.096 C 
HETATM    2  C6  UNL     1      -2.121   4.043  20.811  1.00  0.00     0.128 C 
HETATM    3  C7  UNL     1      -0.874   3.575  21.465  1.00  0.00     0.220 C 
HETATM    4  O1  UNL     1      -0.437   2.475  20.954  1.00  0.00    -0.274 OA
HETATM    5  N1  UNL     1      -0.147   4.134  22.504  1.00  0.00    -0.352 N 
ATOM      6  H1  UNL     1       0.828   4.330  22.275  1.00  0.00     0.162 HD
HETATM    7  C8  UNL     1      -0.515   4.487  23.838  1.00  0.00     0.225 C 
HETATM    8  C9  UNL     1      -0.861   3.349  24.727  1.00  0.00     0.235 C 
HETATM    9  O2  UNL     1       0.152   2.663  25.124  1.00  0.00    -0.272 OA
HETATM   10  N2  UNL     1      -2.144   2.962  25.166  1.00  0.00    -0.358 N 
ATOM     11  H2  UNL     1      -2.263   2.907  26.178  1.00  0.00     0.162 HD
HETATM   12  C10 UNL     1      -3.296   2.639  24.398  1.00  0.00     0.150 C 
HETATM   13  C11 UNL     1      -4.626   3.220  24.904  1.00  0.00     0.137 C 
HETATM   14  N4  UNL     1      -5.528   3.032  23.779  1.00  0.00    -0.306 N 
HETATM   15  C20 UNL     1      -6.330   1.872  23.939  1.00  0.00     0.221 C 
HETATM   16  C21 UNL     1      -6.244   0.962  25.145  1.00  0.00     0.117 C 
HETATM   17  O4  UNL     1      -7.157   1.506  23.126  1.00  0.00    -0.273 OA
HETATM   18  C22 UNL     1      -5.697   3.777  22.618  1.00  0.00     0.090 C 
HETATM   19  C27 UNL     1      -4.945   4.990  22.264  1.00  0.00     0.164 C 
HETATM   20  N5  UNL     1      -3.681   5.477  22.116  1.00  0.00    -0.364 N 
ATOM     21  H5  UNL     1      -3.462   6.104  22.890  1.00  0.00     0.162 HD
ENDROOT
BRANCH  13  22
HETATM   22  C12 UNL     1      -4.523   4.459  25.642  1.00  0.00     0.265 C 
BRANCH  22  23
HETATM   23  N3  UNL     1      -5.165   4.768  26.835  1.00  0.00    -0.055 N 
HETATM   24  C15 UNL     1      -5.745   3.708  27.619  1.00  0.00     0.238 C 
HETATM   25  C16 UNL     1      -4.667   2.853  28.186  1.00  0.00     0.030 C 
HETATM   26  C17 UNL     1      -3.543   3.864  28.329  1.00  0.00     0.042 C 
HETATM   27  C18 UNL     1      -4.124   5.174  27.829  1.00  0.00     0.251 C 
BRANCH  23  28
HETATM   28  C13 UNL     1      -6.117   5.836  26.891  1.00  0.00     0.234 C 
HETATM   29  C14 UNL     1      -7.484   5.563  26.380  1.00  0.00     0.035 C 
ENDBRANCH  23  28
BRANCH  27  30
HETATM   30  C19 UNL     1      -3.032   5.934  27.248  1.00  0.00     0.264 C 
HETATM   31  O3  UNL     1      -1.909   5.420  27.388  1.00  0.00    -0.305 OA
ENDBRANCH  27  30
ENDBRANCH  22  23
ENDBRANCH  13  22
BRANCH  18  32
HETATM   32  C23 UNL     1      -6.251   3.238  21.344  1.00  0.00    -0.053 C 
HETATM   33  C24 UNL     1      -7.562   3.649  20.831  1.00  0.00     0.046 C 
BRANCH  32  34
HETATM   34  C25 UNL     1      -5.337   2.738  20.276  1.00  0.00     0.031 C 
HETATM   35  C26 UNL     1      -4.730   1.376  20.667  1.00  0.00     0.010 C 
ENDBRANCH  32  34
ENDBRANCH  18  32
BRANCH  19  36
HETATM   36  O5  UNL     1      -5.828   5.975  21.982  1.00  0.00    -0.345 OA
ATOM     37  H5  UNL     1      -5.744   6.652  22.642  1.00  0.00     0.219 HD
ENDBRANCH  19  36
BRANCH   1  38
HETATM   38  C3  UNL     1      -2.620   6.319  20.001  1.00  0.00     0.004 C 
HETATM   39  C4  UNL     1      -1.184   6.663  19.652  1.00  0.00     0.012 C 
BRANCH  38  40
HETATM   40  C2  UNL     1      -3.397   7.545  20.397  1.00  0.00     0.002 C 
HETATM   41  C1  UNL     1      -2.932   8.777  19.639  1.00  0.00     0.005 C 
ENDBRANCH  38  40
ENDBRANCH   1  38
TORSDOF 9
ENDMDL
MODEL 4
REMARK VINA RESULT: -6.257090872      2.798      6.940
REMARK  9 active torsions:
REMARK  status: ('A' for Active; 'I' for Inactive)
REMARK    1  A    between atoms: C2_2  and  C3_3 
REMARK    2  A    between atoms: C3_3  and  C5_5 
REMARK    3  A    between atoms: C11_17  and  C12_18 
REMARK    4  A    between atoms: C12_18  and  N3_19 
REMARK    5  A    between atoms: N3_19  and  C13_20 
REMARK    6  A    between atoms: C18_25  and  C19_26 
REMARK       I    between atoms: N4_28  and  C20_29 
REMARK    7  A    between atoms: C22_32  and  C23_33 
REMARK    8  A    between atoms: C23_33  and  C25_35 
REMARK    9  A    between atoms: C27_37  and  O5_38 
ROOT
HETATM    1  C5  UNL     1      -2.761   5.490  21.793  1.00  0.00     0.096 C 
HETATM    2  C6  UNL     1      -2.216   4.282  21.125  1.00  0.00     0.128 C 
HETATM    3  C7  UNL     1      -0.887   3.853  21.625  1.00  0.00     0.220 C 
HETATM    4  O1  UNL     1      -0.378   2.907  20.912  1.00  0.00    -0.274 OA
HETATM    5  N1  UNL     1      -0.150   4.310  22.707  1.00  0.00    -0.352 N 
ATOM      6  H1  UNL     1       0.782   4.647  22.465  1.00  0.00     0.162 HD
HETATM    7  C8  UNL     1      -0.459   4.394  24.099  1.00  0.00     0.225 C 
HETATM    8  C9  UNL     1      -0.628   3.094  24.796  1.00  0.00     0.235 C 
HETATM    9  O2  UNL     1       0.473   2.468  25.017  1.00  0.00    -0.272 OA
HETATM   10  N2  UNL     1      -1.833   2.502  25.226  1.00  0.00    -0.358 N 
ATOM     11  H2  UNL     1      -1.875   2.268  26.219  1.00  0.00     0.162 HD
HETATM   12  C10 UNL     1      -2.997   2.185  24.474  1.00  0.00     0.150 C 
HETATM   13  C11 UNL     1      -4.340   2.524  25.138  1.00  0.00     0.137 C 
HETATM   14  N4  UNL     1      -5.293   2.426  24.045  1.00  0.00    -0.306 N 
HETATM   15  C20 UNL     1      -5.963   1.174  24.045  1.00  0.00     0.221 C 
HETATM   16  C21 UNL     1      -5.704   0.093  25.071  1.00  0.00     0.117 C 
HETATM   17  O4  UNL     1      -6.803   0.859  23.224  1.00  0.00    -0.273 OA
HETATM   18  C22 UNL     1      -5.616   3.329  23.039  1.00  0.00     0.090 C 
HETATM   19  C27 UNL     1      -5.015   4.659  22.860  1.00  0.00     0.164 C 
HETATM   20  N5  UNL     1      -3.819   5.300  22.734  1.00  0.00    -0.364 N 
ATOM     21  H5  UNL     1      -3.611   5.812  23.593  1.00  0.00     0.162 HD
ENDROOT
BRANCH  13  22
HETATM   22  C12 UNL     1      -4.311   3.628  26.072  1.00  0.00     0.265 C 
BRANCH  22  23
HETATM   23  N3  UNL     1      -4.877   3.655  27.340  1.00  0.00    -0.055 N 
HETATM   24  C15 UNL     1      -4.864   2.460  28.145  1.00  0.00     0.238 C 
HETATM   25  C16 UNL     1      -3.468   2.145  28.554  1.00  0.00     0.030 C 
HETATM   26  C17 UNL     1      -2.862   3.536  28.607  1.00  0.00     0.042 C 
HETATM   27  C18 UNL     1      -3.992   4.474  28.225  1.00  0.00     0.251 C 
BRANCH  23  28
HETATM   28  C13 UNL     1      -6.175   4.225  27.544  1.00  0.00     0.234 C 
HETATM   29  C14 UNL     1      -6.833   4.866  26.379  1.00  0.00     0.035 C 
ENDBRANCH  23  28
BRANCH  27  30
HETATM   30  C19 UNL     1      -3.395   5.615  27.553  1.00  0.00     0.264 C 
HETATM   31  O3  UNL     1      -2.640   6.300  28.265  1.00  0.00    -0.305 OA
ENDBRANCH  27  30
ENDBRANCH  22  23
ENDBRANCH  13  22
BRANCH  18  32
HETATM   32  C23 UNL     1      -6.199   2.950  21.722  1.00  0.00    -0.053 C 
HETATM   33  C24 UNL     1      -7.574   3.300  21.351  1.00  0.00     0.046 C 
BRANCH  32  34
HETATM   34  C25 UNL     1      -5.315   2.730  20.541  1.00  0.00     0.031 C 
HETATM   35  C26 UNL     1      -4.509   1.424  20.695  1.00  0.00     0.010 C 
ENDBRANCH  32  34
ENDBRANCH  18  32
BRANCH  19  36
HETATM   36  O5  UNL     1      -6.009   5.574  22.797  1.00  0.00    -0.345 OA
ATOM     37  H5  UNL     1      -5.960   6.126  23.568  1.00  0.00     0.219 HD
ENDBRANCH  19  36
BRANCH   1  38
HETATM   38  C3  UNL     1      -2.995   6.592  20.744  1.00  0.00     0.004 C 
HETATM   39  C4  UNL     1      -3.975   6.023  19.734  1.00  0.00     0.012 C 
BRANCH  38  40
HETATM   40  C2  UNL     1      -1.666   6.894  20.107  1.00  0.00     0.002 C 
HETATM   41  C1  UNL     1      -1.785   7.964  19.035  1.00  0.00     0.005 C 
ENDBRANCH  38  40
ENDBRANCH   1  38
TORSDOF 9
ENDMDL
MODEL 5
REMARK VINA RESULT: -6.170967828      2.937      7.029
REMARK  9 active torsions:
REMARK  status: ('A' for Active; 'I' for Inactive)
REMARK    1  A    between atoms: C2_2  and  C3_3 
REMARK    2  A    between atoms: C3_3  and  C5_5 
REMARK    3  A    between atoms: C11_17  and  C12_18 
REMARK    4  A    between atoms: C12_18  and  N3_19 
REMARK    5  A    between atoms: N3_19  and  C13_20 
REMARK    6  A    between atoms: C18_25  and  C19_26 
REMARK       I    between atoms: N4_28  and  C20_29 
REMARK    7  A    between atoms: C22_32  and  C23_33 
REMARK    8  A    between atoms: C23_33  and  C25_35 
REMARK    9  A    between atoms: C27_37  and  O5_38 
ROOT
HETATM    1  C5  UNL     1      -2.817   5.430  21.804  1.00  0.00     0.096 C 
HETATM    2  C6  UNL     1      -2.284   4.220  21.128  1.00  0.00     0.128 C 
HETATM    3  C7  UNL     1      -0.920   3.828  21.561  1.00  0.00     0.220 C 
HETATM    4  O1  UNL     1      -0.431   2.881  20.838  1.00  0.00    -0.274 OA
HETATM    5  N1  UNL     1      -0.135   4.321  22.592  1.00  0.00    -0.352 N 
ATOM      6  H1  UNL     1       0.775   4.673  22.293  1.00  0.00     0.162 HD
HETATM    7  C8  UNL     1      -0.369   4.426  23.997  1.00  0.00     0.225 C 
HETATM    8  C9  UNL     1      -0.470   3.136  24.726  1.00  0.00     0.235 C 
HETATM    9  O2  UNL     1       0.655   2.537  24.896  1.00  0.00    -0.272 OA
HETATM   10  N2  UNL     1      -1.636   2.527  25.233  1.00  0.00    -0.358 N 
ATOM     11  H2  UNL     1      -1.619   2.311  26.230  1.00  0.00     0.162 HD
HETATM   12  C10 UNL     1      -2.833   2.172  24.551  1.00  0.00     0.150 C 
HETATM   13  C11 UNL     1      -4.144   2.495  25.284  1.00  0.00     0.137 C 
HETATM   14  N4  UNL     1      -5.154   2.357  24.247  1.00  0.00    -0.306 N 
HETATM   15  C20 UNL     1      -5.795   1.092  24.307  1.00  0.00     0.221 C 
HETATM   16  C21 UNL     1      -5.457   0.036  25.336  1.00  0.00     0.117 C 
HETATM   17  O4  UNL     1      -6.672   0.743  23.539  1.00  0.00    -0.273 OA
HETATM   18  C22 UNL     1      -5.551   3.234  23.245  1.00  0.00     0.090 C 
HETATM   19  C27 UNL     1      -4.990   4.572  23.009  1.00  0.00     0.164 C 
HETATM   20  N5  UNL     1      -3.818   5.236  22.806  1.00  0.00    -0.364 N 
ATOM     21  H5  UNL     1      -3.574   5.767  23.642  1.00  0.00     0.162 HD
ENDROOT
BRANCH  13  22
HETATM   22  C12 UNL     1      -4.088   3.618  26.195  1.00  0.00     0.265 C 
BRANCH  22  23
HETATM   23  N3  UNL     1      -4.173   3.564  27.580  1.00  0.00    -0.055 N 
HETATM   24  C15 UNL     1      -2.968   3.413  28.356  1.00  0.00     0.238 C 
HETATM   25  C16 UNL     1      -2.144   4.649  28.252  1.00  0.00     0.030 C 
HETATM   26  C17 UNL     1      -3.223   5.698  28.054  1.00  0.00     0.042 C 
HETATM   27  C18 UNL     1      -4.531   4.929  28.074  1.00  0.00     0.251 C 
BRANCH  23  28
HETATM   28  C13 UNL     1      -5.133   2.714  28.217  1.00  0.00     0.234 C 
HETATM   29  C14 UNL     1      -4.618   1.560  28.995  1.00  0.00     0.035 C 
ENDBRANCH  23  28
BRANCH  27  30
HETATM   30  C19 UNL     1      -5.459   5.635  27.208  1.00  0.00     0.264 C 
HETATM   31  O3  UNL     1      -6.485   6.049  27.774  1.00  0.00    -0.305 OA
ENDBRANCH  27  30
ENDBRANCH  22  23
ENDBRANCH  13  22
BRANCH  18  32
HETATM   32  C23 UNL     1      -6.198   2.818  21.968  1.00  0.00    -0.053 C 
HETATM   33  C24 UNL     1      -7.574   3.200  21.633  1.00  0.00     0.046 C 
BRANCH  32  34
HETATM   34  C25 UNL     1      -5.368   2.513  20.767  1.00  0.00     0.031 C 
HETATM   35  C26 UNL     1      -5.624   1.075  20.274  1.00  0.00     0.010 C 
ENDBRANCH  32  34
ENDBRANCH  18  32
BRANCH  19  36
HETATM   36  O5  UNL     1      -6.007   5.465  22.984  1.00  0.00    -0.345 OA
ATOM     37  H5  UNL     1      -6.221   5.702  23.879  1.00  0.00     0.219 HD
ENDBRANCH  19  36
BRANCH   1  38
HETATM   38  C3  UNL     1      -3.133   6.506  20.750  1.00  0.00     0.004 C 
HETATM   39  C4  UNL     1      -4.121   5.882  19.780  1.00  0.00     0.012 C 
BRANCH  38  40
HETATM   40  C2  UNL     1      -1.840   6.856  20.066  1.00  0.00     0.002 C 
HETATM   41  C1  UNL     1      -1.881   8.251  19.463  1.00  0.00     0.005 C 
ENDBRANCH  38  40
ENDBRANCH   1  38
TORSDOF 9
ENDMDL
