MODEL 1
REMARK VINA RESULT: -7.463909369      0.000      0.000
REMARK  11 active torsions:
REMARK  status: ('A' for Active; 'I' for Inactive)
REMARK    1  A    between atoms: C3_3  and  N1_4 
REMARK    2  A    between atoms: N2_7  and  C6_8 
REMARK    3  A    between atoms: C6_8  and  C7_9 
REMARK    4  A    between atoms: C7_9  and  C8_10 
REMARK       I    between atoms: C8_10  and  N3_12 
REMARK       I    between atoms: N4_18  and  C13_19 
REMARK    5  A    between atoms: N6_21  and  C14_23 
REMARK    6  A    between atoms: C17_26  and  C18_27 
REMARK    7  A    between atoms: C19_28  and  C20_29 
REMARK    8  A    between atoms: C20_29  and  C21_30 
REMARK    9  A    between atoms: C21_30  and  C22_31 
REMARK   10  A    between atoms: C22_31  and  N7_32 
REMARK   11  A    between atoms: C23_36  and  C24_37 
ROOT
HETATM    1  C1  UNL     1      -1.289   7.951  32.049  1.00  0.00     0.013 C 
HETATM    2  C2  UNL     1      -2.142   7.248  31.583  1.00  0.00    -0.089 C 
HETATM    3  C3  UNL     1      -3.185   6.382  31.041  1.00  0.00     0.330 C 
ENDROOT
BRANCH   3   4
HETATM    4  N1  UNL     1      -2.771   5.614  29.919  1.00  0.00    -0.052 N 
HETATM    5  C4  UNL     1      -3.903   4.992  29.221  1.00  0.00     0.266 C 
HETATM    6  C5  UNL     1      -3.368   3.829  28.426  1.00  0.00     0.265 C 
HETATM    7  N2  UNL     1      -2.011   4.174  27.960  1.00  0.00    -0.062 N 
HETATM    8  C25 UNL     1      -2.007   5.557  27.630  1.00  0.00     0.265 C 
HETATM    9  C27 UNL     1      -1.193   3.998  29.200  1.00  0.00     0.265 C 
HETATM   10  C26 UNL     1      -1.921   6.329  28.980  1.00  0.00     0.266 C 
HETATM   11  C28 UNL     1      -1.921   4.505  30.413  1.00  0.00     0.266 C 
BRANCH   7  12
HETATM   12  C6  UNL     1      -1.505   3.229  27.046  1.00  0.00     0.247 C 
BRANCH  12  13
HETATM   13  C7  UNL     1      -0.439   3.550  26.100  1.00  0.00     0.131 C 
BRANCH  13  14
HETATM   14  C8  UNL     1      -0.629   3.341  24.665  1.00  0.00     0.222 C 
HETATM   15  O1  UNL     1       0.200   2.718  23.959  1.00  0.00    -0.273 OA
HETATM   16  N3  UNL     1      -1.764   3.831  23.967  1.00  0.00    -0.333 N 
HETATM   17  C9  UNL     1      -2.911   4.614  24.524  1.00  0.00     0.130 C 
HETATM   18  C11 UNL     1      -2.397   3.925  22.736  1.00  0.00     0.133 C 
HETATM   19  C10 UNL     1      -3.113   5.230  23.146  1.00  0.00     0.062 C 
HETATM   20  C12 UNL     1      -3.494   2.953  22.397  1.00  0.00     0.256 C 
HETATM   21  C23 UNL     1      -1.701   4.018  21.433  1.00  0.00     0.151 C 
HETATM   22  O2  UNL     1      -3.871   1.961  23.053  1.00  0.00    -0.270 OA
HETATM   23  N4  UNL     1      -3.980   3.450  21.156  1.00  0.00    -0.280 N 
HETATM   24  C13 UNL     1      -5.316   3.381  20.714  1.00  0.00     0.194 C 
HETATM   25  C17 UNL     1      -2.881   4.047  20.433  1.00  0.00     0.135 C 
HETATM   26  N5  UNL     1      -5.711   3.906  19.430  1.00  0.00    -0.063 NA
HETATM   27  N6  UNL     1      -6.270   2.847  21.416  1.00  0.00    -0.360 N 
ATOM     28  H6  UNL     1      -6.048   2.459  22.332  1.00  0.00     0.162 HD
BRANCH  27  29
HETATM   29  C14 UNL     1      -7.637   2.785  20.947  1.00  0.00     0.076 C 
HETATM   30  C15 UNL     1      -8.538   3.449  21.972  1.00  0.00     0.032 C 
HETATM   31  C16 UNL     1      -8.040   1.334  20.758  1.00  0.00     0.032 C 
ENDBRANCH  27  29
BRANCH  25  32
HETATM   32  C18 UNL     1      -3.101   5.427  19.986  1.00  0.00    -0.004 C 
HETATM   33  C19 UNL     1      -2.118   6.289  19.768  1.00  0.00    -0.029 C 
BRANCH  33  34
HETATM   34  C20 UNL     1      -2.349   7.682  19.316  1.00  0.00     0.028 C 
BRANCH  34  35
HETATM   35  C21 UNL     1      -3.733   8.199  19.616  1.00  0.00     0.031 C 
BRANCH  35  36
HETATM   36  C22 UNL     1      -3.771   9.660  19.891  1.00  0.00     0.230 C 
BRANCH  36  37
HETATM   37  N7  UNL     1      -2.888  10.451  19.067  1.00  0.00    -0.079 N 
ATOM     38  H73 UNL     1      -2.049   9.919  18.835  1.00  0.00     0.274 HD
ATOM     39  H72 UNL     1      -3.284  10.569  18.135  1.00  0.00     0.274 HD
ATOM     40  H71 UNL     1      -2.635  11.356  19.463  1.00  0.00     0.274 HD
ENDBRANCH  36  37
ENDBRANCH  35  36
ENDBRANCH  34  35
ENDBRANCH  33  34
ENDBRANCH  25  32
BRANCH  21  41
HETATM   41  C24 UNL     1      -0.937   2.819  21.084  1.00  0.00     0.182 C 
HETATM   42  O3  UNL     1       0.319   2.821  21.129  1.00  0.00    -0.648 OA
HETATM   43  O4  UNL     1      -1.562   1.645  20.692  1.00  0.00    -0.648 OA
ENDBRANCH  21  41
ENDBRANCH  13  14
ENDBRANCH  12  13
ENDBRANCH   7  12
ENDBRANCH   3   4
TORSDOF 11
ENDMDL
MODEL 2
REMARK VINA RESULT: -7.172702758      2.587      3.140
REMARK  11 active torsions:
REMARK  status: ('A' for Active; 'I' for Inactive)
REMARK    1  A    between atoms: C3_3  and  N1_4 
REMARK    2  A    between atoms: N2_7  and  C6_8 
REMARK    3  A    between atoms: C6_8  and  C7_9 
REMARK    4  A    between atoms: C7_9  and  C8_10 
REMARK       I    between atoms: C8_10  and  N3_12 
REMARK       I    between atoms: N4_18  and  C13_19 
REMARK    5  A    between atoms: N6_21  and  C14_23 
REMARK    6  A    between atoms: C17_26  and  C18_27 
REMARK    7  A    between atoms: C19_28  and  C20_29 
REMARK    8  A    between atoms: C20_29  and  C21_30 
REMARK    9  A    between atoms: C21_30  and  C22_31 
REMARK   10  A    between atoms: C22_31  and  N7_32 
REMARK   11  A    between atoms: C23_36  and  C24_37 
ROOT
HETATM    1  C1  UNL     1      -0.939   1.516  31.980  1.00  0.00     0.013 C 
HETATM    2  C2  UNL     1      -1.240   1.056  30.914  1.00  0.00    -0.089 C 
HETATM    3  C3  UNL     1      -1.606   0.471  29.627  1.00  0.00     0.330 C 
ENDROOT
BRANCH   3   4
HETATM    4  N1  UNL     1      -0.781   0.891  28.548  1.00  0.00    -0.052 N 
HETATM    5  C4  UNL     1      -0.685   2.353  28.456  1.00  0.00     0.266 C 
HETATM    6  C5  UNL     1      -0.265   2.697  27.050  1.00  0.00     0.265 C 
HETATM    7  N2  UNL     1       0.633   1.633  26.563  1.00  0.00    -0.062 N 
HETATM    8  C25 UNL     1       1.440   1.215  27.657  1.00  0.00     0.265 C 
HETATM    9  C27 UNL     1      -0.323   0.525  26.251  1.00  0.00     0.265 C 
HETATM   10  C26 UNL     1       0.544   0.289  28.533  1.00  0.00     0.266 C 
HETATM   11  C28 UNL     1      -1.408   0.431  27.286  1.00  0.00     0.266 C 
BRANCH   7  12
HETATM   12  C6  UNL     1       1.232   1.962  25.331  1.00  0.00     0.247 C 
BRANCH  12  13
HETATM   13  C7  UNL     1       0.860   3.155  24.576  1.00  0.00     0.131 C 
BRANCH  13  14
HETATM   14  C8  UNL     1       0.060   3.046  23.356  1.00  0.00     0.222 C 
HETATM   15  O1  UNL     1       0.449   2.405  22.350  1.00  0.00    -0.273 OA
HETATM   16  N3  UNL     1      -1.213   3.659  23.223  1.00  0.00    -0.333 N 
HETATM   17  C9  UNL     1      -1.936   4.492  24.233  1.00  0.00     0.130 C 
HETATM   18  C11 UNL     1      -2.297   3.872  22.384  1.00  0.00     0.133 C 
HETATM   19  C10 UNL     1      -2.647   5.201  23.088  1.00  0.00     0.062 C 
HETATM   20  C12 UNL     1      -3.519   3.007  22.527  1.00  0.00     0.256 C 
HETATM   21  C23 UNL     1      -2.216   3.990  20.911  1.00  0.00     0.151 C 
HETATM   22  O2  UNL     1      -3.672   2.009  23.260  1.00  0.00    -0.270 OA
HETATM   23  N4  UNL     1      -4.438   3.611  21.624  1.00  0.00    -0.280 N 
HETATM   24  C13 UNL     1      -5.836   3.669  21.796  1.00  0.00     0.194 C 
HETATM   25  C17 UNL     1      -3.700   4.167  20.513  1.00  0.00     0.135 C 
HETATM   26  N5  UNL     1      -6.688   4.297  20.816  1.00  0.00    -0.063 NA
HETATM   27  N6  UNL     1      -6.446   3.168  22.828  1.00  0.00    -0.360 N 
ATOM     28  H6  UNL     1      -5.893   2.710  23.552  1.00  0.00     0.162 HD
BRANCH  27  29
HETATM   29  C14 UNL     1      -7.882   3.236  22.989  1.00  0.00     0.076 C 
HETATM   30  C15 UNL     1      -8.196   3.901  24.316  1.00  0.00     0.032 C 
HETATM   31  C16 UNL     1      -8.461   1.833  22.957  1.00  0.00     0.032 C 
ENDBRANCH  27  29
BRANCH  25  32
HETATM   32  C18 UNL     1      -3.961   5.582  20.233  1.00  0.00    -0.004 C 
HETATM   33  C19 UNL     1      -3.023   6.434  19.844  1.00  0.00    -0.029 C 
BRANCH  33  34
HETATM   34  C20 UNL     1      -3.293   7.864  19.563  1.00  0.00     0.028 C 
BRANCH  34  35
HETATM   35  C21 UNL     1      -2.063   8.656  19.196  1.00  0.00     0.031 C 
BRANCH  35  36
HETATM   36  C22 UNL     1      -2.134  10.083  19.610  1.00  0.00     0.230 C 
BRANCH  36  37
HETATM   37  N7  UNL     1      -0.870  10.661  19.999  1.00  0.00    -0.079 N 
ATOM     38  H73 UNL     1      -0.451  10.120  20.755  1.00  0.00     0.274 HD
ATOM     39  H72 UNL     1      -0.174  10.512  19.269  1.00  0.00     0.274 HD
ATOM     40  H71 UNL     1      -0.914  11.648  20.251  1.00  0.00     0.274 HD
ENDBRANCH  36  37
ENDBRANCH  35  36
ENDBRANCH  34  35
ENDBRANCH  33  34
ENDBRANCH  25  32
BRANCH  21  41
HETATM   41  C24 UNL     1      -1.787   2.759  20.242  1.00  0.00     0.182 C 
HETATM   42  O3  UNL     1      -0.889   2.784  19.365  1.00  0.00    -0.648 OA
HETATM   43  O4  UNL     1      -2.352   1.531  20.548  1.00  0.00    -0.648 OA
ENDBRANCH  21  41
ENDBRANCH  13  14
ENDBRANCH  12  13
ENDBRANCH   7  12
ENDBRANCH   3   4
TORSDOF 11
ENDMDL
MODEL 3
REMARK VINA RESULT: -7.136326890      1.380      1.867
REMARK  11 active torsions:
REMARK  status: ('A' for Active; 'I' for Inactive)
REMARK    1  A    between atoms: C3_3  and  N1_4 
REMARK    2  A    between atoms: N2_7  and  C6_8 
REMARK    3  A    between atoms: C6_8  and  C7_9 
REMARK    4  A    between atoms: C7_9  and  C8_10 
REMARK       I    between atoms: C8_10  and  N3_12 
REMARK       I    between atoms: N4_18  and  C13_19 
REMARK    5  A    between atoms: N6_21  and  C14_23 
REMARK    6  A    between atoms: C17_26  and  C18_27 
REMARK    7  A    between atoms: C19_28  and  C20_29 
REMARK    8  A    between atoms: C20_29  and  C21_30 
REMARK    9  A    between atoms: C21_30  and  C22_31 
REMARK   10  A    between atoms: C22_31  and  N7_32 
REMARK   11  A    between atoms: C23_36  and  C24_37 
ROOT
HETATM    1  C1  UNL     1      -3.063   5.681  31.258  1.00  0.00     0.013 C 
HETATM    2  C2  UNL     1      -2.781   4.515  31.232  1.00  0.00    -0.089 C 
HETATM    3  C3  UNL     1      -2.425   3.099  31.224  1.00  0.00     0.330 C 
ENDROOT
BRANCH   3   4
HETATM    4  N1  UNL     1      -1.862   2.654  29.997  1.00  0.00    -0.052 N 
HETATM    5  C4  UNL     1      -1.492   1.233  30.036  1.00  0.00     0.266 C 
HETATM    6  C5  UNL     1      -0.469   0.997  28.956  1.00  0.00     0.265 C 
HETATM    7  N2  UNL     1      -0.781   1.887  27.821  1.00  0.00    -0.062 N 
HETATM    8  C25 UNL     1      -2.196   1.961  27.708  1.00  0.00     0.265 C 
HETATM    9  C27 UNL     1      -0.291   3.213  28.312  1.00  0.00     0.265 C 
HETATM   10  C26 UNL     1      -2.674   2.939  28.824  1.00  0.00     0.266 C 
HETATM   11  C28 UNL     1      -0.608   3.408  29.768  1.00  0.00     0.266 C 
BRANCH   7  12
HETATM   12  C6  UNL     1       0.003   1.601  26.686  1.00  0.00     0.247 C 
BRANCH  12  13
HETATM   13  C7  UNL     1       0.416   2.634  25.741  1.00  0.00     0.131 C 
BRANCH  13  14
HETATM   14  C8  UNL     1       0.061   2.535  24.325  1.00  0.00     0.222 C 
HETATM   15  O1  UNL     1       0.716   1.841  23.512  1.00  0.00    -0.273 OA
HETATM   16  N3  UNL     1      -1.053   3.220  23.771  1.00  0.00    -0.333 N 
HETATM   17  C9  UNL     1      -2.012   4.126  24.475  1.00  0.00     0.130 C 
HETATM   18  C11 UNL     1      -1.780   3.471  22.617  1.00  0.00     0.133 C 
HETATM   19  C10 UNL     1      -2.253   4.841  23.152  1.00  0.00     0.062 C 
HETATM   20  C12 UNL     1      -3.036   2.686  22.353  1.00  0.00     0.256 C 
HETATM   21  C23 UNL     1      -1.208   3.538  21.254  1.00  0.00     0.151 C 
HETATM   22  O2  UNL     1      -3.490   1.723  23.003  1.00  0.00    -0.270 OA
HETATM   23  N4  UNL     1      -3.561   3.316  21.191  1.00  0.00    -0.280 N 
HETATM   24  C13 UNL     1      -4.929   3.463  20.887  1.00  0.00     0.194 C 
HETATM   25  C17 UNL     1      -2.461   3.791  20.383  1.00  0.00     0.135 C 
HETATM   26  N5  UNL     1      -5.364   4.110  19.674  1.00  0.00    -0.063 NA
HETATM   27  N6  UNL     1      -5.880   3.033  21.662  1.00  0.00    -0.360 N 
ATOM     28  H6  UNL     1      -5.629   2.566  22.533  1.00  0.00     0.162 HD
BRANCH  27  29
HETATM   29  C14 UNL     1      -7.279   3.192  21.335  1.00  0.00     0.076 C 
HETATM   30  C15 UNL     1      -8.003   3.760  22.542  1.00  0.00     0.032 C 
HETATM   31  C16 UNL     1      -7.867   1.844  20.959  1.00  0.00     0.032 C 
ENDBRANCH  27  29
BRANCH  25  32
HETATM   32  C18 UNL     1      -2.518   5.210  20.018  1.00  0.00    -0.004 C 
HETATM   33  C19 UNL     1      -1.446   5.930  19.722  1.00  0.00    -0.029 C 
BRANCH  33  34
HETATM   34  C20 UNL     1      -1.511   7.365  19.354  1.00  0.00     0.028 C 
BRANCH  34  35
HETATM   35  C21 UNL     1      -2.847   8.005  19.633  1.00  0.00     0.031 C 
BRANCH  35  36
HETATM   36  C22 UNL     1      -2.801   9.492  19.633  1.00  0.00     0.230 C 
BRANCH  36  37
HETATM   37  N7  UNL     1      -4.094  10.135  19.633  1.00  0.00    -0.079 N 
ATOM     38  H73 UNL     1      -4.520  10.074  18.709  1.00  0.00     0.274 HD
ATOM     39  H72 UNL     1      -4.763   9.584  20.172  1.00  0.00     0.274 HD
ATOM     40  H71 UNL     1      -4.088  11.102  19.957  1.00  0.00     0.274 HD
ENDBRANCH  36  37
ENDBRANCH  35  36
ENDBRANCH  34  35
ENDBRANCH  33  34
ENDBRANCH  25  32
BRANCH  21  41
HETATM   41  C24 UNL     1      -0.666   2.263  20.778  1.00  0.00     0.182 C 
HETATM   42  O3  UNL     1       0.574   2.059  20.758  1.00  0.00    -0.648 OA
HETATM   43  O4  UNL     1      -1.491   1.242  20.333  1.00  0.00    -0.648 OA
ENDBRANCH  21  41
ENDBRANCH  13  14
ENDBRANCH  12  13
ENDBRANCH   7  12
ENDBRANCH   3   4
TORSDOF 11
ENDMDL
MODEL 4
REMARK VINA RESULT: -7.088627668      5.711      9.359
REMARK  11 active torsions:
REMARK  status: ('A' for Active; 'I' for Inactive)
REMARK    1  A    between atoms: C3_3  and  N1_4 
REMARK    2  A    between atoms: N2_7  and  C6_8 
REMARK    3  A    between atoms: C6_8  and  C7_9 
REMARK    4  A    between atoms: C7_9  and  C8_10 
REMARK       I    between atoms: C8_10  and  N3_12 
REMARK       I    between atoms: N4_18  and  C13_19 
REMARK    5  A    between atoms: N6_21  and  C14_23 
REMARK    6  A    between atoms: C17_26  and  C18_27 
REMARK    7  A    between atoms: C19_28  and  C20_29 
REMARK    8  A    between atoms: C20_29  and  C21_30 
REMARK    9  A    between atoms: C21_30  and  C22_31 
REMARK   10  A    between atoms: C22_31  and  N7_32 
REMARK   11  A    between atoms: C23_36  and  C24_37 
ROOT
HETATM    1  C1  UNL     1      -1.698   8.944  19.629  1.00  0.00     0.013 C 
HETATM    2  C2  UNL     1      -2.546   8.095  19.635  1.00  0.00    -0.089 C 
HETATM    3  C3  UNL     1      -3.595   7.079  19.654  1.00  0.00     0.330 C 
ENDROOT
BRANCH   3   4
HETATM    4  N1  UNL     1      -3.196   5.850  20.245  1.00  0.00    -0.052 N 
HETATM    5  C4  UNL     1      -4.193   4.789  20.052  1.00  0.00     0.266 C 
HETATM    6  C5  UNL     1      -3.959   3.742  21.110  1.00  0.00     0.265 C 
HETATM    7  N2  UNL     1      -2.510   3.675  21.380  1.00  0.00    -0.062 N 
HETATM    8  C25 UNL     1      -1.832   3.861  20.144  1.00  0.00     0.265 C 
HETATM    9  C27 UNL     1      -2.283   4.896  22.214  1.00  0.00     0.265 C 
HETATM   10  C26 UNL     1      -1.875   5.390  19.847  1.00  0.00     0.266 C 
HETATM   11  C28 UNL     1      -3.086   6.061  21.708  1.00  0.00     0.266 C 
BRANCH   7  12
HETATM   12  C6  UNL     1      -2.172   2.590  22.214  1.00  0.00     0.247 C 
BRANCH  12  13
HETATM   13  C7  UNL     1      -0.845   1.982  22.204  1.00  0.00     0.131 C 
BRANCH  13  14
HETATM   14  C8  UNL     1      -0.676   0.566  21.877  1.00  0.00     0.222 C 
HETATM   15  O1  UNL     1      -1.054  -0.353  22.643  1.00  0.00    -0.273 OA
HETATM   16  N3  UNL     1      -0.069   0.130  20.670  1.00  0.00    -0.333 N 
HETATM   17  C9  UNL     1       0.489   0.977  19.571  1.00  0.00     0.130 C 
HETATM   18  C11 UNL     1       0.318  -0.969  19.917  1.00  0.00     0.133 C 
HETATM   19  C10 UNL     1       1.437  -0.163  19.222  1.00  0.00     0.062 C 
HETATM   20  C12 UNL     1      -0.577  -1.454  18.809  1.00  0.00     0.256 C 
HETATM   21  C23 UNL     1       0.782  -2.257  20.479  1.00  0.00     0.151 C 
HETATM   22  O2  UNL     1      -1.722  -1.055  18.516  1.00  0.00    -0.270 OA
HETATM   23  N4  UNL     1       0.208  -2.468  18.194  1.00  0.00    -0.280 N 
HETATM   24  C13 UNL     1       0.201  -2.790  16.822  1.00  0.00     0.194 C 
HETATM   25  C17 UNL     1       1.022  -3.102  19.205  1.00  0.00     0.135 C 
HETATM   26  N5  UNL     1       1.028  -3.846  16.293  1.00  0.00    -0.063 NA
HETATM   27  N6  UNL     1      -0.539  -2.171  15.951  1.00  0.00    -0.360 N 
ATOM     28  H6  UNL     1      -1.146  -1.416  16.270  1.00  0.00     0.162 HD
BRANCH  27  29
HETATM   29  C14 UNL     1      -0.536  -2.514  14.547  1.00  0.00     0.076 C 
HETATM   30  C15 UNL     1      -0.270  -1.258  13.736  1.00  0.00     0.032 C 
HETATM   31  C16 UNL     1      -1.880  -3.106  14.167  1.00  0.00     0.032 C 
ENDBRANCH  27  29
BRANCH  25  32
HETATM   32  C18 UNL     1       2.460  -3.144  18.918  1.00  0.00    -0.004 C 
HETATM   33  C19 UNL     1       3.390  -3.209  19.859  1.00  0.00    -0.029 C 
BRANCH  33  34
HETATM   34  C20 UNL     1       4.842  -3.251  19.561  1.00  0.00     0.028 C 
BRANCH  34  35
HETATM   35  C21 UNL     1       5.675  -3.839  20.671  1.00  0.00     0.031 C 
BRANCH  35  36
HETATM   36  C22 UNL     1       4.985  -3.842  21.989  1.00  0.00     0.230 C 
BRANCH  36  37
HETATM   37  N7  UNL     1       5.712  -3.190  23.052  1.00  0.00    -0.079 N 
ATOM     38  H73 UNL     1       5.536  -2.186  23.037  1.00  0.00     0.274 HD
ATOM     39  H72 UNL     1       5.305  -3.427  23.956  1.00  0.00     0.274 HD
ATOM     40  H71 UNL     1       6.716  -3.374  23.055  1.00  0.00     0.274 HD
ENDBRANCH  36  37
ENDBRANCH  35  36
ENDBRANCH  34  35
ENDBRANCH  33  34
ENDBRANCH  25  32
BRANCH  21  41
HETATM   41  C24 UNL     1      -0.249  -2.981  21.226  1.00  0.00     0.182 C 
HETATM   42  O3  UNL     1       0.007  -3.491  22.345  1.00  0.00    -0.648 OA
HETATM   43  O4  UNL     1      -1.536  -3.132  20.731  1.00  0.00    -0.648 OA
ENDBRANCH  21  41
ENDBRANCH  13  14
ENDBRANCH  12  13
ENDBRANCH   7  12
ENDBRANCH   3   4
TORSDOF 11
ENDMDL
MODEL 5
REMARK VINA RESULT: -6.995487191      2.952      3.577
REMARK  11 active torsions:
REMARK  status: ('A' for Active; 'I' for Inactive)
REMARK    1  A    between atoms: C3_3  and  N1_4 
REMARK    2  A    between atoms: N2_7  and  C6_8 
REMARK    3  A    between atoms: C6_8  and  C7_9 
REMARK    4  A    between atoms: C7_9  and  C8_10 
REMARK       I    between atoms: C8_10  and  N3_12 
REMARK       I    between atoms: N4_18  and  C13_19 
REMARK    5  A    between atoms: N6_21  and  C14_23 
REMARK    6  A    between atoms: C17_26  and  C18_27 
REMARK    7  A    between atoms: C19_28  and  C20_29 
REMARK    8  A    between atoms: C20_29  and  C21_30 
REMARK    9  A    between atoms: C21_30  and  C22_31 
REMARK   10  A    between atoms: C22_31  and  N7_32 
REMARK   11  A    between atoms: C23_36  and  C24_37 
ROOT
HETATM    1  C1  UNL     1      -2.621  -0.559  30.292  1.00  0.00     0.013 C 
HETATM    2  C2  UNL     1      -1.458  -0.526  30.000  1.00  0.00    -0.089 C 
HETATM    3  C3  UNL     1      -0.036  -0.478  29.668  1.00  0.00     0.330 C 
ENDROOT
BRANCH   3   4
HETATM    4  N1  UNL     1       0.255   0.253  28.485  1.00  0.00    -0.052 N 
HETATM    5  C4  UNL     1      -0.510  -0.230  27.329  1.00  0.00     0.266 C 
HETATM    6  C5  UNL     1       0.215   0.210  26.083  1.00  0.00     0.265 C 
HETATM    7  N2  UNL     1       0.845   1.516  26.352  1.00  0.00    -0.062 N 
HETATM    8  C25 UNL     1      -0.042   2.261  27.177  1.00  0.00     0.265 C 
HETATM    9  C27 UNL     1       2.030   1.134  27.183  1.00  0.00     0.265 C 
HETATM   10  C26 UNL     1       0.123   1.695  28.620  1.00  0.00     0.266 C 
HETATM   11  C28 UNL     1       1.685   0.044  28.158  1.00  0.00     0.266 C 
BRANCH   7  12
HETATM   12  C6  UNL     1       1.383   2.100  25.188  1.00  0.00     0.247 C 
BRANCH  12  13
HETATM   13  C7  UNL     1       0.783   3.269  24.552  1.00  0.00     0.131 C 
BRANCH  13  14
HETATM   14  C8  UNL     1      -0.019   3.127  23.337  1.00  0.00     0.222 C 
HETATM   15  O1  UNL     1       0.397   2.521  22.320  1.00  0.00    -0.273 OA
HETATM   16  N3  UNL     1      -1.327   3.667  23.221  1.00  0.00    -0.333 N 
HETATM   17  C9  UNL     1      -2.089   4.445  24.246  1.00  0.00     0.130 C 
HETATM   18  C11 UNL     1      -2.429   3.826  22.393  1.00  0.00     0.133 C 
HETATM   19  C10 UNL     1      -2.849   5.125  23.115  1.00  0.00     0.062 C 
HETATM   20  C12 UNL     1      -3.597   2.890  22.535  1.00  0.00     0.256 C 
HETATM   21  C23 UNL     1      -2.367   3.965  20.921  1.00  0.00     0.151 C 
HETATM   22  O2  UNL     1      -3.686   1.877  23.257  1.00  0.00    -0.270 OA
HETATM   23  N4  UNL     1      -4.557   3.450  21.647  1.00  0.00    -0.280 N 
HETATM   24  C13 UNL     1      -5.954   3.424  21.830  1.00  0.00     0.194 C 
HETATM   25  C17 UNL     1      -3.862   4.059  20.537  1.00  0.00     0.135 C 
HETATM   26  N5  UNL     1      -6.850   4.012  20.864  1.00  0.00    -0.063 NA
HETATM   27  N6  UNL     1      -6.526   2.877  22.861  1.00  0.00    -0.360 N 
ATOM     28  H6  UNL     1      -5.941   2.445  23.575  1.00  0.00     0.162 HD
BRANCH  27  29
HETATM   29  C14 UNL     1      -7.962   2.860  23.033  1.00  0.00     0.076 C 
HETATM   30  C15 UNL     1      -8.323   3.725  24.226  1.00  0.00     0.032 C 
HETATM   31  C16 UNL     1      -8.426   1.433  23.262  1.00  0.00     0.032 C 
ENDBRANCH  27  29
BRANCH  25  32
HETATM   32  C18 UNL     1      -4.207   5.460  20.274  1.00  0.00    -0.004 C 
HETATM   33  C19 UNL     1      -3.334   6.356  19.836  1.00  0.00    -0.029 C 
BRANCH  33  34
HETATM   34  C20 UNL     1      -3.689   7.772  19.574  1.00  0.00     0.028 C 
BRANCH  34  35
HETATM   35  C21 UNL     1      -2.504   8.705  19.561  1.00  0.00     0.031 C 
BRANCH  35  36
HETATM   36  C22 UNL     1      -2.885  10.143  19.576  1.00  0.00     0.230 C 
BRANCH  36  37
HETATM   37  N7  UNL     1      -4.257  10.399  19.943  1.00  0.00    -0.079 N 
ATOM     38  H73 UNL     1      -4.789   9.528  19.956  1.00  0.00     0.274 HD
ATOM     39  H72 UNL     1      -4.318  10.656  20.928  1.00  0.00     0.274 HD
ATOM     40  H71 UNL     1      -4.729  11.094  19.364  1.00  0.00     0.274 HD
ENDBRANCH  36  37
ENDBRANCH  35  36
ENDBRANCH  34  35
ENDBRANCH  33  34
ENDBRANCH  25  32
BRANCH  21  41
HETATM   41  C24 UNL     1      -1.873   2.769  20.235  1.00  0.00     0.182 C 
HETATM   42  O3  UNL     1      -0.908   2.839  19.434  1.00  0.00    -0.648 OA
HETATM   43  O4  UNL     1      -2.447   1.523  20.439  1.00  0.00    -0.648 OA
ENDBRANCH  21  41
ENDBRANCH  13  14
ENDBRANCH  12  13
ENDBRANCH   7  12
ENDBRANCH   3   4
TORSDOF 11
ENDMDL
