MODEL 1
REMARK VINA RESULT: -7.216896587      0.000      0.000
REMARK  13 active torsions:
REMARK  status: ('A' for Active; 'I' for Inactive)
REMARK       I    between atoms: C2_2  and  N1_4 
REMARK    1  A    between atoms: N1_4  and  C3_6 
REMARK    2  A    between atoms: C3_6  and  C4_7 
REMARK    3  A    between atoms: C3_6  and  C8_15 
REMARK    4  A    between atoms: C4_7  and  C5_8 
REMARK    5  A    between atoms: C5_8  and  C6_9 
REMARK    6  A    between atoms: C6_9  and  N2_10 
REMARK    7  A    between atoms: C8_15  and  C9_16 
REMARK    8  A    between atoms: C9_16  and  C10_17 
REMARK    9  A    between atoms: C10_17  and  N5_18 
REMARK   10  A    between atoms: C11_20  and  C12_22 
REMARK   11  A    between atoms: N8_35  and  C23_36 
REMARK   12  A    between atoms: C23_36  and  O3_37 
REMARK   13  A    between atoms: C23_36  and  C24_39 
ROOT
HETATM    1  C12 UNL     1       0.126  -0.059  20.252  1.00  0.00     0.098 C 
HETATM    2  C13 UNL     1       0.244   0.009  21.741  1.00  0.00     0.042 C 
HETATM    3  C14 UNL     1       0.854  -1.202  22.413  1.00  0.00     0.084 C 
HETATM    4  C15 UNL     1       2.058  -0.771  23.212  1.00  0.00     0.032 C 
HETATM    5  N7  UNL     1       1.209  -2.058  21.315  1.00  0.00    -0.340 N 
HETATM    6  C16 UNL     1       2.287  -1.877  20.456  1.00  0.00     0.249 C 
HETATM    7  O2  UNL     1       3.374  -1.333  20.722  1.00  0.00    -0.270 OA
HETATM    8  C17 UNL     1       1.879  -2.485  19.090  1.00  0.00     0.118 C 
HETATM    9  C18 UNL     1       3.143  -2.733  18.380  1.00  0.00     0.049 C 
HETATM   10  C19 UNL     1       1.294  -3.780  19.695  1.00  0.00     0.067 C 
HETATM   11  C20 UNL     1       0.471  -3.206  20.831  1.00  0.00     0.096 C 
HETATM   12  C21 UNL     1      -0.769  -2.473  20.218  1.00  0.00     0.079 C 
HETATM   13  C22 UNL     1      -0.202  -1.253  19.533  1.00  0.00     0.005 C 
HETATM   14  N8  UNL     1       0.811  -1.760  18.522  1.00  0.00    -0.319 N 
ENDROOT
BRANCH   1  15
HETATM   15  C11 UNL     1      -0.833   1.055  19.902  1.00  0.00     0.098 C 
HETATM   16  N5  UNL     1      -1.856   1.256  20.616  1.00  0.00    -0.381 N 
ATOM     17  H5  UNL     1      -1.989   0.649  21.425  1.00  0.00     0.160 HD
HETATM   18  N6  UNL     1      -0.564   1.836  18.770  1.00  0.00    -0.087 NA
BRANCH  16  19
HETATM   19  C10 UNL     1      -2.852   2.271  20.380  1.00  0.00     0.120 C 
BRANCH  19  20
HETATM   20  C9  UNL     1      -3.758   2.424  21.598  1.00  0.00     0.022 C 
BRANCH  20  21
HETATM   21  C8  UNL     1      -3.794   3.925  21.874  1.00  0.00     0.027 C 
BRANCH  21  22
HETATM   22  C3  UNL     1      -2.416   4.524  21.677  1.00  0.00     0.084 C 
BRANCH  22  23
HETATM   23  N1  UNL     1      -1.636   4.369  22.877  1.00  0.00    -0.357 N 
HETATM   24  C2  UNL     1      -0.320   3.856  22.790  1.00  0.00     0.213 C 
HETATM   25  C1  UNL     1       0.514   3.684  24.026  1.00  0.00     0.117 C 
HETATM   26  O1  UNL     1       0.184   3.527  21.666  1.00  0.00    -0.274 OA
ATOM     27  H1  UNL     1      -2.028   4.628  23.782  1.00  0.00     0.162 HD
ENDBRANCH  22  23
BRANCH  22  28
HETATM   28  C4  UNL     1      -2.584   6.008  21.424  1.00  0.00     0.027 C 
BRANCH  28  29
HETATM   29  C5  UNL     1      -3.985   6.397  21.061  1.00  0.00     0.022 C 
BRANCH  29  30
HETATM   30  C6  UNL     1      -3.886   7.169  19.738  1.00  0.00     0.122 C 
BRANCH  30  31
HETATM   31  N2  UNL     1      -2.597   7.799  19.649  1.00  0.00    -0.367 N 
HETATM   32  C7  UNL     1      -2.551   9.095  19.662  1.00  0.00     0.196 C 
HETATM   33  N3  UNL     1      -3.731   9.883  19.760  1.00  0.00    -0.067 NA
HETATM   34  N4  UNL     1      -1.255   9.704  19.573  1.00  0.00    -0.067 NA
ATOM     35  H2  UNL     1      -1.744   7.243  19.578  1.00  0.00     0.161 HD
ENDBRANCH  30  31
ENDBRANCH  29  30
ENDBRANCH  28  29
ENDBRANCH  22  28
ENDBRANCH  21  22
ENDBRANCH  20  21
ENDBRANCH  19  20
ENDBRANCH  16  19
ENDBRANCH   1  15
BRANCH  14  36
HETATM   36  C23 UNL     1       0.521  -1.522  17.166  1.00  0.00     0.126 C 
BRANCH  36  37
HETATM   37  O3  UNL     1       0.787  -0.247  16.863  1.00  0.00    -0.349 OA
ATOM     38  H3  UNL     1       0.086   0.110  16.329  1.00  0.00     0.219 HD
ENDBRANCH  36  37
BRANCH  36  39
HETATM   39  C24 UNL     1       0.019  -2.270  16.040  1.00  0.00     0.014 C 
HETATM   40  C25 UNL     1      -1.535  -2.465  16.205  1.00  0.00     0.023 C 
HETATM   41  C26 UNL     1       0.516  -3.671  15.873  1.00  0.00     0.023 C 
HETATM   42  C27 UNL     1       0.123  -1.544  14.732  1.00  0.00     0.023 C 
ENDBRANCH  36  39
ENDBRANCH  14  36
TORSDOF 13
ENDMDL
MODEL 2
REMARK VINA RESULT: -6.800205576      5.374      9.864
REMARK  13 active torsions:
REMARK  status: ('A' for Active; 'I' for Inactive)
REMARK       I    between atoms: C2_2  and  N1_4 
REMARK    1  A    between atoms: N1_4  and  C3_6 
REMARK    2  A    between atoms: C3_6  and  C4_7 
REMARK    3  A    between atoms: C3_6  and  C8_15 
REMARK    4  A    between atoms: C4_7  and  C5_8 
REMARK    5  A    between atoms: C5_8  and  C6_9 
REMARK    6  A    between atoms: C6_9  and  N2_10 
REMARK    7  A    between atoms: C8_15  and  C9_16 
REMARK    8  A    between atoms: C9_16  and  C10_17 
REMARK    9  A    between atoms: C10_17  and  N5_18 
REMARK   10  A    between atoms: C11_20  and  C12_22 
REMARK   11  A    between atoms: N8_35  and  C23_36 
REMARK   12  A    between atoms: C23_36  and  O3_37 
REMARK   13  A    between atoms: C23_36  and  C24_39 
ROOT
HETATM    1  C12 UNL     1      -3.050   3.654  27.600  1.00  0.00     0.098 C 
HETATM    2  C13 UNL     1      -1.757   3.007  27.980  1.00  0.00     0.042 C 
HETATM    3  C14 UNL     1      -0.954   3.710  29.052  1.00  0.00     0.084 C 
HETATM    4  C15 UNL     1      -0.714   2.757  30.197  1.00  0.00     0.032 C 
HETATM    5  N7  UNL     1      -1.788   4.816  29.433  1.00  0.00    -0.340 N 
HETATM    6  C16 UNL     1      -2.937   4.739  30.213  1.00  0.00     0.249 C 
HETATM    7  O2  UNL     1      -3.181   3.911  31.108  1.00  0.00    -0.270 OA
HETATM    8  C17 UNL     1      -3.868   5.891  29.753  1.00  0.00     0.118 C 
HETATM    9  C18 UNL     1      -4.804   6.104  30.868  1.00  0.00     0.049 C 
HETATM   10  C19 UNL     1      -2.751   6.957  29.726  1.00  0.00     0.067 C 
HETATM   11  C20 UNL     1      -1.658   6.193  29.005  1.00  0.00     0.096 C 
HETATM   12  C21 UNL     1      -2.077   6.037  27.506  1.00  0.00     0.079 C 
HETATM   13  C22 UNL     1      -3.238   5.072  27.522  1.00  0.00     0.005 C 
HETATM   14  N8  UNL     1      -4.293   5.686  28.425  1.00  0.00    -0.319 N 
ENDROOT
BRANCH   1  15
HETATM   15  C11 UNL     1      -3.429   2.993  26.295  1.00  0.00     0.098 C 
HETATM   16  N5  UNL     1      -4.482   3.343  25.692  1.00  0.00    -0.381 N 
ATOM     17  H5  UNL     1      -5.041   4.084  26.116  1.00  0.00     0.160 HD
HETATM   18  N6  UNL     1      -2.597   1.985  25.791  1.00  0.00    -0.087 NA
BRANCH  16  19
HETATM   19  C10 UNL     1      -4.960   2.781  24.453  1.00  0.00     0.120 C 
BRANCH  19  20
HETATM   20  C9  UNL     1      -4.695   3.739  23.295  1.00  0.00     0.022 C 
BRANCH  20  21
HETATM   21  C8  UNL     1      -3.736   2.987  22.376  1.00  0.00     0.027 C 
BRANCH  21  22
HETATM   22  C3  UNL     1      -2.486   3.812  22.141  1.00  0.00     0.084 C 
BRANCH  22  23
HETATM   23  N1  UNL     1      -1.597   3.690  23.266  1.00  0.00    -0.357 N 
HETATM   24  C2  UNL     1      -0.211   3.512  23.043  1.00  0.00     0.213 C 
HETATM   25  C1  UNL     1       0.737   3.382  24.198  1.00  0.00     0.117 C 
HETATM   26  O1  UNL     1       0.261   3.457  21.860  1.00  0.00    -0.274 OA
ATOM     27  H1  UNL     1      -1.963   3.731  24.218  1.00  0.00     0.162 HD
ENDBRANCH  22  23
BRANCH  22  28
HETATM   28  C4  UNL     1      -2.900   5.265  22.035  1.00  0.00     0.027 C 
BRANCH  28  29
HETATM   29  C5  UNL     1      -2.104   6.041  21.030  1.00  0.00     0.022 C 
BRANCH  29  30
HETATM   30  C6  UNL     1      -3.104   6.519  19.968  1.00  0.00     0.122 C 
BRANCH  30  31
HETATM   31  N2  UNL     1      -3.338   7.928  20.134  1.00  0.00    -0.367 N 
HETATM   32  C7  UNL     1      -2.652   8.749  19.401  1.00  0.00     0.196 C 
HETATM   33  N3  UNL     1      -1.694   8.286  18.457  1.00  0.00    -0.067 NA
HETATM   34  N4  UNL     1      -2.900  10.151  19.581  1.00  0.00    -0.067 NA
ATOM     35  H2  UNL     1      -4.022   8.272  20.808  1.00  0.00     0.161 HD
ENDBRANCH  30  31
ENDBRANCH  29  30
ENDBRANCH  28  29
ENDBRANCH  22  28
ENDBRANCH  21  22
ENDBRANCH  20  21
ENDBRANCH  19  20
ENDBRANCH  16  19
ENDBRANCH   1  15
BRANCH  14  36
HETATM   36  C23 UNL     1      -5.510   6.046  27.816  1.00  0.00     0.126 C 
BRANCH  36  37
HETATM   37  O3  UNL     1      -5.339   7.148  27.078  1.00  0.00    -0.349 OA
ATOM     38  H3  UNL     1      -5.369   7.917  27.636  1.00  0.00     0.219 HD
ENDBRANCH  36  37
BRANCH  36  39
HETATM   39  C24 UNL     1      -6.866   5.557  27.783  1.00  0.00     0.014 C 
HETATM   40  C25 UNL     1      -7.376   5.559  26.293  1.00  0.00     0.023 C 
HETATM   41  C26 UNL     1      -7.903   6.369  28.492  1.00  0.00     0.023 C 
HETATM   42  C27 UNL     1      -7.004   4.117  28.176  1.00  0.00     0.023 C 
ENDBRANCH  36  39
ENDBRANCH  14  36
TORSDOF 13
ENDMDL
MODEL 3
REMARK VINA RESULT: -6.791986200      1.603      2.305
REMARK  13 active torsions:
REMARK  status: ('A' for Active; 'I' for Inactive)
REMARK       I    between atoms: C2_2  and  N1_4 
REMARK    1  A    between atoms: N1_4  and  C3_6 
REMARK    2  A    between atoms: C3_6  and  C4_7 
REMARK    3  A    between atoms: C3_6  and  C8_15 
REMARK    4  A    between atoms: C4_7  and  C5_8 
REMARK    5  A    between atoms: C5_8  and  C6_9 
REMARK    6  A    between atoms: C6_9  and  N2_10 
REMARK    7  A    between atoms: C8_15  and  C9_16 
REMARK    8  A    between atoms: C9_16  and  C10_17 
REMARK    9  A    between atoms: C10_17  and  N5_18 
REMARK   10  A    between atoms: C11_20  and  C12_22 
REMARK   11  A    between atoms: N8_35  and  C23_36 
REMARK   12  A    between atoms: C23_36  and  O3_37 
REMARK   13  A    between atoms: C23_36  and  C24_39 
ROOT
HETATM    1  C12 UNL     1       0.526   0.217  20.433  1.00  0.00     0.098 C 
HETATM    2  C13 UNL     1       0.752   0.095  21.906  1.00  0.00     0.042 C 
HETATM    3  C14 UNL     1       1.046  -1.298  22.419  1.00  0.00     0.084 C 
HETATM    4  C15 UNL     1       2.371  -1.291  23.140  1.00  0.00     0.032 C 
HETATM    5  N7  UNL     1       1.081  -2.099  21.227  1.00  0.00    -0.340 N 
HETATM    6  C16 UNL     1       2.110  -2.126  20.293  1.00  0.00     0.249 C 
HETATM    7  O2  UNL     1       3.319  -1.924  20.505  1.00  0.00    -0.270 OA
HETATM    8  C17 UNL     1       1.464  -2.457  18.923  1.00  0.00     0.118 C 
HETATM    9  C18 UNL     1       2.563  -2.961  18.085  1.00  0.00     0.049 C 
HETATM   10  C19 UNL     1       0.584  -3.603  19.469  1.00  0.00     0.067 C 
HETATM   11  C20 UNL     1       0.025  -2.950  20.718  1.00  0.00     0.096 C 
HETATM   12  C21 UNL     1      -1.000  -1.853  20.280  1.00  0.00     0.079 C 
HETATM   13  C22 UNL     1      -0.164  -0.765  19.651  1.00  0.00     0.005 C 
HETATM   14  N8  UNL     1       0.604  -1.418  18.515  1.00  0.00    -0.319 N 
ENDROOT
BRANCH   1  15
HETATM   15  C11 UNL     1      -0.109   1.577  20.264  1.00  0.00     0.098 C 
HETATM   16  N5  UNL     1      -0.273   2.327  21.266  1.00  0.00    -0.381 N 
ATOM     17  H5  UNL     1       0.049   1.979  22.170  1.00  0.00     0.160 HD
HETATM   18  N6  UNL     1      -0.520   1.967  18.982  1.00  0.00    -0.087 NA
BRANCH  16  19
HETATM   19  C10 UNL     1      -0.878   3.636  21.240  1.00  0.00     0.120 C 
BRANCH  19  20
HETATM   20  C9  UNL     1      -2.069   3.693  22.192  1.00  0.00     0.022 C 
BRANCH  20  21
HETATM   21  C8  UNL     1      -2.331   5.182  22.403  1.00  0.00     0.027 C 
BRANCH  21  22
HETATM   22  C3  UNL     1      -3.751   5.524  21.996  1.00  0.00     0.084 C 
BRANCH  22  23
HETATM   23  N1  UNL     1      -4.359   4.398  21.337  1.00  0.00    -0.357 N 
HETATM   24  C2  UNL     1      -5.752   4.186  21.464  1.00  0.00     0.213 C 
HETATM   25  C1  UNL     1      -6.410   3.019  20.788  1.00  0.00     0.117 C 
HETATM   26  O1  UNL     1      -6.476   4.976  22.154  1.00  0.00    -0.274 OA
ATOM     27  H1  UNL     1      -3.789   3.758  20.783  1.00  0.00     0.162 HD
ENDBRANCH  22  23
BRANCH  22  28
HETATM   28  C4  UNL     1      -3.688   6.663  20.999  1.00  0.00     0.027 C 
BRANCH  28  29
HETATM   29  C5  UNL     1      -2.325   6.868  20.411  1.00  0.00     0.022 C 
BRANCH  29  30
HETATM   30  C6  UNL     1      -2.518   7.782  19.193  1.00  0.00     0.122 C 
BRANCH  30  31
HETATM   31  N2  UNL     1      -1.627   8.906  19.295  1.00  0.00    -0.367 N 
HETATM   32  C7  UNL     1      -2.134  10.058  19.605  1.00  0.00     0.196 C 
HETATM   33  N3  UNL     1      -3.528  10.222  19.840  1.00  0.00    -0.067 NA
HETATM   34  N4  UNL     1      -1.229  11.167  19.702  1.00  0.00    -0.067 NA
ATOM     35  H2  UNL     1      -0.626   8.800  19.128  1.00  0.00     0.161 HD
ENDBRANCH  30  31
ENDBRANCH  29  30
ENDBRANCH  28  29
ENDBRANCH  22  28
ENDBRANCH  21  22
ENDBRANCH  20  21
ENDBRANCH  19  20
ENDBRANCH  16  19
ENDBRANCH   1  15
BRANCH  14  36
HETATM   36  C23 UNL     1       0.305  -0.971  17.214  1.00  0.00     0.126 C 
BRANCH  36  37
HETATM   37  O3  UNL     1       0.946   0.178  16.972  1.00  0.00    -0.349 OA
ATOM     38  H3  UNL     1       0.784   0.453  16.077  1.00  0.00     0.219 HD
ENDBRANCH  36  37
BRANCH  36  39
HETATM   39  C24 UNL     1      -0.496  -1.410  16.098  1.00  0.00     0.014 C 
HETATM   40  C25 UNL     1      -0.916  -2.910  16.326  1.00  0.00     0.023 C 
HETATM   41  C26 UNL     1       0.165  -1.448  14.756  1.00  0.00     0.023 C 
HETATM   42  C27 UNL     1      -1.817  -0.711  15.985  1.00  0.00     0.023 C 
ENDBRANCH  36  39
ENDBRANCH  14  36
TORSDOF 13
ENDMDL
MODEL 4
REMARK VINA RESULT: -6.780578102      5.603      9.092
REMARK  13 active torsions:
REMARK  status: ('A' for Active; 'I' for Inactive)
REMARK       I    between atoms: C2_2  and  N1_4 
REMARK    1  A    between atoms: N1_4  and  C3_6 
REMARK    2  A    between atoms: C3_6  and  C4_7 
REMARK    3  A    between atoms: C3_6  and  C8_15 
REMARK    4  A    between atoms: C4_7  and  C5_8 
REMARK    5  A    between atoms: C5_8  and  C6_9 
REMARK    6  A    between atoms: C6_9  and  N2_10 
REMARK    7  A    between atoms: C8_15  and  C9_16 
REMARK    8  A    between atoms: C9_16  and  C10_17 
REMARK    9  A    between atoms: C10_17  and  N5_18 
REMARK   10  A    between atoms: C11_20  and  C12_22 
REMARK   11  A    between atoms: N8_35  and  C23_36 
REMARK   12  A    between atoms: C23_36  and  O3_37 
REMARK   13  A    between atoms: C23_36  and  C24_39 
ROOT
HETATM    1  C12 UNL     1      -4.093   4.270  23.198  1.00  0.00     0.098 C 
HETATM    2  C13 UNL     1      -5.426   4.698  22.672  1.00  0.00     0.042 C 
HETATM    3  C14 UNL     1      -5.522   4.873  21.172  1.00  0.00     0.084 C 
HETATM    4  C15 UNL     1      -6.619   3.985  20.639  1.00  0.00     0.032 C 
HETATM    5  N7  UNL     1      -4.224   4.477  20.699  1.00  0.00    -0.340 N 
HETATM    6  C16 UNL     1      -3.754   3.171  20.610  1.00  0.00     0.249 C 
HETATM    7  O2  UNL     1      -4.426   2.144  20.412  1.00  0.00    -0.270 OA
HETATM    8  C17 UNL     1      -2.217   3.235  20.807  1.00  0.00     0.118 C 
HETATM    9  C18 UNL     1      -1.698   1.984  20.231  1.00  0.00     0.049 C 
HETATM   10  C19 UNL     1      -2.014   4.434  19.855  1.00  0.00     0.067 C 
HETATM   11  C20 UNL     1      -3.131   5.348  20.322  1.00  0.00     0.096 C 
HETATM   12  C21 UNL     1      -2.750   5.907  21.733  1.00  0.00     0.079 C 
HETATM   13  C22 UNL     1      -2.844   4.721  22.662  1.00  0.00     0.005 C 
HETATM   14  N8  UNL     1      -1.900   3.668  22.110  1.00  0.00    -0.319 N 
ENDROOT
BRANCH   1  15
HETATM   15  C11 UNL     1      -4.170   4.548  24.681  1.00  0.00     0.098 C 
HETATM   16  N5  UNL     1      -3.556   5.537  25.171  1.00  0.00    -0.381 N 
ATOM     17  H5  UNL     1      -3.030   6.128  24.527  1.00  0.00     0.160 HD
HETATM   18  N6  UNL     1      -4.918   3.678  25.485  1.00  0.00    -0.087 NA
BRANCH  16  19
HETATM   19  C10 UNL     1      -3.537   5.899  26.566  1.00  0.00     0.120 C 
BRANCH  19  20
HETATM   20  C9  UNL     1      -2.234   5.445  27.218  1.00  0.00     0.022 C 
BRANCH  20  21
HETATM   21  C8  UNL     1      -2.253   6.071  28.610  1.00  0.00     0.027 C 
BRANCH  21  22
HETATM   22  C3  UNL     1      -0.984   5.713  29.359  1.00  0.00     0.084 C 
BRANCH  22  23
HETATM   23  N1  UNL     1      -1.257   4.680  30.323  1.00  0.00    -0.357 N 
HETATM   24  C2  UNL     1      -0.840   3.354  30.060  1.00  0.00     0.213 C 
HETATM   25  C1  UNL     1      -1.111   2.258  31.048  1.00  0.00     0.117 C 
HETATM   26  O1  UNL     1      -0.227   3.061  28.981  1.00  0.00    -0.274 OA
ATOM     27  H1  UNL     1      -1.747   4.902  31.190  1.00  0.00     0.162 HD
ENDBRANCH  22  23
BRANCH  22  28
HETATM   28  C4  UNL     1      -0.527   6.943  30.116  1.00  0.00     0.027 C 
BRANCH  28  29
HETATM   29  C5  UNL     1      -1.633   7.912  30.405  1.00  0.00     0.022 C 
BRANCH  29  30
HETATM   30  C6  UNL     1      -1.619   8.138  31.923  1.00  0.00     0.122 C 
BRANCH  30  31
HETATM   31  N2  UNL     1      -0.492   8.961  32.272  1.00  0.00    -0.367 N 
HETATM   32  C7  UNL     1      -0.366   9.327  33.509  1.00  0.00     0.196 C 
HETATM   33  N3  UNL     1      -1.305   8.936  34.504  1.00  0.00    -0.067 NA
HETATM   34  N4  UNL     1       0.765  10.147  33.837  1.00  0.00    -0.067 NA
ATOM     35  H2  UNL     1       0.187   9.247  31.567  1.00  0.00     0.161 HD
ENDBRANCH  30  31
ENDBRANCH  29  30
ENDBRANCH  28  29
ENDBRANCH  22  28
ENDBRANCH  21  22
ENDBRANCH  20  21
ENDBRANCH  19  20
ENDBRANCH  16  19
ENDBRANCH   1  15
BRANCH  14  36
HETATM   36  C23 UNL     1      -0.800   3.322  22.918  1.00  0.00     0.126 C 
BRANCH  36  37
HETATM   37  O3  UNL     1       0.261   4.062  22.578  1.00  0.00    -0.349 OA
ATOM     38  H3  UNL     1       0.627   3.742  21.762  1.00  0.00     0.219 HD
ENDBRANCH  36  37
BRANCH  36  39
HETATM   39  C24 UNL     1      -0.517   2.398  23.988  1.00  0.00     0.014 C 
HETATM   40  C25 UNL     1      -1.790   1.510  24.250  1.00  0.00     0.023 C 
HETATM   41  C26 UNL     1      -0.232   2.981  25.336  1.00  0.00     0.023 C 
HETATM   42  C27 UNL     1       0.532   1.381  23.651  1.00  0.00     0.023 C 
ENDBRANCH  36  39
ENDBRANCH  14  36
TORSDOF 13
ENDMDL
MODEL 5
REMARK VINA RESULT: -6.656871822      1.618      3.595
REMARK  13 active torsions:
REMARK  status: ('A' for Active; 'I' for Inactive)
REMARK       I    between atoms: C2_2  and  N1_4 
REMARK    1  A    between atoms: N1_4  and  C3_6 
REMARK    2  A    between atoms: C3_6  and  C4_7 
REMARK    3  A    between atoms: C3_6  and  C8_15 
REMARK    4  A    between atoms: C4_7  and  C5_8 
REMARK    5  A    between atoms: C5_8  and  C6_9 
REMARK    6  A    between atoms: C6_9  and  N2_10 
REMARK    7  A    between atoms: C8_15  and  C9_16 
REMARK    8  A    between atoms: C9_16  and  C10_17 
REMARK    9  A    between atoms: C10_17  and  N5_18 
REMARK   10  A    between atoms: C11_20  and  C12_22 
REMARK   11  A    between atoms: N8_35  and  C23_36 
REMARK   12  A    between atoms: C23_36  and  O3_37 
REMARK   13  A    between atoms: C23_36  and  C24_39 
ROOT
HETATM    1  C12 UNL     1       0.289   0.663  20.319  1.00  0.00     0.098 C 
HETATM    2  C13 UNL     1       0.434   0.742  21.805  1.00  0.00     0.042 C 
HETATM    3  C14 UNL     1       0.781  -0.552  22.507  1.00  0.00     0.084 C 
HETATM    4  C15 UNL     1       2.057  -0.365  23.290  1.00  0.00     0.032 C 
HETATM    5  N7  UNL     1       0.936  -1.492  21.432  1.00  0.00    -0.340 N 
HETATM    6  C16 UNL     1       2.019  -1.565  20.563  1.00  0.00     0.249 C 
HETATM    7  O2  UNL     1       3.199  -1.256  20.809  1.00  0.00    -0.270 OA
HETATM    8  C17 UNL     1       1.477  -2.108  19.216  1.00  0.00     0.118 C 
HETATM    9  C18 UNL     1       2.654  -2.636  18.507  1.00  0.00     0.049 C 
HETATM   10  C19 UNL     1       0.638  -3.234  19.858  1.00  0.00     0.067 C 
HETATM   11  C20 UNL     1      -0.033  -2.470  20.983  1.00  0.00     0.096 C 
HETATM   12  C21 UNL     1      -1.096  -1.508  20.355  1.00  0.00     0.079 C 
HETATM   13  C22 UNL     1      -0.292  -0.453  19.635  1.00  0.00     0.005 C 
HETATM   14  N8  UNL     1       0.581  -1.189  18.634  1.00  0.00    -0.319 N 
ENDROOT
BRANCH   1  15
HETATM   15  C11 UNL     1      -0.417   1.945  19.944  1.00  0.00     0.098 C 
HETATM   16  N5  UNL     1      -0.883   2.698  20.846  1.00  0.00    -0.381 N 
ATOM     17  H5  UNL     1      -0.749   2.407  21.814  1.00  0.00     0.160 HD
HETATM   18  N6  UNL     1      -0.551   2.260  18.585  1.00  0.00    -0.087 NA
BRANCH  16  19
HETATM   19  C10 UNL     1      -1.588   3.935  20.618  1.00  0.00     0.120 C 
BRANCH  19  20
HETATM   20  C9  UNL     1      -1.397   4.883  21.799  1.00  0.00     0.022 C 
BRANCH  20  21
HETATM   21  C8  UNL     1      -2.805   5.350  22.158  1.00  0.00     0.027 C 
BRANCH  21  22
HETATM   22  C3  UNL     1      -3.599   5.627  20.896  1.00  0.00     0.084 C 
BRANCH  22  23
HETATM   23  N1  UNL     1      -3.775   7.045  20.726  1.00  0.00    -0.357 N 
HETATM   24  C2  UNL     1      -2.934   7.749  19.833  1.00  0.00     0.213 C 
HETATM   25  C1  UNL     1      -3.097   9.228  19.637  1.00  0.00     0.117 C 
HETATM   26  O1  UNL     1      -2.022   7.146  19.177  1.00  0.00    -0.274 OA
ATOM     27  H1  UNL     1      -4.501   7.538  21.246  1.00  0.00     0.162 HD
ENDBRANCH  22  23
BRANCH  22  28
HETATM   28  C4  UNL     1      -4.971   5.007  21.064  1.00  0.00     0.027 C 
BRANCH  28  29
HETATM   29  C5  UNL     1      -5.303   3.996  20.009  1.00  0.00     0.022 C 
BRANCH  29  30
HETATM   30  C6  UNL     1      -5.755   2.732  20.755  1.00  0.00     0.122 C 
BRANCH  30  31
HETATM   31  N2  UNL     1      -4.787   2.403  21.765  1.00  0.00    -0.367 N 
HETATM   32  C7  UNL     1      -4.022   1.375  21.563  1.00  0.00     0.196 C 
HETATM   33  N3  UNL     1      -4.126   0.587  20.383  1.00  0.00    -0.067 NA
HETATM   34  N4  UNL     1      -3.062   1.063  22.583  1.00  0.00    -0.067 NA
ATOM     35  H2  UNL     1      -4.704   2.961  22.615  1.00  0.00     0.161 HD
ENDBRANCH  30  31
ENDBRANCH  29  30
ENDBRANCH  28  29
ENDBRANCH  22  28
ENDBRANCH  21  22
ENDBRANCH  20  21
ENDBRANCH  19  20
ENDBRANCH  16  19
ENDBRANCH   1  15
BRANCH  14  36
HETATM   36  C23 UNL     1       0.335  -0.929  17.273  1.00  0.00     0.126 C 
BRANCH  36  37
HETATM   37  O3  UNL     1       0.948   0.202  16.909  1.00  0.00    -0.349 OA
ATOM     38  H3  UNL     1       0.322   0.916  16.892  1.00  0.00     0.219 HD
ENDBRANCH  36  37
BRANCH  36  39
HETATM   39  C24 UNL     1      -0.394  -1.542  16.190  1.00  0.00     0.014 C 
HETATM   40  C25 UNL     1      -1.813  -0.867  16.079  1.00  0.00     0.023 C 
HETATM   41  C26 UNL     1      -0.725  -2.995  16.325  1.00  0.00     0.023 C 
HETATM   42  C27 UNL     1       0.199  -1.288  14.837  1.00  0.00     0.023 C 
ENDBRANCH  36  39
ENDBRANCH  14  36
TORSDOF 13
ENDMDL
