MODEL 1
REMARK VINA RESULT: -6.666342111      0.000      0.000
REMARK  9 active torsions:
REMARK  status: ('A' for Active; 'I' for Inactive)
REMARK    1  A    between atoms: O1_2  and  C2_3 
REMARK    2  A    between atoms: C2_3  and  C3_4 
REMARK    3  A    between atoms: C3_4  and  C4_5 
REMARK    4  A    between atoms: C4_5  and  N1_6 
REMARK    5  A    between atoms: N4_15  and  C8_16 
REMARK    6  A    between atoms: C8_16  and  C9_17 
REMARK    7  A    between atoms: C9_17  and  C10_18 
REMARK    8  A    between atoms: C10_18  and  N5_19 
REMARK    9  A    between atoms: C28_41  and  N9_42 
ROOT
HETATM    1  N1  UNL     1      -2.408   2.804  21.955  1.00  0.00    -0.241 N 
HETATM    2  C5  UNL     1      -3.654   2.346  22.325  1.00  0.00     0.190 A 
HETATM    3  C6  UNL     1      -4.750   3.182  22.191  1.00  0.00     0.171 A 
HETATM    4  N2  UNL     1      -5.828   2.512  22.560  1.00  0.00    -0.173 N 
ATOM      5  H2  UNL     1      -6.780   2.877  22.564  1.00  0.00     0.186 HD
HETATM    6  C7  UNL     1      -5.474   1.294  22.922  1.00  0.00     0.681 A 
HETATM    7  N3  UNL     1      -6.202   0.321  23.330  1.00  0.00    -0.234 N 
ATOM      8  H31 UNL     1      -5.928  -0.620  23.610  1.00  0.00     0.174 HD
ATOM      9  H32 UNL     1      -7.212   0.416  23.430  1.00  0.00     0.174 HD
HETATM   10  N4  UNL     1      -4.087   1.163  22.785  1.00  0.00    -0.163 N 
HETATM   11  N7  UNL     1      -4.658   4.441  21.718  1.00  0.00    -0.317 N 
HETATM   12  C20 UNL     1      -5.873   5.240  21.667  1.00  0.00     0.159 C 
HETATM   13  C21 UNL     1      -3.463   4.884  21.363  1.00  0.00     0.161 A 
HETATM   14  C22 UNL     1      -3.367   6.186  20.848  1.00  0.00     0.089 A 
HETATM   15  N8  UNL     1      -4.257   7.157  20.622  1.00  0.00    -0.356 N 
ATOM     16  H8  UNL     1      -5.259   7.112  20.810  1.00  0.00     0.166 HD
HETATM   17  C23 UNL     1      -3.579   8.220  20.092  1.00  0.00     0.006 A 
HETATM   18  C24 UNL     1      -4.226   9.518  19.698  1.00  0.00     0.068 C 
HETATM   19  C25 UNL     1      -2.263   7.915  19.985  1.00  0.00     0.038 A 
HETATM   20  C26 UNL     1      -2.112   6.611  20.466  1.00  0.00    -0.000 A 
HETATM   21  C27 UNL     1      -1.014   5.815  20.576  1.00  0.00     0.064 A 
HETATM   22  C28 UNL     1      -1.154   4.524  21.094  1.00  0.00     0.124 A 
HETATM   23  N10 UNL     1      -2.349   4.069  21.480  1.00  0.00    -0.214 N 
ENDROOT
BRANCH  10  24
HETATM   24  C8  UNL     1      -3.467  -0.018  23.218  1.00  0.00     0.151 C 
BRANCH  24  25
HETATM   25  C9  UNL     1      -3.315   0.127  24.767  1.00  0.00     0.049 C 
BRANCH  25  26
HETATM   26  C10 UNL     1      -1.869   0.375  25.063  1.00  0.00     0.239 C 
BRANCH  26  27
HETATM   27  N5  UNL     1      -1.599   1.446  25.973  1.00  0.00    -0.064 N 
HETATM   28  C11 UNL     1      -2.396   2.624  25.686  1.00  0.00     0.239 C 
HETATM   29  C12 UNL     1      -1.711   3.917  25.979  1.00  0.00     0.061 C 
HETATM   30  C13 UNL     1      -1.580   4.187  27.464  1.00  0.00     0.187 C 
HETATM   31  C14 UNL     1      -2.856   4.640  28.097  1.00  0.00     0.040 C 
HETATM   32  N6  UNL     1      -1.024   3.008  28.112  1.00  0.00    -0.064 N 
HETATM   33  C15 UNL     1      -0.533   3.433  29.426  1.00  0.00     0.273 C 
HETATM   34  C16 UNL     1       0.102   2.545  27.369  1.00  0.00     0.265 C 
HETATM   35  C18 UNL     1      -2.042   2.031  28.328  1.00  0.00     0.265 C 
HETATM   36  C17 UNL     1      -0.200   1.748  26.148  1.00  0.00     0.265 C 
HETATM   37  C19 UNL     1      -2.065   0.970  27.288  1.00  0.00     0.265 C 
ENDBRANCH  26  27
ENDBRANCH  25  26
ENDBRANCH  24  25
ENDBRANCH  10  24
BRANCH   1  38
HETATM   38  C4  UNL     1      -1.290   1.955  22.046  1.00  0.00     0.094 C 
BRANCH  38  39
HETATM   39  C3  UNL     1      -1.029   0.803  21.165  1.00  0.00     0.073 C 
BRANCH  39  40
HETATM   40  C2  UNL     1       0.492   0.549  21.125  1.00  0.00     0.172 C 
BRANCH  40  41
HETATM   41  O1  UNL     1       1.099   1.261  20.122  1.00  0.00    -0.396 OA
HETATM   42  C1  UNL     1       1.721   0.443  19.186  1.00  0.00     0.201 C 
ENDBRANCH  40  41
ENDBRANCH  39  40
ENDBRANCH  38  39
ENDBRANCH   1  38
BRANCH  22  43
HETATM   43  N9  UNL     1      -0.105   3.820  21.137  1.00  0.00    -0.384 N 
ATOM     44  H92 UNL     1       0.833   4.222  21.148  1.00  0.00     0.157 HD
ATOM     45  H91 UNL     1      -0.240   2.809  21.190  1.00  0.00     0.157 HD
ENDBRANCH  22  43
TORSDOF 9
ENDMDL
MODEL 2
REMARK VINA RESULT: -6.666052693      3.601      6.692
REMARK  9 active torsions:
REMARK  status: ('A' for Active; 'I' for Inactive)
REMARK    1  A    between atoms: O1_2  and  C2_3 
REMARK    2  A    between atoms: C2_3  and  C3_4 
REMARK    3  A    between atoms: C3_4  and  C4_5 
REMARK    4  A    between atoms: C4_5  and  N1_6 
REMARK    5  A    between atoms: N4_15  and  C8_16 
REMARK    6  A    between atoms: C8_16  and  C9_17 
REMARK    7  A    between atoms: C9_17  and  C10_18 
REMARK    8  A    between atoms: C10_18  and  N5_19 
REMARK    9  A    between atoms: C28_41  and  N9_42 
ROOT
HETATM    1  N1  UNL     1      -2.917   2.074  20.678  1.00  0.00    -0.241 N 
HETATM    2  C5  UNL     1      -4.220   1.627  20.698  1.00  0.00     0.190 A 
HETATM    3  C6  UNL     1      -5.252   2.543  20.581  1.00  0.00     0.171 A 
HETATM    4  N2  UNL     1      -6.395   1.880  20.578  1.00  0.00    -0.173 N 
ATOM      5  H2  UNL     1      -7.322   2.298  20.503  1.00  0.00     0.186 HD
HETATM    6  C7  UNL     1      -6.143   0.590  20.686  1.00  0.00     0.681 A 
HETATM    7  N3  UNL     1      -6.957  -0.400  20.708  1.00  0.00    -0.234 N 
ATOM      8  H31 UNL     1      -6.763  -1.398  20.792  1.00  0.00     0.174 HD
ATOM      9  H32 UNL     1      -7.966  -0.263  20.648  1.00  0.00     0.174 HD
HETATM   10  N4  UNL     1      -4.759   0.401  20.769  1.00  0.00    -0.163 N 
HETATM   11  N7  UNL     1      -5.045   3.869  20.457  1.00  0.00    -0.317 N 
HETATM   12  C20 UNL     1      -6.210   4.739  20.390  1.00  0.00     0.159 C 
HETATM   13  C21 UNL     1      -3.794   4.302  20.438  1.00  0.00     0.161 A 
HETATM   14  C22 UNL     1      -3.573   5.680  20.284  1.00  0.00     0.089 A 
HETATM   15  N8  UNL     1      -4.382   6.734  20.150  1.00  0.00    -0.356 N 
ATOM     16  H8  UNL     1      -5.403   6.714  20.141  1.00  0.00     0.166 HD
HETATM   17  C23 UNL     1      -3.593   7.844  20.026  1.00  0.00     0.006 A 
HETATM   18  C24 UNL     1      -4.124   9.240  19.854  1.00  0.00     0.068 C 
HETATM   19  C25 UNL     1      -2.287   7.484  20.081  1.00  0.00     0.038 A 
HETATM   20  C26 UNL     1      -2.259   6.096  20.246  1.00  0.00    -0.000 A 
HETATM   21  C27 UNL     1      -1.220   5.224  20.350  1.00  0.00     0.064 A 
HETATM   22  C28 UNL     1      -1.484   3.860  20.502  1.00  0.00     0.124 A 
HETATM   23  N10 UNL     1      -2.741   3.409  20.547  1.00  0.00    -0.214 N 
ENDROOT
BRANCH  10  24
HETATM   24  C8  UNL     1      -4.258  -0.888  21.001  1.00  0.00     0.151 C 
BRANCH  24  25
HETATM   25  C9  UNL     1      -4.036  -1.517  19.586  1.00  0.00     0.049 C 
BRANCH  25  26
HETATM   26  C10 UNL     1      -2.688  -2.168  19.583  1.00  0.00     0.239 C 
BRANCH  26  27
HETATM   27  N5  UNL     1      -1.976  -2.108  18.343  1.00  0.00    -0.064 N 
HETATM   28  C11 UNL     1      -0.648  -2.684  18.447  1.00  0.00     0.239 C 
HETATM   29  C12 UNL     1       0.377  -2.024  17.586  1.00  0.00     0.061 C 
HETATM   30  C13 UNL     1       0.196  -2.334  16.115  1.00  0.00     0.187 C 
HETATM   31  C14 UNL     1       0.662  -3.703  15.738  1.00  0.00     0.040 C 
HETATM   32  N6  UNL     1      -1.193  -2.098  15.749  1.00  0.00    -0.064 N 
HETATM   33  C15 UNL     1      -1.241  -2.003  14.287  1.00  0.00     0.273 C 
HETATM   34  C16 UNL     1      -1.613  -0.838  16.269  1.00  0.00     0.265 C 
HETATM   35  C18 UNL     1      -2.005  -3.206  16.135  1.00  0.00     0.265 C 
HETATM   36  C17 UNL     1      -1.974  -0.812  17.713  1.00  0.00     0.265 C 
HETATM   37  C19 UNL     1      -2.714  -2.991  17.423  1.00  0.00     0.265 C 
ENDBRANCH  26  27
ENDBRANCH  25  26
ENDBRANCH  24  25
ENDBRANCH  10  24
BRANCH   1  38
HETATM   38  C4  UNL     1      -1.855   1.154  20.753  1.00  0.00     0.094 C 
BRANCH  38  39
HETATM   39  C3  UNL     1      -1.379   0.512  21.991  1.00  0.00     0.073 C 
BRANCH  39  40
HETATM   40  C2  UNL     1      -0.123  -0.321  21.661  1.00  0.00     0.172 C 
BRANCH  40  41
HETATM   41  O1  UNL     1       0.438   0.057  20.468  1.00  0.00    -0.396 OA
HETATM   42  C1  UNL     1       1.793  -0.242  20.396  1.00  0.00     0.201 C 
ENDBRANCH  40  41
ENDBRANCH  39  40
ENDBRANCH  38  39
ENDBRANCH   1  38
BRANCH  22  43
HETATM   43  N9  UNL     1      -0.478   3.096  20.555  1.00  0.00    -0.384 N 
ATOM     44  H92 UNL     1       0.435   3.356  20.182  1.00  0.00     0.157 HD
ATOM     45  H91 UNL     1      -0.615   2.199  21.023  1.00  0.00     0.157 HD
ENDBRANCH  22  43
TORSDOF 9
ENDMDL
MODEL 3
REMARK VINA RESULT: -6.625949444      1.186      1.561
REMARK  9 active torsions:
REMARK  status: ('A' for Active; 'I' for Inactive)
REMARK    1  A    between atoms: O1_2  and  C2_3 
REMARK    2  A    between atoms: C2_3  and  C3_4 
REMARK    3  A    between atoms: C3_4  and  C4_5 
REMARK    4  A    between atoms: C4_5  and  N1_6 
REMARK    5  A    between atoms: N4_15  and  C8_16 
REMARK    6  A    between atoms: C8_16  and  C9_17 
REMARK    7  A    between atoms: C9_17  and  C10_18 
REMARK    8  A    between atoms: C10_18  and  N5_19 
REMARK    9  A    between atoms: C28_41  and  N9_42 
ROOT
HETATM    1  N1  UNL     1      -2.486   2.689  21.757  1.00  0.00    -0.241 N 
HETATM    2  C5  UNL     1      -3.744   2.219  22.065  1.00  0.00     0.190 A 
HETATM    3  C6  UNL     1      -4.834   3.065  21.931  1.00  0.00     0.171 A 
HETATM    4  N2  UNL     1      -5.924   2.383  22.235  1.00  0.00    -0.173 N 
ATOM      5  H2  UNL     1      -6.875   2.752  22.223  1.00  0.00     0.186 HD
HETATM    6  C7  UNL     1      -5.585   1.149  22.554  1.00  0.00     0.681 A 
HETATM    7  N3  UNL     1      -6.329   0.162  22.896  1.00  0.00    -0.234 N 
ATOM      8  H31 UNL     1      -6.067  -0.791  23.143  1.00  0.00     0.174 HD
ATOM      9  H32 UNL     1      -7.342   0.257  22.966  1.00  0.00     0.174 HD
HETATM   10  N4  UNL     1      -4.195   1.019  22.457  1.00  0.00    -0.163 N 
HETATM   11  N7  UNL     1      -4.723   4.343  21.518  1.00  0.00    -0.317 N 
HETATM   12  C20 UNL     1      -5.934   5.148  21.462  1.00  0.00     0.159 C 
HETATM   13  C21 UNL     1      -3.516   4.797  21.222  1.00  0.00     0.161 A 
HETATM   14  C22 UNL     1      -3.399   6.120  20.768  1.00  0.00     0.089 A 
HETATM   15  N8  UNL     1      -4.280   7.103  20.555  1.00  0.00    -0.356 N 
ATOM     16  H8  UNL     1      -5.287   7.054  20.709  1.00  0.00     0.166 HD
HETATM   17  C23 UNL     1      -3.582   8.185  20.095  1.00  0.00     0.006 A 
HETATM   18  C24 UNL     1      -4.213   9.502  19.738  1.00  0.00     0.068 C 
HETATM   19  C25 UNL     1      -2.263   7.880  20.019  1.00  0.00     0.038 A 
HETATM   20  C26 UNL     1      -2.132   6.556  20.446  1.00  0.00    -0.000 A 
HETATM   21  C27 UNL     1      -1.040   5.752  20.558  1.00  0.00     0.064 A 
HETATM   22  C28 UNL     1      -1.200   4.440  21.014  1.00  0.00     0.124 A 
HETATM   23  N10 UNL     1      -2.408   3.973  21.340  1.00  0.00    -0.214 N 
ENDROOT
BRANCH  10  24
HETATM   24  C8  UNL     1      -3.592  -0.182  22.858  1.00  0.00     0.151 C 
BRANCH  24  25
HETATM   25  C9  UNL     1      -3.145   0.042  24.340  1.00  0.00     0.049 C 
BRANCH  25  26
HETATM   26  C10 UNL     1      -1.842  -0.668  24.536  1.00  0.00     0.239 C 
BRANCH  26  27
HETATM   27  N5  UNL     1      -0.858   0.044  25.294  1.00  0.00    -0.064 N 
HETATM   28  C11 UNL     1      -1.345   1.332  25.751  1.00  0.00     0.239 C 
HETATM   29  C12 UNL     1      -0.300   2.395  25.820  1.00  0.00     0.061 C 
HETATM   30  C13 UNL     1       0.670   2.190  26.965  1.00  0.00     0.187 C 
HETATM   31  C14 UNL     1       0.103   2.565  28.295  1.00  0.00     0.040 C 
HETATM   32  N6  UNL     1       1.156   0.819  26.932  1.00  0.00    -0.064 N 
HETATM   33  C15 UNL     1       2.365   0.772  27.760  1.00  0.00     0.273 C 
HETATM   34  C16 UNL     1       1.542   0.482  25.601  1.00  0.00     0.265 C 
HETATM   35  C18 UNL     1       0.200  -0.063  27.519  1.00  0.00     0.265 C 
HETATM   36  C17 UNL     1       0.437   0.128  24.668  1.00  0.00     0.265 C 
HETATM   37  C19 UNL     1      -0.653  -0.753  26.516  1.00  0.00     0.265 C 
ENDBRANCH  26  27
ENDBRANCH  25  26
ENDBRANCH  24  25
ENDBRANCH  10  24
BRANCH   1  38
HETATM   38  C4  UNL     1      -1.373   1.833  21.846  1.00  0.00     0.094 C 
BRANCH  38  39
HETATM   39  C3  UNL     1      -1.062   0.747  20.900  1.00  0.00     0.073 C 
BRANCH  39  40
HETATM   40  C2  UNL     1       0.450   0.454  20.967  1.00  0.00     0.172 C 
BRANCH  40  41
HETATM   41  O1  UNL     1       1.157   1.224  20.077  1.00  0.00    -0.396 OA
HETATM   42  C1  UNL     1       1.784   0.466  19.095  1.00  0.00     0.201 C 
ENDBRANCH  40  41
ENDBRANCH  39  40
ENDBRANCH  38  39
ENDBRANCH   1  38
BRANCH  22  43
HETATM   43  N9  UNL     1      -0.154   3.730  21.060  1.00  0.00    -0.384 N 
ATOM     44  H92 UNL     1       0.480   3.627  20.267  1.00  0.00     0.157 HD
ATOM     45  H91 UNL     1       0.047   3.279  21.952  1.00  0.00     0.157 HD
ENDBRANCH  22  43
TORSDOF 9
ENDMDL
MODEL 4
REMARK VINA RESULT: -6.517451819      2.792      6.224
REMARK  9 active torsions:
REMARK  status: ('A' for Active; 'I' for Inactive)
REMARK    1  A    between atoms: O1_2  and  C2_3 
REMARK    2  A    between atoms: C2_3  and  C3_4 
REMARK    3  A    between atoms: C3_4  and  C4_5 
REMARK    4  A    between atoms: C4_5  and  N1_6 
REMARK    5  A    between atoms: N4_15  and  C8_16 
REMARK    6  A    between atoms: C8_16  and  C9_17 
REMARK    7  A    between atoms: C9_17  and  C10_18 
REMARK    8  A    between atoms: C10_18  and  N5_19 
REMARK    9  A    between atoms: C28_41  and  N9_42 
ROOT
HETATM    1  N1  UNL     1      -2.862   2.157  20.913  1.00  0.00    -0.241 N 
HETATM    2  C5  UNL     1      -4.168   1.720  20.935  1.00  0.00     0.190 A 
HETATM    3  C6  UNL     1      -5.193   2.638  20.768  1.00  0.00     0.171 A 
HETATM    4  N2  UNL     1      -6.340   1.983  20.778  1.00  0.00    -0.173 N 
ATOM      5  H2  UNL     1      -7.263   2.404  20.675  1.00  0.00     0.186 HD
HETATM    6  C7  UNL     1      -6.099   0.697  20.943  1.00  0.00     0.681 A 
HETATM    7  N3  UNL     1      -6.921  -0.286  20.996  1.00  0.00    -0.234 N 
ATOM      8  H31 UNL     1      -6.735  -1.280  21.123  1.00  0.00     0.174 HD
ATOM      9  H32 UNL     1      -7.928  -0.145  20.918  1.00  0.00     0.174 HD
HETATM   10  N4  UNL     1      -4.717   0.502  21.050  1.00  0.00    -0.163 N 
HETATM   11  N7  UNL     1      -4.974   3.956  20.591  1.00  0.00    -0.317 N 
HETATM   12  C20 UNL     1      -6.131   4.830  20.474  1.00  0.00     0.159 C 
HETATM   13  C21 UNL     1      -3.720   4.379  20.569  1.00  0.00     0.161 A 
HETATM   14  C22 UNL     1      -3.486   5.748  20.361  1.00  0.00     0.089 A 
HETATM   15  N8  UNL     1      -4.287   6.801  20.173  1.00  0.00    -0.356 N 
ATOM     16  H8  UNL     1      -5.307   6.788  20.153  1.00  0.00     0.166 HD
HETATM   17  C23 UNL     1      -3.488   7.899  20.013  1.00  0.00     0.006 A 
HETATM   18  C24 UNL     1      -4.007   9.290  19.778  1.00  0.00     0.068 C 
HETATM   19  C25 UNL     1      -2.185   7.533  20.100  1.00  0.00     0.038 A 
HETATM   20  C26 UNL     1      -2.170   6.153  20.322  1.00  0.00    -0.000 A 
HETATM   21  C27 UNL     1      -1.138   5.279  20.475  1.00  0.00     0.064 A 
HETATM   22  C28 UNL     1      -1.414   3.924  20.680  1.00  0.00     0.124 A 
HETATM   23  N10 UNL     1      -2.675   3.484  20.728  1.00  0.00    -0.214 N 
ENDROOT
BRANCH  10  24
HETATM   24  C8  UNL     1      -4.229  -0.780  21.342  1.00  0.00     0.151 C 
BRANCH  24  25
HETATM   25  C9  UNL     1      -3.985  -1.465  19.957  1.00  0.00     0.049 C 
BRANCH  25  26
HETATM   26  C10 UNL     1      -2.796  -2.363  20.096  1.00  0.00     0.239 C 
BRANCH  26  27
HETATM   27  N5  UNL     1      -1.743  -2.146  19.152  1.00  0.00    -0.064 N 
HETATM   28  C11 UNL     1      -0.436  -2.133  19.782  1.00  0.00     0.239 C 
HETATM   29  C12 UNL     1       0.545  -1.206  19.144  1.00  0.00     0.061 C 
HETATM   30  C13 UNL     1       1.035  -1.705  17.800  1.00  0.00     0.187 C 
HETATM   31  C14 UNL     1       2.040  -2.805  17.909  1.00  0.00     0.040 C 
HETATM   32  N6  UNL     1      -0.113  -2.077  16.987  1.00  0.00    -0.064 N 
HETATM   33  C15 UNL     1       0.351  -2.152  15.599  1.00  0.00     0.273 C 
HETATM   34  C16 UNL     1      -1.095  -1.045  17.050  1.00  0.00     0.265 C 
HETATM   35  C18 UNL     1      -0.584  -3.374  17.353  1.00  0.00     0.265 C 
HETATM   36  C17 UNL     1      -1.948  -1.024  18.270  1.00  0.00     0.265 C 
HETATM   37  C19 UNL     1      -1.745  -3.335  18.281  1.00  0.00     0.265 C 
ENDBRANCH  26  27
ENDBRANCH  25  26
ENDBRANCH  24  25
ENDBRANCH  10  24
BRANCH   1  38
HETATM   38  C4  UNL     1      -1.808   1.234  21.039  1.00  0.00     0.094 C 
BRANCH  38  39
HETATM   39  C3  UNL     1      -1.454   0.519  22.278  1.00  0.00     0.073 C 
BRANCH  39  40
HETATM   40  C2  UNL     1      -1.794   1.421  23.481  1.00  0.00     0.172 C 
BRANCH  40  41
HETATM   41  O1  UNL     1      -0.787   2.316  23.745  1.00  0.00    -0.396 OA
HETATM   42  C1  UNL     1      -1.247   3.468  24.371  1.00  0.00     0.201 C 
ENDBRANCH  40  41
ENDBRANCH  39  40
ENDBRANCH  38  39
ENDBRANCH   1  38
BRANCH  22  43
HETATM   43  N9  UNL     1      -0.414   3.156  20.777  1.00  0.00    -0.384 N 
ATOM     44  H92 UNL     1       0.435   3.279  20.224  1.00  0.00     0.157 HD
ATOM     45  H91 UNL     1      -0.483   2.408  21.468  1.00  0.00     0.157 HD
ENDBRANCH  22  43
TORSDOF 9
ENDMDL
MODEL 5
REMARK VINA RESULT: -6.401473626      2.719      7.857
REMARK  9 active torsions:
REMARK  status: ('A' for Active; 'I' for Inactive)
REMARK    1  A    between atoms: O1_2  and  C2_3 
REMARK    2  A    between atoms: C2_3  and  C3_4 
REMARK    3  A    between atoms: C3_4  and  C4_5 
REMARK    4  A    between atoms: C4_5  and  N1_6 
REMARK    5  A    between atoms: N4_15  and  C8_16 
REMARK    6  A    between atoms: C8_16  and  C9_17 
REMARK    7  A    between atoms: C9_17  and  C10_18 
REMARK    8  A    between atoms: C10_18  and  N5_19 
REMARK    9  A    between atoms: C28_41  and  N9_42 
ROOT
HETATM    1  N1  UNL     1      -1.469   3.457  24.066  1.00  0.00    -0.241 N 
HETATM    2  C5  UNL     1      -0.497   2.505  24.277  1.00  0.00     0.190 A 
HETATM    3  C6  UNL     1      -0.053   2.265  25.568  1.00  0.00     0.171 A 
HETATM    4  N2  UNL     1       0.835   1.287  25.524  1.00  0.00    -0.173 N 
ATOM      5  H2  UNL     1       1.329   0.899  26.327  1.00  0.00     0.186 HD
HETATM    6  C7  UNL     1       0.979   0.893  24.273  1.00  0.00     0.681 A 
HETATM    7  N3  UNL     1       1.723  -0.033  23.791  1.00  0.00    -0.234 N 
ATOM      8  H31 UNL     1       1.834  -0.338  22.825  1.00  0.00     0.174 HD
ATOM      9  H32 UNL     1       2.333  -0.592  24.387  1.00  0.00     0.174 HD
HETATM   10  N4  UNL     1       0.140   1.659  23.455  1.00  0.00    -0.163 N 
HETATM   11  N7  UNL     1      -0.524   2.931  26.641  1.00  0.00    -0.317 N 
HETATM   12  C20 UNL     1       0.053   2.625  27.941  1.00  0.00     0.159 C 
HETATM   13  C21 UNL     1      -1.458   3.847  26.441  1.00  0.00     0.161 A 
HETATM   14  C22 UNL     1      -1.969   4.526  27.558  1.00  0.00     0.089 A 
HETATM   15  N8  UNL     1      -1.713   4.469  28.868  1.00  0.00    -0.356 N 
ATOM     16  H8  UNL     1      -1.029   3.864  29.323  1.00  0.00     0.166 HD
HETATM   17  C23 UNL     1      -2.535   5.369  29.486  1.00  0.00     0.006 A 
HETATM   18  C24 UNL     1      -2.555   5.610  30.970  1.00  0.00     0.068 C 
HETATM   19  C25 UNL     1      -3.309   5.991  28.562  1.00  0.00     0.038 A 
HETATM   20  C26 UNL     1      -2.956   5.458  27.319  1.00  0.00    -0.000 A 
HETATM   21  C27 UNL     1      -3.422   5.715  26.067  1.00  0.00     0.064 A 
HETATM   22  C28 UNL     1      -2.886   5.016  24.981  1.00  0.00     0.124 A 
HETATM   23  N10 UNL     1      -1.926   4.105  25.162  1.00  0.00    -0.214 N 
ENDROOT
BRANCH  10  24
HETATM   24  C8  UNL     1       0.205   1.491  22.064  1.00  0.00     0.151 C 
BRANCH  24  25
HETATM   25  C9  UNL     1      -0.803   0.344  21.728  1.00  0.00     0.049 C 
BRANCH  25  26
HETATM   26  C10 UNL     1      -1.328   0.587  20.348  1.00  0.00     0.239 C 
BRANCH  26  27
HETATM   27  N5  UNL     1      -0.677  -0.142  19.302  1.00  0.00    -0.064 N 
HETATM   28  C11 UNL     1      -0.070  -1.368  19.784  1.00  0.00     0.239 C 
HETATM   29  C12 UNL     1       1.188  -1.751  19.078  1.00  0.00     0.061 C 
HETATM   30  C13 UNL     1       0.940  -2.254  17.670  1.00  0.00     0.187 C 
HETATM   31  C14 UNL     1       0.408  -3.649  17.626  1.00  0.00     0.040 C 
HETATM   32  N6  UNL     1       0.080  -1.307  16.975  1.00  0.00    -0.064 N 
HETATM   33  C15 UNL     1       0.198  -1.592  15.543  1.00  0.00     0.273 C 
HETATM   34  C16 UNL     1       0.564   0.018  17.185  1.00  0.00     0.265 C 
HETATM   35  C18 UNL     1      -1.285  -1.510  17.342  1.00  0.00     0.265 C 
HETATM   36  C17 UNL     1       0.220   0.643  18.491  1.00  0.00     0.265 C 
HETATM   37  C19 UNL     1      -1.754  -0.570  18.392  1.00  0.00     0.265 C 
ENDBRANCH  26  27
ENDBRANCH  25  26
ENDBRANCH  24  25
ENDBRANCH  10  24
BRANCH   1  38
HETATM   38  C4  UNL     1      -1.962   3.685  22.768  1.00  0.00     0.094 C 
BRANCH  38  39
HETATM   39  C3  UNL     1      -1.297   4.510  21.744  1.00  0.00     0.073 C 
BRANCH  39  40
HETATM   40  C2  UNL     1      -1.947   4.214  20.376  1.00  0.00     0.172 C 
BRANCH  40  41
HETATM   41  O1  UNL     1      -1.318   4.887  19.359  1.00  0.00    -0.396 OA
HETATM   42  C1  UNL     1      -1.200   6.248  19.613  1.00  0.00     0.201 C 
ENDBRANCH  40  41
ENDBRANCH  39  40
ENDBRANCH  38  39
ENDBRANCH   1  38
BRANCH  22  43
HETATM   43  N9  UNL     1      -3.386   5.270  23.848  1.00  0.00    -0.384 N 
ATOM     44  H92 UNL     1      -2.912   5.844  23.149  1.00  0.00     0.157 HD
ATOM     45  H91 UNL     1      -4.290   4.844  23.646  1.00  0.00     0.157 HD
ENDBRANCH  22  43
TORSDOF 9
ENDMDL
