MODEL 1
REMARK VINA RESULT: -7.050093322      0.000      0.000
REMARK  9 active torsions:
REMARK  status: ('A' for Active; 'I' for Inactive)
REMARK    1  A    between atoms: N1_4  and  C4_5 
REMARK    2  A    between atoms: C4_5  and  C5_6 
REMARK    3  A    between atoms: C6_7  and  C7_8 
REMARK    4  A    between atoms: C7_8  and  N2_9 
REMARK    5  A    between atoms: N2_9  and  C9_11 
REMARK    6  A    between atoms: C9_11  and  C10_12 
REMARK    7  A    between atoms: C10_12  and  C11_13 
REMARK    8  A    between atoms: C15_22  and  N5_23 
REMARK       I    between atoms: N5_23  and  C16_25 
REMARK       I    between atoms: C16_25  and  N7_29 
REMARK    9  A    between atoms: N7_29  and  C18_31 
ROOT
HETATM    1  C1  UNL     1       1.160  -0.442  25.098  1.00  0.00     0.018 C 
HETATM    2  C2  UNL     1       0.406   0.401  24.445  1.00  0.00    -0.039 C 
HETATM    3  C3  UNL     1      -0.082   0.222  23.051  1.00  0.00     0.162 C 
HETATM    4  N1  UNL     1      -0.090   1.588  22.568  1.00  0.00    -0.336 N 
HETATM    5  C14 UNL     1       0.119   2.511  23.629  1.00  0.00     0.248 C 
HETATM    6  O1  UNL     1       0.445   3.719  23.542  1.00  0.00    -0.271 OA
HETATM    7  C15 UNL     1      -0.143   1.695  24.876  1.00  0.00     0.222 C 
ENDROOT
BRANCH   4   8
HETATM    8  C4  UNL     1      -0.283   2.037  21.191  1.00  0.00     0.220 C 
BRANCH   8   9
HETATM    9  C5  UNL     1      -1.669   2.507  21.040  1.00  0.00    -0.081 C 
HETATM   10  C6  UNL     1      -2.793   2.905  20.901  1.00  0.00    -0.060 C 
BRANCH  10  11
HETATM   11  C7  UNL     1      -4.138   3.378  20.705  1.00  0.00     0.154 C 
BRANCH  11  12
HETATM   12  N2  UNL     1      -4.492   4.560  21.384  1.00  0.00    -0.367 N 
HETATM   13  C8  UNL     1      -5.842   4.725  21.779  1.00  0.00     0.155 C 
BRANCH  12  14
HETATM   14  C9  UNL     1      -3.673   5.698  21.282  1.00  0.00     0.069 C 
BRANCH  14  15
HETATM   15  C10 UNL     1      -3.680   6.305  19.923  1.00  0.00     0.103 C 
BRANCH  15  16
HETATM   16  C11 UNL     1      -3.277   7.709  19.866  1.00  0.00     0.030 A 
HETATM   17  C12 UNL     1      -1.969   8.187  19.790  1.00  0.00     0.114 A 
HETATM   18  N3  UNL     1      -2.033   9.525  19.748  1.00  0.00    -0.360 N 
HETATM   19  C13 UNL     1      -3.305   9.913  19.792  1.00  0.00     0.180 A 
ATOM     20  H3  UNL     1      -1.230  10.150  19.690  1.00  0.00     0.166 HD
HETATM   21  N4  UNL     1      -4.056   8.803  19.864  1.00  0.00    -0.354 N 
ATOM     22  H4  UNL     1      -5.076   8.792  19.911  1.00  0.00     0.166 HD
ENDBRANCH  15  16
ENDBRANCH  14  15
ENDBRANCH  12  14
ENDBRANCH  11  12
ENDBRANCH  10  11
ENDBRANCH   8   9
ENDBRANCH   4   8
BRANCH   7  23
HETATM   23  N5  UNL     1       0.434   2.292  26.024  1.00  0.00    -0.209 N 
HETATM   24  C16 UNL     1      -0.303   2.439  27.220  1.00  0.00     0.670 C 
HETATM   25  N6  UNL     1       0.332   2.403  28.365  1.00  0.00    -0.231 N 
HETATM   26  N7  UNL     1      -1.710   2.630  27.265  1.00  0.00    -0.220 N 
HETATM   27  C17 UNL     1      -0.305   2.539  29.639  1.00  0.00     0.165 C 
ATOM     28  H6  UNL     1       1.343   2.269  28.348  1.00  0.00     0.177 HD
ATOM     29  H7  UNL     1      -2.362   1.856  27.143  1.00  0.00     0.178 HD
ATOM     30  H5  UNL     1       1.398   2.622  25.986  1.00  0.00     0.179 HD
BRANCH  26  31
HETATM   31  C18 UNL     1      -2.171   3.991  27.493  1.00  0.00     0.127 C 
HETATM   32  C19 UNL     1      -2.317   4.690  26.166  1.00  0.00     0.055 C 
HETATM   33  C20 UNL     1      -3.304   5.788  26.500  1.00  0.00     0.238 C 
HETATM   34  N8  UNL     1      -4.041   5.377  27.656  1.00  0.00    -0.073 N 
HETATM   35  C21 UNL     1      -5.463   5.400  27.375  1.00  0.00     0.272 C 
HETATM   36  C22 UNL     1      -3.816   6.342  28.730  1.00  0.00     0.272 C 
HETATM   37  C23 UNL     1      -3.576   4.054  28.030  1.00  0.00     0.262 C 
ENDBRANCH  26  31
ENDBRANCH   7  23
TORSDOF 9
ENDMDL
MODEL 2
REMARK VINA RESULT: -7.044563405      2.938      6.520
REMARK  9 active torsions:
REMARK  status: ('A' for Active; 'I' for Inactive)
REMARK    1  A    between atoms: N1_4  and  C4_5 
REMARK    2  A    between atoms: C4_5  and  C5_6 
REMARK    3  A    between atoms: C6_7  and  C7_8 
REMARK    4  A    between atoms: C7_8  and  N2_9 
REMARK    5  A    between atoms: N2_9  and  C9_11 
REMARK    6  A    between atoms: C9_11  and  C10_12 
REMARK    7  A    between atoms: C10_12  and  C11_13 
REMARK    8  A    between atoms: C15_22  and  N5_23 
REMARK       I    between atoms: N5_23  and  C16_25 
REMARK       I    between atoms: C16_25  and  N7_29 
REMARK    9  A    between atoms: N7_29  and  C18_31 
ROOT
HETATM    1  C1  UNL     1       2.854  -0.295  26.906  1.00  0.00     0.018 C 
HETATM    2  C2  UNL     1       2.142   0.327  26.004  1.00  0.00    -0.039 C 
HETATM    3  C3  UNL     1       1.590   1.702  26.138  1.00  0.00     0.162 C 
HETATM    4  N1  UNL     1       0.343   1.586  25.408  1.00  0.00    -0.336 N 
HETATM    5  C14 UNL     1       0.275   0.358  24.696  1.00  0.00     0.248 C 
HETATM    6  O1  UNL     1      -0.741  -0.187  24.203  1.00  0.00    -0.271 OA
HETATM    7  C15 UNL     1       1.707  -0.129  24.676  1.00  0.00     0.222 C 
ENDROOT
BRANCH   4   8
HETATM    8  C4  UNL     1      -0.746   2.560  25.361  1.00  0.00     0.220 C 
BRANCH   8   9
HETATM    9  C5  UNL     1      -0.749   3.196  24.035  1.00  0.00    -0.081 C 
HETATM   10  C6  UNL     1      -0.732   3.705  22.947  1.00  0.00    -0.060 C 
BRANCH  10  11
HETATM   11  C7  UNL     1      -0.711   4.287  21.631  1.00  0.00     0.154 C 
BRANCH  11  12
HETATM   12  N2  UNL     1      -1.762   5.171  21.320  1.00  0.00    -0.367 N 
HETATM   13  C8  UNL     1      -2.861   5.241  22.212  1.00  0.00     0.155 C 
BRANCH  12  14
HETATM   14  C9  UNL     1      -1.933   5.621  20.000  1.00  0.00     0.069 C 
BRANCH  14  15
HETATM   15  C10 UNL     1      -1.386   6.986  19.771  1.00  0.00     0.103 C 
BRANCH  15  16
HETATM   16  C11 UNL     1      -2.379   8.059  19.744  1.00  0.00     0.030 A 
HETATM   17  C12 UNL     1      -3.764   7.898  19.768  1.00  0.00     0.114 A 
HETATM   18  N3  UNL     1      -4.310   9.121  19.740  1.00  0.00    -0.360 N 
HETATM   19  C13 UNL     1      -3.348  10.038  19.700  1.00  0.00     0.180 A 
ATOM     20  H3  UNL     1      -5.311   9.318  19.747  1.00  0.00     0.166 HD
HETATM   21  N4  UNL     1      -2.175   9.386  19.703  1.00  0.00    -0.354 N 
ATOM     22  H4  UNL     1      -1.260   9.835  19.677  1.00  0.00     0.166 HD
ENDBRANCH  15  16
ENDBRANCH  14  15
ENDBRANCH  12  14
ENDBRANCH  11  12
ENDBRANCH  10  11
ENDBRANCH   8   9
ENDBRANCH   4   8
BRANCH   7  23
HETATM   23  N5  UNL     1       1.783  -1.520  24.413  1.00  0.00    -0.209 N 
HETATM   24  C16 UNL     1       2.586  -2.022  23.365  1.00  0.00     0.670 C 
HETATM   25  N6  UNL     1       3.124  -3.210  23.491  1.00  0.00    -0.231 N 
HETATM   26  N7  UNL     1       2.851  -1.314  22.161  1.00  0.00    -0.220 N 
HETATM   27  C17 UNL     1       3.953  -3.823  22.499  1.00  0.00     0.165 C 
ATOM     28  H6  UNL     1       2.939  -3.731  24.348  1.00  0.00     0.177 HD
ATOM     29  H7  UNL     1       3.541  -0.565  22.119  1.00  0.00     0.178 HD
ATOM     30  H5  UNL     1       1.249  -2.169  24.990  1.00  0.00     0.179 HD
BRANCH  26  31
HETATM   31  C18 UNL     1       2.084  -1.717  20.992  1.00  0.00     0.127 C 
HETATM   32  C19 UNL     1       0.628  -1.416  21.231  1.00  0.00     0.055 C 
HETATM   33  C20 UNL     1       0.093  -1.324  19.819  1.00  0.00     0.238 C 
HETATM   34  N8  UNL     1       1.191  -1.015  18.954  1.00  0.00    -0.073 N 
HETATM   35  C21 UNL     1       0.905   0.186  18.196  1.00  0.00     0.272 C 
HETATM   36  C22 UNL     1       1.346  -2.092  17.980  1.00  0.00     0.272 C 
HETATM   37  C23 UNL     1       2.377  -0.875  19.779  1.00  0.00     0.262 C 
ENDBRANCH  26  31
ENDBRANCH   7  23
TORSDOF 9
ENDMDL
MODEL 3
REMARK VINA RESULT: -6.846058228      1.916      5.245
REMARK  9 active torsions:
REMARK  status: ('A' for Active; 'I' for Inactive)
REMARK    1  A    between atoms: N1_4  and  C4_5 
REMARK    2  A    between atoms: C4_5  and  C5_6 
REMARK    3  A    between atoms: C6_7  and  C7_8 
REMARK    4  A    between atoms: C7_8  and  N2_9 
REMARK    5  A    between atoms: N2_9  and  C9_11 
REMARK    6  A    between atoms: C9_11  and  C10_12 
REMARK    7  A    between atoms: C10_12  and  C11_13 
REMARK    8  A    between atoms: C15_22  and  N5_23 
REMARK       I    between atoms: N5_23  and  C16_25 
REMARK       I    between atoms: C16_25  and  N7_29 
REMARK    9  A    between atoms: N7_29  and  C18_31 
ROOT
HETATM    1  C1  UNL     1      -1.030   4.381  29.650  1.00  0.00     0.018 C 
HETATM    2  C2  UNL     1      -1.185   4.230  28.361  1.00  0.00    -0.039 C 
HETATM    3  C3  UNL     1      -1.898   5.175  27.461  1.00  0.00     0.162 C 
HETATM    4  N1  UNL     1      -2.484   4.268  26.494  1.00  0.00    -0.336 N 
HETATM    5  C14 UNL     1      -1.968   2.952  26.643  1.00  0.00     0.248 C 
HETATM    6  O1  UNL     1      -2.441   1.886  26.181  1.00  0.00    -0.271 OA
HETATM    7  C15 UNL     1      -0.725   3.143  27.484  1.00  0.00     0.222 C 
ENDROOT
BRANCH   4   8
HETATM    8  C4  UNL     1      -3.477   4.589  25.470  1.00  0.00     0.220 C 
BRANCH   8   9
HETATM    9  C5  UNL     1      -2.792   4.708  24.174  1.00  0.00    -0.081 C 
HETATM   10  C6  UNL     1      -2.217   4.793  23.123  1.00  0.00    -0.060 C 
BRANCH  10  11
HETATM   11  C7  UNL     1      -1.524   4.864  21.863  1.00  0.00     0.154 C 
BRANCH  11  12
HETATM   12  N2  UNL     1      -2.326   5.015  20.716  1.00  0.00    -0.367 N 
HETATM   13  C8  UNL     1      -3.450   4.164  20.571  1.00  0.00     0.155 C 
BRANCH  12  14
HETATM   14  C9  UNL     1      -1.806   5.648  19.574  1.00  0.00     0.069 C 
BRANCH  14  15
HETATM   15  C10 UNL     1      -1.323   7.031  19.841  1.00  0.00     0.103 C 
BRANCH  15  16
HETATM   16  C11 UNL     1      -2.348   8.072  19.775  1.00  0.00     0.030 A 
HETATM   17  C12 UNL     1      -3.727   7.866  19.724  1.00  0.00     0.114 A 
HETATM   18  N3  UNL     1      -4.310   9.071  19.681  1.00  0.00    -0.360 N 
HETATM   19  C13 UNL     1      -3.378  10.020  19.703  1.00  0.00     0.180 A 
ATOM     20  H3  UNL     1      -5.316   9.236  19.638  1.00  0.00     0.166 HD
HETATM   21  N4  UNL     1      -2.186   9.405  19.760  1.00  0.00    -0.354 N 
ATOM     22  H4  UNL     1      -1.285   9.883  19.788  1.00  0.00     0.166 HD
ENDBRANCH  15  16
ENDBRANCH  14  15
ENDBRANCH  12  14
ENDBRANCH  11  12
ENDBRANCH  10  11
ENDBRANCH   8   9
ENDBRANCH   4   8
BRANCH   7  23
HETATM   23  N5  UNL     1      -0.323   1.935  28.107  1.00  0.00    -0.209 N 
HETATM   24  C16 UNL     1       0.816   1.228  27.662  1.00  0.00     0.670 C 
HETATM   25  N6  UNL     1       1.508   0.531  28.529  1.00  0.00    -0.231 N 
HETATM   26  N7  UNL     1       1.266   1.218  26.315  1.00  0.00    -0.220 N 
HETATM   27  C17 UNL     1       2.678  -0.225  28.199  1.00  0.00     0.165 C 
ATOM     28  H6  UNL     1       1.194   0.526  29.500  1.00  0.00     0.177 HD
ATOM     29  H7  UNL     1       1.790   1.998  25.918  1.00  0.00     0.178 HD
ATOM     30  H5  UNL     1      -0.866   1.570  28.889  1.00  0.00     0.179 HD
BRANCH  26  31
HETATM   31  C18 UNL     1       0.940   0.036  25.532  1.00  0.00     0.127 C 
HETATM   32  C19 UNL     1      -0.047   0.414  24.458  1.00  0.00     0.055 C 
HETATM   33  C20 UNL     1       0.169  -0.682  23.437  1.00  0.00     0.238 C 
HETATM   34  N8  UNL     1       1.482  -1.215  23.639  1.00  0.00    -0.073 N 
HETATM   35  C21 UNL     1       2.245  -1.138  22.409  1.00  0.00     0.272 C 
HETATM   36  C22 UNL     1       1.372  -2.634  23.969  1.00  0.00     0.272 C 
HETATM   37  C23 UNL     1       2.102  -0.469  24.718  1.00  0.00     0.262 C 
ENDBRANCH  26  31
ENDBRANCH   7  23
TORSDOF 9
ENDMDL
MODEL 4
REMARK VINA RESULT: -6.733460710      1.737      2.110
REMARK  9 active torsions:
REMARK  status: ('A' for Active; 'I' for Inactive)
REMARK    1  A    between atoms: N1_4  and  C4_5 
REMARK    2  A    between atoms: C4_5  and  C5_6 
REMARK    3  A    between atoms: C6_7  and  C7_8 
REMARK    4  A    between atoms: C7_8  and  N2_9 
REMARK    5  A    between atoms: N2_9  and  C9_11 
REMARK    6  A    between atoms: C9_11  and  C10_12 
REMARK    7  A    between atoms: C10_12  and  C11_13 
REMARK    8  A    between atoms: C15_22  and  N5_23 
REMARK       I    between atoms: N5_23  and  C16_25 
REMARK       I    between atoms: C16_25  and  N7_29 
REMARK    9  A    between atoms: N7_29  and  C18_31 
ROOT
HETATM    1  C1  UNL     1      -1.704  -0.419  26.965  1.00  0.00     0.018 C 
HETATM    2  C2  UNL     1      -1.332   0.561  26.186  1.00  0.00    -0.039 C 
HETATM    3  C3  UNL     1      -1.549   0.626  24.716  1.00  0.00     0.162 C 
HETATM    4  N1  UNL     1      -0.360   1.329  24.277  1.00  0.00    -0.336 N 
HETATM    5  C14 UNL     1       0.363   1.857  25.381  1.00  0.00     0.248 C 
HETATM    6  O1  UNL     1       1.549   2.266  25.397  1.00  0.00    -0.271 OA
HETATM    7  C15 UNL     1      -0.630   1.809  26.521  1.00  0.00     0.222 C 
ENDROOT
BRANCH   4   8
HETATM    8  C4  UNL     1       0.100   1.514  22.903  1.00  0.00     0.220 C 
BRANCH   8   9
HETATM    9  C5  UNL     1      -0.456   2.775  22.387  1.00  0.00    -0.081 C 
HETATM   10  C6  UNL     1      -0.930   3.794  21.964  1.00  0.00    -0.060 C 
BRANCH  10  11
HETATM   11  C7  UNL     1      -1.520   5.013  21.476  1.00  0.00     0.154 C 
BRANCH  11  12
HETATM   12  N2  UNL     1      -2.744   5.392  22.059  1.00  0.00    -0.367 N 
HETATM   13  C8  UNL     1      -3.004   4.987  23.391  1.00  0.00     0.155 C 
BRANCH  12  14
HETATM   14  C9  UNL     1      -3.827   5.757  21.240  1.00  0.00     0.069 C 
BRANCH  14  15
HETATM   15  C10 UNL     1      -3.406   6.297  19.918  1.00  0.00     0.103 C 
BRANCH  15  16
HETATM   16  C11 UNL     1      -3.259   7.751  19.857  1.00  0.00     0.030 A 
HETATM   17  C12 UNL     1      -2.095   8.446  19.529  1.00  0.00     0.114 A 
HETATM   18  N3  UNL     1      -2.382   9.754  19.579  1.00  0.00    -0.360 N 
HETATM   19  C13 UNL     1      -3.657   9.918  19.919  1.00  0.00     0.180 A 
ATOM     20  H3  UNL     1      -1.724  10.508  19.386  1.00  0.00     0.166 HD
HETATM   21  N4  UNL     1      -4.185   8.695  20.088  1.00  0.00    -0.354 N 
ATOM     22  H4  UNL     1      -5.152   8.510  20.353  1.00  0.00     0.166 HD
ENDBRANCH  15  16
ENDBRANCH  14  15
ENDBRANCH  12  14
ENDBRANCH  11  12
ENDBRANCH  10  11
ENDBRANCH   8   9
ENDBRANCH   4   8
BRANCH   7  23
HETATM   23  N5  UNL     1       0.015   1.870  27.781  1.00  0.00    -0.209 N 
HETATM   24  C16 UNL     1      -0.720   2.077  28.970  1.00  0.00     0.670 C 
HETATM   25  N6  UNL     1      -0.281   1.553  30.087  1.00  0.00    -0.231 N 
HETATM   26  N7  UNL     1      -1.923   2.831  29.036  1.00  0.00    -0.220 N 
HETATM   27  C17 UNL     1      -0.937   1.694  31.351  1.00  0.00     0.165 C 
ATOM     28  H6  UNL     1       0.583   1.012  30.055  1.00  0.00     0.177 HD
ATOM     29  H7  UNL     1      -2.817   2.444  28.736  1.00  0.00     0.178 HD
ATOM     30  H5  UNL     1       1.028   1.763  27.832  1.00  0.00     0.179 HD
BRANCH  26  31
HETATM   31  C18 UNL     1      -1.809   4.186  29.554  1.00  0.00     0.127 C 
HETATM   32  C19 UNL     1      -1.445   5.115  28.426  1.00  0.00     0.055 C 
HETATM   33  C20 UNL     1      -1.929   6.449  28.952  1.00  0.00     0.238 C 
HETATM   34  N8  UNL     1      -2.939   6.191  29.933  1.00  0.00    -0.073 N 
HETATM   35  C21 UNL     1      -4.162   6.887  29.584  1.00  0.00     0.272 C 
HETATM   36  C22 UNL     1      -2.505   6.738  31.217  1.00  0.00     0.272 C 
HETATM   37  C23 UNL     1      -3.127   4.754  30.009  1.00  0.00     0.262 C 
ENDBRANCH  26  31
ENDBRANCH   7  23
TORSDOF 9
ENDMDL
MODEL 5
REMARK VINA RESULT: -6.540078595      2.815      6.305
REMARK  9 active torsions:
REMARK  status: ('A' for Active; 'I' for Inactive)
REMARK    1  A    between atoms: N1_4  and  C4_5 
REMARK    2  A    between atoms: C4_5  and  C5_6 
REMARK    3  A    between atoms: C6_7  and  C7_8 
REMARK    4  A    between atoms: C7_8  and  N2_9 
REMARK    5  A    between atoms: N2_9  and  C9_11 
REMARK    6  A    between atoms: C9_11  and  C10_12 
REMARK    7  A    between atoms: C10_12  and  C11_13 
REMARK    8  A    between atoms: C15_22  and  N5_23 
REMARK       I    between atoms: N5_23  and  C16_25 
REMARK       I    between atoms: C16_25  and  N7_29 
REMARK    9  A    between atoms: N7_29  and  C18_31 
ROOT
HETATM    1  C1  UNL     1       2.380   0.160  27.711  1.00  0.00     0.018 C 
HETATM    2  C2  UNL     1       1.729   0.679  26.704  1.00  0.00    -0.039 C 
HETATM    3  C3  UNL     1       1.069   2.012  26.696  1.00  0.00     0.162 C 
HETATM    4  N1  UNL     1      -0.079   1.762  25.847  1.00  0.00    -0.336 N 
HETATM    5  C14 UNL     1       0.019   0.498  25.206  1.00  0.00     0.248 C 
HETATM    6  O1  UNL     1      -0.896  -0.149  24.642  1.00  0.00    -0.271 OA
HETATM    7  C15 UNL     1       1.475   0.121  25.367  1.00  0.00     0.222 C 
ENDROOT
BRANCH   4   8
HETATM    8  C4  UNL     1      -1.223   2.645  25.627  1.00  0.00     0.220 C 
BRANCH   8   9
HETATM    9  C5  UNL     1      -1.129   3.206  24.270  1.00  0.00    -0.081 C 
HETATM   10  C6  UNL     1      -1.031   3.655  23.160  1.00  0.00    -0.060 C 
BRANCH  10  11
HETATM   11  C7  UNL     1      -0.907   4.165  21.820  1.00  0.00     0.154 C 
BRANCH  11  12
HETATM   12  N2  UNL     1      -2.104   4.543  21.181  1.00  0.00    -0.367 N 
HETATM   13  C8  UNL     1      -3.248   3.729  21.371  1.00  0.00     0.155 C 
BRANCH  12  14
HETATM   14  C9  UNL     1      -2.064   5.406  20.073  1.00  0.00     0.069 C 
BRANCH  14  15
HETATM   15  C10 UNL     1      -3.309   6.206  19.909  1.00  0.00     0.103 C 
BRANCH  15  16
HETATM   16  C11 UNL     1      -3.114   7.653  19.825  1.00  0.00     0.030 A 
HETATM   17  C12 UNL     1      -1.891   8.310  19.690  1.00  0.00     0.114 A 
HETATM   18  N3  UNL     1      -2.147   9.625  19.641  1.00  0.00    -0.360 N 
HETATM   19  C13 UNL     1      -3.458   9.828  19.737  1.00  0.00     0.180 A 
ATOM     20  H3  UNL     1      -1.444  10.357  19.545  1.00  0.00     0.166 HD
HETATM   21  N4  UNL     1      -4.040   8.624  19.849  1.00  0.00    -0.354 N 
ATOM     22  H4  UNL     1      -5.045   8.470  19.939  1.00  0.00     0.166 HD
ENDBRANCH  15  16
ENDBRANCH  14  15
ENDBRANCH  12  14
ENDBRANCH  11  12
ENDBRANCH  10  11
ENDBRANCH   8   9
ENDBRANCH   4   8
BRANCH   7  23
HETATM   23  N5  UNL     1       1.679  -1.270  25.197  1.00  0.00    -0.209 N 
HETATM   24  C16 UNL     1       2.599  -1.763  24.245  1.00  0.00     0.670 C 
HETATM   25  N6  UNL     1       3.214  -2.895  24.485  1.00  0.00    -0.231 N 
HETATM   26  N7  UNL     1       2.905  -1.105  23.024  1.00  0.00    -0.220 N 
HETATM   27  C17 UNL     1       4.165  -3.493  23.599  1.00  0.00     0.165 C 
ATOM     28  H6  UNL     1       3.002  -3.380  25.356  1.00  0.00     0.177 HD
ATOM     29  H7  UNL     1       3.537  -0.305  22.988  1.00  0.00     0.178 HD
ATOM     30  H5  UNL     1       1.151  -1.928  25.771  1.00  0.00     0.179 HD
BRANCH  26  31
HETATM   31  C18 UNL     1       2.268  -1.633  21.827  1.00  0.00     0.127 C 
HETATM   32  C19 UNL     1       0.829  -1.187  21.798  1.00  0.00     0.055 C 
HETATM   33  C20 UNL     1       0.503  -1.285  20.323  1.00  0.00     0.238 C 
HETATM   34  N8  UNL     1       1.733  -1.207  19.596  1.00  0.00    -0.073 N 
HETATM   35  C21 UNL     1       1.674  -0.127  18.632  1.00  0.00     0.272 C 
HETATM   36  C22 UNL     1       1.911  -2.437  18.829  1.00  0.00     0.272 C 
HETATM   37  C23 UNL     1       2.805  -1.026  20.558  1.00  0.00     0.262 C 
ENDBRANCH  26  31
ENDBRANCH   7  23
TORSDOF 9
ENDMDL
