MODEL 1
REMARK VINA RESULT: -6.007529204      0.000      0.000
REMARK  14 active torsions:
REMARK  status: ('A' for Active; 'I' for Inactive)
REMARK    1  A    between atoms: C3_3  and  C4_4 
REMARK    2  A    between atoms: C4_4  and  C5_5 
REMARK    3  A    between atoms: C6_6  and  C7_7 
REMARK    4  A    between atoms: C7_7  and  N1_8 
REMARK    5  A    between atoms: N1_8  and  C8_10 
REMARK    6  A    between atoms: C8_10  and  O1_11 
REMARK    7  A    between atoms: C8_10  and  N2_13 
REMARK    8  A    between atoms: N3_16  and  C11_17 
REMARK    9  A    between atoms: C15_21  and  O2_22 
REMARK   10  A    between atoms: C15_21  and  C16_24 
REMARK   11  A    between atoms: C16_24  and  C17_25 
REMARK   12  A    between atoms: N4_27  and  N5_29 
REMARK   13  A    between atoms: N5_29  and  N6_31 
REMARK   14  A    between atoms: C19_34  and  N7_35 
ROOT
HETATM    1  C1  UNL     1      -4.037   9.922  20.144  1.00  0.00     0.112 C 
HETATM    2  C2  UNL     1      -3.022   8.953  19.728  1.00  0.00    -0.111 C 
HETATM    3  C3  UNL     1      -2.171   8.168  19.388  1.00  0.00    -0.103 C 
ENDROOT
BRANCH   3   4
HETATM    4  C4  UNL     1      -1.108   7.225  18.970  1.00  0.00     0.120 C 
BRANCH   4   5
HETATM    5  C5  UNL     1      -0.915   6.162  19.993  1.00  0.00    -0.017 C 
HETATM    6  C6  UNL     1      -1.494   4.972  19.949  1.00  0.00    -0.010 C 
BRANCH   6   7
HETATM    7  C7  UNL     1      -1.242   3.989  21.004  1.00  0.00     0.150 C 
BRANCH   7   8
HETATM    8  N1  UNL     1      -0.856   4.607  22.282  1.00  0.00    -0.353 N 
ATOM      9  H1  UNL     1      -0.696   5.614  22.305  1.00  0.00     0.163 HD
BRANCH   8  10
HETATM   10  C8  UNL     1      -0.698   3.884  23.459  1.00  0.00     0.215 C 
BRANCH  10  11
HETATM   11  O1  UNL     1       0.546   3.588  23.703  1.00  0.00    -0.333 OA
ATOM     12  H1  UNL     1       0.753   3.612  24.630  1.00  0.00     0.220 HD
ENDBRANCH  10  11
BRANCH  10  13
HETATM   13  N2  UNL     1      -1.632   3.454  24.365  1.00  0.00    -0.336 N 
HETATM   14  C9  UNL     1      -1.063   3.253  25.768  1.00  0.00     0.146 C 
HETATM   15  C10 UNL     1      -1.609   4.388  26.580  1.00  0.00     0.137 C 
HETATM   16  N3  UNL     1      -2.921   4.738  26.104  1.00  0.00    -0.403 N 
HETATM   17  C13 UNL     1      -3.665   3.641  25.667  1.00  0.00     0.140 C 
HETATM   18  C14 UNL     1      -3.005   3.133  24.345  1.00  0.00     0.155 C 
HETATM   19  C19 UNL     1      -4.902   3.892  24.831  1.00  0.00     0.255 C 
HETATM   20  C15 UNL     1      -4.062   3.903  23.656  1.00  0.00     0.150 C 
BRANCH  16  21
HETATM   21  C11 UNL     1      -3.533   5.745  26.923  1.00  0.00     0.113 C 
HETATM   22  C12 UNL     1      -2.826   6.043  28.208  1.00  0.00     0.026 C 
ENDBRANCH  16  21
BRANCH  20  23
HETATM   23  O2  UNL     1      -3.492   5.235  23.504  1.00  0.00    -0.379 OA
ATOM     24  H2  UNL     1      -3.720   5.486  22.617  1.00  0.00     0.211 HD
ENDBRANCH  20  23
BRANCH  20  25
HETATM   25  C16 UNL     1      -4.456   3.486  22.315  1.00  0.00     0.043 C 
HETATM   26  N4  UNL     1      -5.075   4.279  21.530  1.00  0.00    -0.292 N 
ATOM     27  H4  UNL     1      -5.295   3.870  20.622  1.00  0.00     0.188 HD
BRANCH  25  28
HETATM   28  C17 UNL     1      -4.209   2.138  21.750  1.00  0.00     0.053 C 
HETATM   29  C18 UNL     1      -5.448   1.755  20.918  1.00  0.00     0.011 C 
ENDBRANCH  25  28
BRANCH  26  30
HETATM   30  N5  UNL     1      -5.495   5.559  21.670  1.00  0.00    -0.249 N 
ATOM     31  H5  UNL     1      -6.412   5.766  22.068  1.00  0.00     0.207 HD
BRANCH  30  32
HETATM   32  N6  UNL     1      -4.715   6.507  21.292  1.00  0.00    -0.331 N 
ATOM     33  H62 UNL     1      -3.704   6.380  21.340  1.00  0.00     0.178 HD
ATOM     34  H61 UNL     1      -5.130   7.373  20.950  1.00  0.00     0.178 HD
ENDBRANCH  30  32
ENDBRANCH  26  30
ENDBRANCH  20  25
BRANCH  19  35
HETATM   35  N7  UNL     1      -6.041   3.107  25.086  1.00  0.00    -0.069 N 
HETATM   36  C20 UNL     1      -7.223   3.566  24.393  1.00  0.00     0.272 C 
HETATM   37  C21 UNL     1      -5.965   1.694  25.015  1.00  0.00     0.272 C 
HETATM   38  C22 UNL     1      -6.391   3.364  26.520  1.00  0.00     0.272 C 
ENDBRANCH  19  35
ENDBRANCH  10  13
ENDBRANCH   8  10
ENDBRANCH   7   8
ENDBRANCH   6   7
ENDBRANCH   4   5
ENDBRANCH   3   4
TORSDOF 14
ENDMDL
MODEL 2
REMARK VINA RESULT: -5.853571251      4.736      6.517
REMARK  14 active torsions:
REMARK  status: ('A' for Active; 'I' for Inactive)
REMARK    1  A    between atoms: C3_3  and  C4_4 
REMARK    2  A    between atoms: C4_4  and  C5_5 
REMARK    3  A    between atoms: C6_6  and  C7_7 
REMARK    4  A    between atoms: C7_7  and  N1_8 
REMARK    5  A    between atoms: N1_8  and  C8_10 
REMARK    6  A    between atoms: C8_10  and  O1_11 
REMARK    7  A    between atoms: C8_10  and  N2_13 
REMARK    8  A    between atoms: N3_16  and  C11_17 
REMARK    9  A    between atoms: C15_21  and  O2_22 
REMARK   10  A    between atoms: C15_21  and  C16_24 
REMARK   11  A    between atoms: C16_24  and  C17_25 
REMARK   12  A    between atoms: N4_27  and  N5_29 
REMARK   13  A    between atoms: N5_29  and  N6_31 
REMARK   14  A    between atoms: C19_34  and  N7_35 
ROOT
HETATM    1  C1  UNL     1      -1.057  -3.067  13.042  1.00  0.00     0.112 C 
HETATM    2  C2  UNL     1      -0.322  -3.317  14.284  1.00  0.00    -0.111 C 
HETATM    3  C3  UNL     1       0.283  -3.501  15.311  1.00  0.00    -0.103 C 
ENDROOT
BRANCH   3   4
HETATM    4  C4  UNL     1       1.031  -3.703  16.573  1.00  0.00     0.120 C 
BRANCH   4   5
HETATM    5  C5  UNL     1       1.158  -2.424  17.322  1.00  0.00    -0.017 C 
HETATM    6  C6  UNL     1       0.284  -1.431  17.253  1.00  0.00    -0.010 C 
BRANCH   6   7
HETATM    7  C7  UNL     1       0.494  -0.209  18.028  1.00  0.00     0.150 C 
BRANCH   7   8
HETATM    8  N1  UNL     1      -0.281  -0.182  19.278  1.00  0.00    -0.353 N 
ATOM      9  H1  UNL     1      -1.110  -0.773  19.348  1.00  0.00     0.163 HD
BRANCH   8  10
HETATM   10  C8  UNL     1       0.062   0.609  20.370  1.00  0.00     0.215 C 
BRANCH  10  11
HETATM   11  O1  UNL     1       1.153   1.290  20.172  1.00  0.00    -0.333 OA
ATOM     12  H1  UNL     1       1.690   1.355  20.953  1.00  0.00     0.220 HD
ENDBRANCH  10  11
BRANCH  10  13
HETATM   13  N2  UNL     1      -0.564   0.766  21.579  1.00  0.00    -0.336 N 
HETATM   14  C9  UNL     1      -0.236  -0.345  22.575  1.00  0.00     0.146 C 
HETATM   15  C10 UNL     1       0.669   0.289  23.587  1.00  0.00     0.137 C 
HETATM   16  N3  UNL     1       0.314   1.673  23.756  1.00  0.00    -0.403 N 
HETATM   17  C13 UNL     1      -1.057   1.913  23.653  1.00  0.00     0.140 C 
HETATM   18  C14 UNL     1      -1.453   1.694  22.158  1.00  0.00     0.155 C 
HETATM   19  C19 UNL     1      -1.532   3.337  23.463  1.00  0.00     0.255 C 
HETATM   20  C15 UNL     1      -1.366   3.165  22.039  1.00  0.00     0.150 C 
BRANCH  16  21
HETATM   21  C11 UNL     1       1.079   2.295  24.799  1.00  0.00     0.113 C 
HETATM   22  C12 UNL     1       0.908   1.699  26.162  1.00  0.00     0.026 C 
ENDBRANCH  16  21
BRANCH  20  23
HETATM   23  O2  UNL     1       0.030   3.413  21.701  1.00  0.00    -0.379 OA
ATOM     24  H2  UNL     1       0.114   4.358  21.739  1.00  0.00     0.211 HD
ENDBRANCH  20  23
BRANCH  20  25
HETATM   25  C16 UNL     1      -2.148   3.821  20.998  1.00  0.00     0.043 C 
HETATM   26  N4  UNL     1      -1.774   4.928  20.487  1.00  0.00    -0.292 N 
ATOM     27  H4  UNL     1      -2.406   5.284  19.770  1.00  0.00     0.188 HD
BRANCH  25  28
HETATM   28  C17 UNL     1      -3.427   3.301  20.458  1.00  0.00     0.053 C 
HETATM   29  C18 UNL     1      -4.401   4.491  20.359  1.00  0.00     0.011 C 
ENDBRANCH  25  28
BRANCH  26  30
HETATM   30  N5  UNL     1      -0.699   5.721  20.713  1.00  0.00    -0.249 N 
ATOM     31  H5  UNL     1      -0.433   5.980  21.664  1.00  0.00     0.207 HD
BRANCH  30  32
HETATM   32  N6  UNL     1      -0.022   6.141  19.705  1.00  0.00    -0.331 N 
ATOM     33  H62 UNL     1       0.909   5.764  19.528  1.00  0.00     0.178 HD
ATOM     34  H61 UNL     1      -0.437   6.849  19.100  1.00  0.00     0.178 HD
ENDBRANCH  30  32
ENDBRANCH  26  30
ENDBRANCH  20  25
BRANCH  19  35
HETATM   35  N7  UNL     1      -2.677   3.751  24.168  1.00  0.00    -0.069 N 
HETATM   36  C20 UNL     1      -3.044   5.124  23.912  1.00  0.00     0.272 C 
HETATM   37  C21 UNL     1      -3.839   2.940  24.180  1.00  0.00     0.272 C 
HETATM   38  C22 UNL     1      -2.267   3.791  25.609  1.00  0.00     0.272 C 
ENDBRANCH  19  35
ENDBRANCH  10  13
ENDBRANCH   8  10
ENDBRANCH   7   8
ENDBRANCH   6   7
ENDBRANCH   4   5
ENDBRANCH   3   4
TORSDOF 14
ENDMDL
MODEL 3
REMARK VINA RESULT: -5.824764402      2.315      5.562
REMARK  14 active torsions:
REMARK  status: ('A' for Active; 'I' for Inactive)
REMARK    1  A    between atoms: C3_3  and  C4_4 
REMARK    2  A    between atoms: C4_4  and  C5_5 
REMARK    3  A    between atoms: C6_6  and  C7_7 
REMARK    4  A    between atoms: C7_7  and  N1_8 
REMARK    5  A    between atoms: N1_8  and  C8_10 
REMARK    6  A    between atoms: C8_10  and  O1_11 
REMARK    7  A    between atoms: C8_10  and  N2_13 
REMARK    8  A    between atoms: N3_16  and  C11_17 
REMARK    9  A    between atoms: C15_21  and  O2_22 
REMARK   10  A    between atoms: C15_21  and  C16_24 
REMARK   11  A    between atoms: C16_24  and  C17_25 
REMARK   12  A    between atoms: N4_27  and  N5_29 
REMARK   13  A    between atoms: N5_29  and  N6_31 
REMARK   14  A    between atoms: C19_34  and  N7_35 
ROOT
HETATM    1  C1  UNL     1      -0.685   7.117  29.544  1.00  0.00     0.112 C 
HETATM    2  C2  UNL     1      -0.721   5.653  29.553  1.00  0.00    -0.111 C 
HETATM    3  C3  UNL     1      -0.765   4.448  29.544  1.00  0.00    -0.103 C 
ENDROOT
BRANCH   3   4
HETATM    4  C4  UNL     1      -0.839   2.969  29.518  1.00  0.00     0.120 C 
BRANCH   4   5
HETATM    5  C5  UNL     1       0.074   2.412  28.484  1.00  0.00    -0.017 C 
HETATM    6  C6  UNL     1      -0.182   2.415  27.184  1.00  0.00    -0.010 C 
BRANCH   6   7
HETATM    7  C7  UNL     1       0.780   1.844  26.242  1.00  0.00     0.150 C 
BRANCH   7   8
HETATM    8  N1  UNL     1       0.312   1.889  24.848  1.00  0.00    -0.353 N 
ATOM      9  H1  UNL     1       0.814   2.483  24.187  1.00  0.00     0.163 HD
BRANCH   8  10
HETATM   10  C8  UNL     1      -0.780   1.162  24.388  1.00  0.00     0.215 C 
BRANCH  10  11
HETATM   11  O1  UNL     1      -0.515  -0.104  24.245  1.00  0.00    -0.333 OA
ATOM     12  H1  UNL     1      -1.209  -0.576  23.800  1.00  0.00     0.220 HD
ENDBRANCH  10  11
BRANCH  10  13
HETATM   13  N2  UNL     1      -2.049   1.575  24.073  1.00  0.00    -0.336 N 
HETATM   14  C9  UNL     1      -3.076   1.240  25.153  1.00  0.00     0.146 C 
HETATM   15  C10 UNL     1      -3.407   2.551  25.800  1.00  0.00     0.137 C 
HETATM   16  N3  UNL     1      -3.329   3.606  24.825  1.00  0.00    -0.403 N 
HETATM   17  C13 UNL     1      -3.747   3.219  23.551  1.00  0.00     0.140 C 
HETATM   18  C14 UNL     1      -2.672   2.232  22.993  1.00  0.00     0.155 C 
HETATM   19  C19 UNL     1      -3.397   4.102  22.373  1.00  0.00     0.255 C 
HETATM   20  C15 UNL     1      -2.137   3.404  22.269  1.00  0.00     0.150 C 
BRANCH  16  21
HETATM   21  C11 UNL     1      -3.749   4.865  25.369  1.00  0.00     0.113 C 
HETATM   22  C12 UNL     1      -2.967   5.345  26.553  1.00  0.00     0.026 C 
ENDBRANCH  16  21
BRANCH  20  23
HETATM   23  O2  UNL     1      -1.195   4.002  23.206  1.00  0.00    -0.379 OA
ATOM     24  H2  UNL     1      -0.674   3.269  23.512  1.00  0.00     0.211 HD
ENDBRANCH  20  23
BRANCH  20  25
HETATM   25  C16 UNL     1      -1.383   3.172  21.043  1.00  0.00     0.043 C 
HETATM   26  N4  UNL     1      -0.701   4.103  20.499  1.00  0.00    -0.292 N 
ATOM     27  H4  UNL     1      -0.220   3.816  19.646  1.00  0.00     0.188 HD
BRANCH  25  28
HETATM   28  C17 UNL     1      -1.348   1.883  20.312  1.00  0.00     0.053 C 
HETATM   29  C18 UNL     1       0.026   1.239  20.582  1.00  0.00     0.011 C 
ENDBRANCH  25  28
BRANCH  26  30
HETATM   30  N5  UNL     1      -0.493   5.398  20.835  1.00  0.00    -0.249 N 
ATOM     31  H5  UNL     1      -0.488   5.689  21.814  1.00  0.00     0.207 HD
BRANCH  30  32
HETATM   32  N6  UNL     1      -0.302   6.254  19.897  1.00  0.00    -0.331 N 
ATOM     33  H62 UNL     1       0.067   5.945  18.997  1.00  0.00     0.178 HD
ATOM     34  H61 UNL     1      -0.527   7.233  20.075  1.00  0.00     0.178 HD
ENDBRANCH  30  32
ENDBRANCH  26  30
ENDBRANCH  20  25
BRANCH  19  35
HETATM   35  N7  UNL     1      -4.375   4.298  21.381  1.00  0.00    -0.069 N 
HETATM   36  C20 UNL     1      -4.104   5.428  20.522  1.00  0.00     0.272 C 
HETATM   37  C21 UNL     1      -4.831   3.205  20.603  1.00  0.00     0.272 C 
HETATM   38  C22 UNL     1      -5.605   4.740  22.113  1.00  0.00     0.272 C 
ENDBRANCH  19  35
ENDBRANCH  10  13
ENDBRANCH   8  10
ENDBRANCH   7   8
ENDBRANCH   6   7
ENDBRANCH   4   5
ENDBRANCH   3   4
TORSDOF 14
ENDMDL
MODEL 4
REMARK VINA RESULT: -5.682086423      2.106      6.614
REMARK  14 active torsions:
REMARK  status: ('A' for Active; 'I' for Inactive)
REMARK    1  A    between atoms: C3_3  and  C4_4 
REMARK    2  A    between atoms: C4_4  and  C5_5 
REMARK    3  A    between atoms: C6_6  and  C7_7 
REMARK    4  A    between atoms: C7_7  and  N1_8 
REMARK    5  A    between atoms: N1_8  and  C8_10 
REMARK    6  A    between atoms: C8_10  and  O1_11 
REMARK    7  A    between atoms: C8_10  and  N2_13 
REMARK    8  A    between atoms: N3_16  and  C11_17 
REMARK    9  A    between atoms: C15_21  and  O2_22 
REMARK   10  A    between atoms: C15_21  and  C16_24 
REMARK   11  A    between atoms: C16_24  and  C17_25 
REMARK   12  A    between atoms: N4_27  and  N5_29 
REMARK   13  A    between atoms: N5_29  and  N6_31 
REMARK   14  A    between atoms: C19_34  and  N7_35 
ROOT
HETATM    1  C1  UNL     1      -1.157   7.666  30.016  1.00  0.00     0.112 C 
HETATM    2  C2  UNL     1      -1.335   6.527  29.112  1.00  0.00    -0.111 C 
HETATM    3  C3  UNL     1      -1.471   5.576  28.383  1.00  0.00    -0.103 C 
ENDROOT
BRANCH   3   4
HETATM    4  C4  UNL     1      -1.621   4.396  27.501  1.00  0.00     0.120 C 
BRANCH   4   5
HETATM    5  C5  UNL     1      -2.757   4.582  26.558  1.00  0.00    -0.017 C 
HETATM    6  C6  UNL     1      -3.876   3.874  26.592  1.00  0.00    -0.010 C 
BRANCH   6   7
HETATM    7  C7  UNL     1      -4.940   4.131  25.622  1.00  0.00     0.150 C 
BRANCH   7   8
HETATM    8  N1  UNL     1      -4.466   4.845  24.426  1.00  0.00    -0.353 N 
ATOM      9  H1  UNL     1      -3.731   5.544  24.538  1.00  0.00     0.163 HD
BRANCH   8  10
HETATM   10  C8  UNL     1      -4.971   4.613  23.151  1.00  0.00     0.215 C 
BRANCH  10  11
HETATM   11  O1  UNL     1      -6.128   5.176  22.961  1.00  0.00    -0.333 OA
ATOM     12  H1  UNL     1      -6.854   4.582  23.116  1.00  0.00     0.220 HD
ENDBRANCH  10  11
BRANCH  10  13
HETATM   13  N2  UNL     1      -4.441   3.901  22.106  1.00  0.00    -0.336 N 
HETATM   14  C9  UNL     1      -5.018   4.304  20.750  1.00  0.00     0.146 C 
HETATM   15  C10 UNL     1      -3.920   5.060  20.066  1.00  0.00     0.137 C 
HETATM   16  N3  UNL     1      -2.643   4.526  20.461  1.00  0.00    -0.403 N 
HETATM   17  C13 UNL     1      -2.655   3.144  20.658  1.00  0.00     0.140 C 
HETATM   18  C14 UNL     1      -3.493   2.869  21.948  1.00  0.00     0.155 C 
HETATM   19  C19 UNL     1      -1.499   2.508  21.399  1.00  0.00     0.255 C 
HETATM   20  C15 UNL     1      -2.189   2.780  22.638  1.00  0.00     0.150 C 
BRANCH  16  21
HETATM   21  C11 UNL     1      -1.564   5.143  19.744  1.00  0.00     0.113 C 
HETATM   22  C12 UNL     1      -1.304   6.577  20.086  1.00  0.00     0.026 C 
ENDBRANCH  16  21
BRANCH  20  23
HETATM   23  O2  UNL     1      -1.903   4.152  23.038  1.00  0.00    -0.379 OA
ATOM     24  H2  UNL     1      -1.576   4.561  22.246  1.00  0.00     0.211 HD
ENDBRANCH  20  23
BRANCH  20  25
HETATM   25  C16 UNL     1      -2.108   1.986  23.858  1.00  0.00     0.043 C 
HETATM   26  N4  UNL     1      -1.108   2.080  24.644  1.00  0.00    -0.292 N 
ATOM     27  H4  UNL     1      -1.168   1.474  25.462  1.00  0.00     0.188 HD
BRANCH  25  28
HETATM   28  C17 UNL     1      -3.132   1.004  24.289  1.00  0.00     0.053 C 
HETATM   29  C18 UNL     1      -2.703   0.470  25.669  1.00  0.00     0.011 C 
ENDBRANCH  25  28
BRANCH  26  30
HETATM   30  N5  UNL     1       0.019   2.830  24.601  1.00  0.00    -0.249 N 
ATOM     31  H5  UNL     1       0.017   3.750  24.158  1.00  0.00     0.207 HD
BRANCH  30  32
HETATM   32  N6  UNL     1       1.091   2.360  25.130  1.00  0.00    -0.331 N 
ATOM     33  H62 UNL     1       1.591   1.599  24.670  1.00  0.00     0.178 HD
ATOM     34  H61 UNL     1       1.421   2.763  26.007  1.00  0.00     0.178 HD
ENDBRANCH  30  32
ENDBRANCH  26  30
ENDBRANCH  20  25
BRANCH  19  35
HETATM   35  N7  UNL     1      -1.005   1.280  20.922  1.00  0.00    -0.069 N 
HETATM   36  C20 UNL     1       0.252   0.895  21.520  1.00  0.00     0.272 C 
HETATM   37  C21 UNL     1      -1.859   0.152  20.838  1.00  0.00     0.272 C 
HETATM   38  C22 UNL     1      -0.619   1.530  19.497  1.00  0.00     0.272 C 
ENDBRANCH  19  35
ENDBRANCH  10  13
ENDBRANCH   8  10
ENDBRANCH   7   8
ENDBRANCH   6   7
ENDBRANCH   4   5
ENDBRANCH   3   4
TORSDOF 14
ENDMDL
MODEL 5
REMARK VINA RESULT: -5.662057186      3.091      6.598
REMARK  14 active torsions:
REMARK  status: ('A' for Active; 'I' for Inactive)
REMARK    1  A    between atoms: C3_3  and  C4_4 
REMARK    2  A    between atoms: C4_4  and  C5_5 
REMARK    3  A    between atoms: C6_6  and  C7_7 
REMARK    4  A    between atoms: C7_7  and  N1_8 
REMARK    5  A    between atoms: N1_8  and  C8_10 
REMARK    6  A    between atoms: C8_10  and  O1_11 
REMARK    7  A    between atoms: C8_10  and  N2_13 
REMARK    8  A    between atoms: N3_16  and  C11_17 
REMARK    9  A    between atoms: C15_21  and  O2_22 
REMARK   10  A    between atoms: C15_21  and  C16_24 
REMARK   11  A    between atoms: C16_24  and  C17_25 
REMARK   12  A    between atoms: N4_27  and  N5_29 
REMARK   13  A    between atoms: N5_29  and  N6_31 
REMARK   14  A    between atoms: C19_34  and  N7_35 
ROOT
HETATM    1  C1  UNL     1      -1.154   8.845  31.390  1.00  0.00     0.112 C 
HETATM    2  C2  UNL     1      -1.120   7.718  30.454  1.00  0.00    -0.111 C 
HETATM    3  C3  UNL     1      -1.109   6.783  29.694  1.00  0.00    -0.103 C 
ENDROOT
BRANCH   3   4
HETATM    4  C4  UNL     1      -1.112   5.621  28.775  1.00  0.00     0.120 C 
BRANCH   4   5
HETATM    5  C5  UNL     1      -2.130   5.797  27.704  1.00  0.00    -0.017 C 
HETATM    6  C6  UNL     1      -3.437   5.716  27.899  1.00  0.00    -0.010 C 
BRANCH   6   7
HETATM    7  C7  UNL     1      -4.363   5.905  26.782  1.00  0.00     0.150 C 
BRANCH   7   8
HETATM    8  N1  UNL     1      -3.896   5.273  25.539  1.00  0.00    -0.353 N 
ATOM      9  H1  UNL     1      -2.971   5.519  25.187  1.00  0.00     0.163 HD
BRANCH   8  10
HETATM   10  C8  UNL     1      -4.656   4.357  24.819  1.00  0.00     0.215 C 
BRANCH  10  11
HETATM   11  O1  UNL     1      -5.845   4.804  24.537  1.00  0.00    -0.333 OA
ATOM     12  H1  UNL     1      -6.282   5.182  25.292  1.00  0.00     0.220 HD
ENDBRANCH  10  11
BRANCH  10  13
HETATM   13  N2  UNL     1      -4.341   3.097  24.381  1.00  0.00    -0.336 N 
HETATM   14  C9  UNL     1      -5.508   2.116  24.478  1.00  0.00     0.146 C 
HETATM   15  C10 UNL     1      -5.954   1.895  23.065  1.00  0.00     0.137 C 
HETATM   16  N3  UNL     1      -4.821   1.974  22.181  1.00  0.00    -0.403 N 
HETATM   17  C13 UNL     1      -3.646   1.464  22.734  1.00  0.00     0.140 C 
HETATM   18  C14 UNL     1      -3.201   2.450  23.862  1.00  0.00     0.155 C 
HETATM   19  C19 UNL     1      -2.328   1.794  22.068  1.00  0.00     0.255 C 
HETATM   20  C15 UNL     1      -2.276   3.006  22.852  1.00  0.00     0.150 C 
BRANCH  16  21
HETATM   21  C11 UNL     1      -5.179   1.656  20.828  1.00  0.00     0.113 C 
HETATM   22  C12 UNL     1      -6.023   2.677  20.130  1.00  0.00     0.026 C 
ENDBRANCH  16  21
BRANCH  20  23
HETATM   23  O2  UNL     1      -3.060   4.031  22.176  1.00  0.00    -0.379 OA
ATOM     24  H2  UNL     1      -2.593   4.182  21.363  1.00  0.00     0.211 HD
ENDBRANCH  20  23
BRANCH  20  25
HETATM   25  C16 UNL     1      -1.067   3.676  23.319  1.00  0.00     0.043 C 
HETATM   26  N4  UNL     1      -0.347   4.368  22.527  1.00  0.00    -0.292 N 
ATOM     27  H4  UNL     1       0.471   4.785  22.973  1.00  0.00     0.188 HD
BRANCH  25  28
HETATM   28  C17 UNL     1      -0.554   3.606  24.708  1.00  0.00     0.053 C 
HETATM   29  C18 UNL     1       0.783   2.841  24.665  1.00  0.00     0.011 C 
ENDBRANCH  25  28
BRANCH  26  30
HETATM   30  N5  UNL     1      -0.458   4.657  21.208  1.00  0.00    -0.249 N 
ATOM     31  H5  UNL     1      -0.093   4.017  20.501  1.00  0.00     0.207 HD
BRANCH  30  32
HETATM   32  N6  UNL     1      -1.032   5.754  20.866  1.00  0.00    -0.331 N 
ATOM     33  H62 UNL     1      -0.523   6.636  20.937  1.00  0.00     0.178 HD
ATOM     34  H61 UNL     1      -1.993   5.718  20.527  1.00  0.00     0.178 HD
ENDBRANCH  30  32
ENDBRANCH  26  30
ENDBRANCH  20  25
BRANCH  19  35
HETATM   35  N7  UNL     1      -1.365   0.773  21.968  1.00  0.00    -0.069 N 
HETATM   36  C20 UNL     1      -0.198   1.157  21.207  1.00  0.00     0.272 C 
HETATM   37  C21 UNL     1      -0.968   0.052  23.121  1.00  0.00     0.272 C 
HETATM   38  C22 UNL     1      -1.985  -0.277  21.097  1.00  0.00     0.272 C 
ENDBRANCH  19  35
ENDBRANCH  10  13
ENDBRANCH   8  10
ENDBRANCH   7   8
ENDBRANCH   6   7
ENDBRANCH   4   5
ENDBRANCH   3   4
TORSDOF 14
ENDMDL
