MODEL 1
REMARK VINA RESULT: -7.687432112      0.000      0.000
REMARK  14 active torsions:
REMARK  status: ('A' for Active; 'I' for Inactive)
REMARK    1  A    between atoms: C4_10  and  C5_11 
REMARK    2  A    between atoms: C5_11  and  C6_12 
REMARK    3  A    between atoms: C6_12  and  C7_13 
REMARK    4  A    between atoms: C7_13  and  N3_14 
REMARK    5  A    between atoms: N3_14  and  C8_15 
REMARK       I    between atoms: N3_14  and  C20_35 
REMARK    6  A    between atoms: C8_15  and  C9_16 
REMARK    7  A    between atoms: C9_16  and  C10_17 
REMARK    8  A    between atoms: C10_17  and  C11_18 
REMARK    9  A    between atoms: C11_18  and  N4_19 
REMARK       I    between atoms: N4_19  and  C12_21 
REMARK       I    between atoms: C12_21  and  N7_26 
REMARK   10  A    between atoms: N7_26  and  C14_28 
REMARK   11  A    between atoms: C14_28  and  C15_29 
REMARK   12  A    between atoms: C15_29  and  N8_30 
REMARK   13  A    between atoms: C20_35  and  C21_37 
REMARK   14  A    between atoms: C21_37  and  C22_38 
ROOT
HETATM    1  N4  UNL     1      23.831   8.438  20.820  1.00  0.00    -0.226 N 
ATOM      2  H4  UNL     1      24.591   9.089  21.016  1.00  0.00     0.177 HD
HETATM    3  C12 UNL     1      22.486   8.879  20.989  1.00  0.00     0.682 C 
HETATM    4  N5  UNL     1      21.631   8.039  21.445  1.00  0.00    -0.126 N 
ATOM      5  H5  UNL     1      21.919   7.089  21.676  1.00  0.00     0.197 HD
HETATM    6  C13 UNL     1      20.306   8.432  21.622  1.00  0.00     0.196 C 
HETATM    7  N6  UNL     1      19.221   8.750  21.768  1.00  0.00    -0.171 NA
HETATM    8  N7  UNL     1      22.071  10.191  20.673  1.00  0.00    -0.224 N 
ATOM      9  H7  UNL     1      21.150  10.306  20.249  1.00  0.00     0.177 HD
ENDROOT
BRANCH   1  10
HETATM   10  C11 UNL     1      24.151   7.098  20.380  1.00  0.00     0.138 C 
BRANCH  10  11
HETATM   11  C10 UNL     1      25.005   7.107  19.136  1.00  0.00     0.022 C 
BRANCH  11  12
HETATM   12  C9  UNL     1      24.287   6.363  18.029  1.00  0.00     0.021 C 
BRANCH  12  13
HETATM   13  C8  UNL     1      23.027   5.760  18.602  1.00  0.00     0.126 C 
BRANCH  13  14
HETATM   14  N3  UNL     1      22.433   4.778  17.679  1.00  0.00    -0.352 N 
HETATM   15  C20 UNL     1      21.080   4.902  17.342  1.00  0.00     0.225 C 
HETATM   16  O1  UNL     1      20.500   4.173  16.506  1.00  0.00    -0.273 OA
BRANCH  14  17
HETATM   17  C7  UNL     1      23.316   3.771  17.194  1.00  0.00     0.126 C 
BRANCH  17  18
HETATM   18  C6  UNL     1      23.713   2.700  18.123  1.00  0.00     0.025 C 
BRANCH  18  19
HETATM   19  C5  UNL     1      22.776   1.864  18.855  1.00  0.00     0.050 C 
BRANCH  19  20
HETATM   20  C4  UNL     1      21.639   1.263  18.068  1.00  0.00     0.008 A 
HETATM   21  C2  UNL     1      20.301   1.331  18.417  1.00  0.00     0.020 A 
HETATM   22  C1  UNL     1      19.884   2.025  19.707  1.00  0.00     0.069 C 
HETATM   23  N1  UNL     1      19.434   0.794  17.604  1.00  0.00    -0.340 N 
HETATM   24  C3  UNL     1      19.883   0.211  16.491  1.00  0.00     0.142 A 
ATOM     25  H1  UNL     1      18.437   0.817  17.815  1.00  0.00     0.168 HD
HETATM   26  N2  UNL     1      19.153  -0.375  15.564  1.00  0.00    -0.380 N 
HETATM   27  S1  UNL     1      21.564   0.428  16.591  1.00  0.00    -0.057 SA
ATOM     28  H22 UNL     1      18.143  -0.505  15.504  1.00  0.00     0.158 HD
ATOM     29  H21 UNL     1      19.496  -0.820  14.713  1.00  0.00     0.158 HD
ENDBRANCH  19  20
ENDBRANCH  18  19
ENDBRANCH  17  18
ENDBRANCH  14  17
BRANCH  15  30
HETATM   30  C21 UNL     1      20.199   5.942  17.974  1.00  0.00     0.161 C 
BRANCH  30  31
HETATM   31  C22 UNL     1      18.949   5.376  18.484  1.00  0.00     0.034 A 
HETATM   32  C23 UNL     1      18.429   5.531  19.746  1.00  0.00     0.114 A 
HETATM   33  N9  UNL     1      17.266   4.862  19.827  1.00  0.00    -0.360 N 
HETATM   34  C24 UNL     1      17.042   4.284  18.631  1.00  0.00     0.180 A 
ATOM     35  H9  UNL     1      16.662   4.803  20.646  1.00  0.00     0.166 HD
HETATM   36  N10 UNL     1      18.057   4.594  17.822  1.00  0.00    -0.354 N 
ATOM     37  H10 UNL     1      18.149   4.290  16.852  1.00  0.00     0.166 HD
ENDBRANCH  30  31
ENDBRANCH  15  30
ENDBRANCH  13  14
ENDBRANCH  12  13
ENDBRANCH  11  12
ENDBRANCH  10  11
ENDBRANCH   1  10
BRANCH   8  38
HETATM   38  C14 UNL     1      22.853  11.384  20.904  1.00  0.00     0.168 C 
BRANCH  38  39
HETATM   39  C15 UNL     1      22.744  11.862  22.334  1.00  0.00     0.292 C 
BRANCH  39  40
HETATM   40  N8  UNL     1      23.687  12.876  22.667  1.00  0.00     0.090 N 
HETATM   41  C16 UNL     1      23.194  13.633  23.788  1.00  0.00     0.272 C 
HETATM   42  C17 UNL     1      23.848  13.036  25.011  1.00  0.00     0.032 C 
HETATM   43  C18 UNL     1      25.008  12.201  24.532  1.00  0.00     0.032 C 
HETATM   44  C19 UNL     1      24.981  12.452  23.060  1.00  0.00     0.272 C 
ENDBRANCH  39  40
ENDBRANCH  38  39
ENDBRANCH   8  38
TORSDOF 14
ENDMDL
MODEL 2
REMARK VINA RESULT: -7.644225980      2.739      8.838
REMARK  14 active torsions:
REMARK  status: ('A' for Active; 'I' for Inactive)
REMARK    1  A    between atoms: C4_10  and  C5_11 
REMARK    2  A    between atoms: C5_11  and  C6_12 
REMARK    3  A    between atoms: C6_12  and  C7_13 
REMARK    4  A    between atoms: C7_13  and  N3_14 
REMARK    5  A    between atoms: N3_14  and  C8_15 
REMARK       I    between atoms: N3_14  and  C20_35 
REMARK    6  A    between atoms: C8_15  and  C9_16 
REMARK    7  A    between atoms: C9_16  and  C10_17 
REMARK    8  A    between atoms: C10_17  and  C11_18 
REMARK    9  A    between atoms: C11_18  and  N4_19 
REMARK       I    between atoms: N4_19  and  C12_21 
REMARK       I    between atoms: C12_21  and  N7_26 
REMARK   10  A    between atoms: N7_26  and  C14_28 
REMARK   11  A    between atoms: C14_28  and  C15_29 
REMARK   12  A    between atoms: C15_29  and  N8_30 
REMARK   13  A    between atoms: C20_35  and  C21_37 
REMARK   14  A    between atoms: C21_37  and  C22_38 
ROOT
HETATM    1  N4  UNL     1      18.861   6.350  20.524  1.00  0.00    -0.226 N 
ATOM      2  H4  UNL     1      18.898   5.574  21.186  1.00  0.00     0.177 HD
HETATM    3  C12 UNL     1      19.345   6.148  19.198  1.00  0.00     0.682 C 
HETATM    4  N5  UNL     1      19.959   7.119  18.628  1.00  0.00    -0.126 N 
ATOM      5  H5  UNL     1      20.090   8.002  19.121  1.00  0.00     0.197 HD
HETATM    6  C13 UNL     1      20.445   6.961  17.333  1.00  0.00     0.196 C 
HETATM    7  N6  UNL     1      20.843   6.836  16.272  1.00  0.00    -0.171 NA
HETATM    8  N7  UNL     1      19.170   4.932  18.503  1.00  0.00    -0.224 N 
ATOM      9  H7  UNL     1      18.971   4.985  17.504  1.00  0.00     0.177 HD
ENDROOT
BRANCH   1  10
HETATM   10  C11 UNL     1      18.321   7.618  20.961  1.00  0.00     0.138 C 
BRANCH  10  11
HETATM   11  C10 UNL     1      17.973   7.602  22.429  1.00  0.00     0.022 C 
BRANCH  11  12
HETATM   12  C9  UNL     1      19.149   8.118  23.230  1.00  0.00     0.021 C 
BRANCH  12  13
HETATM   13  C8  UNL     1      19.806   9.230  22.447  1.00  0.00     0.126 C 
BRANCH  13  14
HETATM   14  N3  UNL     1      21.241   9.336  22.763  1.00  0.00    -0.352 N 
HETATM   15  C20 UNL     1      21.695  10.452  23.474  1.00  0.00     0.225 C 
HETATM   16  O1  UNL     1      22.876  10.598  23.862  1.00  0.00    -0.273 OA
BRANCH  14  17
HETATM   17  C7  UNL     1      22.055   8.258  22.310  1.00  0.00     0.126 C 
BRANCH  17  18
HETATM   18  C6  UNL     1      22.493   8.271  20.904  1.00  0.00     0.025 C 
BRANCH  18  19
HETATM   19  C5  UNL     1      23.799   7.821  20.450  1.00  0.00     0.050 C 
BRANCH  19  20
HETATM   20  C4  UNL     1      23.841   7.036  19.164  1.00  0.00     0.008 A 
HETATM   21  C2  UNL     1      24.127   7.561  17.915  1.00  0.00     0.020 A 
HETATM   22  C1  UNL     1      24.394   9.052  17.759  1.00  0.00     0.069 C 
HETATM   23  N1  UNL     1      24.164   6.738  16.905  1.00  0.00    -0.340 N 
HETATM   24  C3  UNL     1      23.925   5.445  17.129  1.00  0.00     0.142 A 
ATOM     25  H1  UNL     1      24.371   7.075  15.965  1.00  0.00     0.168 HD
HETATM   26  N2  UNL     1      23.924   4.480  16.232  1.00  0.00    -0.380 N 
HETATM   27  S1  UNL     1      23.643   5.388  18.803  1.00  0.00    -0.057 SA
ATOM     28  H22 UNL     1      24.093   4.515  15.227  1.00  0.00     0.158 HD
ATOM     29  H21 UNL     1      23.742   3.492  16.403  1.00  0.00     0.158 HD
ENDBRANCH  19  20
ENDBRANCH  18  19
ENDBRANCH  17  18
ENDBRANCH  14  17
BRANCH  15  30
HETATM   30  C21 UNL     1      20.779  11.588  23.832  1.00  0.00     0.161 C 
BRANCH  30  31
HETATM   31  C22 UNL     1      21.514  12.786  24.241  1.00  0.00     0.034 A 
HETATM   32  C23 UNL     1      21.377  13.473  25.422  1.00  0.00     0.114 A 
HETATM   33  N9  UNL     1      22.227  14.514  25.426  1.00  0.00    -0.360 N 
HETATM   34  C24 UNL     1      22.901  14.497  24.260  1.00  0.00     0.180 A 
ATOM     35  H9  UNL     1      22.341  15.195  26.177  1.00  0.00     0.166 HD
HETATM   36  N10 UNL     1      22.471  13.455  23.546  1.00  0.00    -0.354 N 
ATOM     37  H10 UNL     1      22.810  13.199  22.618  1.00  0.00     0.166 HD
ENDBRANCH  30  31
ENDBRANCH  15  30
ENDBRANCH  13  14
ENDBRANCH  12  13
ENDBRANCH  11  12
ENDBRANCH  10  11
ENDBRANCH   1  10
BRANCH   8  38
HETATM   38  C14 UNL     1      19.252   3.618  19.100  1.00  0.00     0.168 C 
BRANCH  38  39
HETATM   39  C15 UNL     1      19.928   2.624  18.184  1.00  0.00     0.292 C 
BRANCH  39  40
HETATM   40  N8  UNL     1      20.675   1.630  18.878  1.00  0.00     0.090 N 
HETATM   41  C16 UNL     1      20.825   0.473  18.035  1.00  0.00     0.272 C 
HETATM   42  C17 UNL     1      22.179   0.611  17.379  1.00  0.00     0.032 C 
HETATM   43  C18 UNL     1      22.947   1.646  18.160  1.00  0.00     0.032 C 
HETATM   44  C19 UNL     1      21.996   1.967  19.266  1.00  0.00     0.272 C 
ENDBRANCH  39  40
ENDBRANCH  38  39
ENDBRANCH   8  38
TORSDOF 14
ENDMDL
MODEL 3
REMARK VINA RESULT: -7.581007897      3.960      7.508
REMARK  14 active torsions:
REMARK  status: ('A' for Active; 'I' for Inactive)
REMARK    1  A    between atoms: C4_10  and  C5_11 
REMARK    2  A    between atoms: C5_11  and  C6_12 
REMARK    3  A    between atoms: C6_12  and  C7_13 
REMARK    4  A    between atoms: C7_13  and  N3_14 
REMARK    5  A    between atoms: N3_14  and  C8_15 
REMARK       I    between atoms: N3_14  and  C20_35 
REMARK    6  A    between atoms: C8_15  and  C9_16 
REMARK    7  A    between atoms: C9_16  and  C10_17 
REMARK    8  A    between atoms: C10_17  and  C11_18 
REMARK    9  A    between atoms: C11_18  and  N4_19 
REMARK       I    between atoms: N4_19  and  C12_21 
REMARK       I    between atoms: C12_21  and  N7_26 
REMARK   10  A    between atoms: N7_26  and  C14_28 
REMARK   11  A    between atoms: C14_28  and  C15_29 
REMARK   12  A    between atoms: C15_29  and  N8_30 
REMARK   13  A    between atoms: C20_35  and  C21_37 
REMARK   14  A    between atoms: C21_37  and  C22_38 
ROOT
HETATM    1  N4  UNL     1      20.804   9.109  23.290  1.00  0.00    -0.226 N 
ATOM      2  H4  UNL     1      20.991   8.109  23.362  1.00  0.00     0.177 HD
HETATM    3  C12 UNL     1      21.744   9.939  22.612  1.00  0.00     0.682 C 
HETATM    4  N5  UNL     1      21.948  11.118  23.073  1.00  0.00    -0.126 N 
ATOM      5  H5  UNL     1      21.445  11.438  23.901  1.00  0.00     0.197 HD
HETATM    6  C13 UNL     1      22.858  11.959  22.438  1.00  0.00     0.196 C 
HETATM    7  N6  UNL     1      23.602  12.651  21.921  1.00  0.00    -0.171 NA
HETATM    8  N7  UNL     1      22.447   9.511  21.465  1.00  0.00    -0.224 N 
ATOM      9  H7  UNL     1      22.605  10.196  20.725  1.00  0.00     0.177 HD
ENDROOT
BRANCH   1  10
HETATM   10  C11 UNL     1      19.594   9.640  23.877  1.00  0.00     0.138 C 
BRANCH  10  11
HETATM   11  C10 UNL     1      18.372   9.267  23.074  1.00  0.00     0.022 C 
BRANCH  11  12
HETATM   12  C9  UNL     1      18.599   7.926  22.408  1.00  0.00     0.021 C 
BRANCH  12  13
HETATM   13  C8  UNL     1      18.584   8.131  20.911  1.00  0.00     0.126 C 
BRANCH  13  14
HETATM   14  N3  UNL     1      17.475   7.397  20.279  1.00  0.00    -0.352 N 
HETATM   15  C20 UNL     1      17.761   6.235  19.555  1.00  0.00     0.225 C 
HETATM   16  O1  UNL     1      16.887   5.496  19.049  1.00  0.00    -0.273 OA
BRANCH  14  17
HETATM   17  C7  UNL     1      16.176   7.950  20.475  1.00  0.00     0.126 C 
BRANCH  17  18
HETATM   18  C6  UNL     1      15.138   7.077  21.049  1.00  0.00     0.025 C 
BRANCH  18  19
HETATM   19  C5  UNL     1      15.346   6.202  22.191  1.00  0.00     0.050 C 
BRANCH  19  20
HETATM   20  C4  UNL     1      14.953   6.741  23.544  1.00  0.00     0.008 A 
HETATM   21  C2  UNL     1      13.657   6.831  24.023  1.00  0.00     0.020 A 
HETATM   22  C1  UNL     1      12.489   6.400  23.147  1.00  0.00     0.069 C 
HETATM   23  N1  UNL     1      13.490   7.284  25.235  1.00  0.00    -0.340 N 
HETATM   24  C3  UNL     1      14.568   7.633  25.938  1.00  0.00     0.142 A 
ATOM     25  H1  UNL     1      12.555   7.369  25.635  1.00  0.00     0.168 HD
HETATM   26  N2  UNL     1      14.583   8.104  27.168  1.00  0.00    -0.380 N 
HETATM   27  S1  UNL     1      15.848   7.314  24.868  1.00  0.00    -0.057 SA
ATOM     28  H22 UNL     1      13.814   8.295  27.810  1.00  0.00     0.158 HD
ATOM     29  H21 UNL     1      15.407   8.370  27.706  1.00  0.00     0.158 HD
ENDBRANCH  19  20
ENDBRANCH  18  19
ENDBRANCH  17  18
ENDBRANCH  14  17
BRANCH  15  30
HETATM   30  C21 UNL     1      19.172   5.776  19.321  1.00  0.00     0.161 C 
BRANCH  30  31
HETATM   31  C22 UNL     1      19.646   6.100  17.974  1.00  0.00     0.034 A 
HETATM   32  C23 UNL     1      19.928   5.212  16.964  1.00  0.00     0.114 A 
HETATM   33  N9  UNL     1      20.334   5.895  15.880  1.00  0.00    -0.360 N 
HETATM   34  C24 UNL     1      20.314   7.206  16.191  1.00  0.00     0.180 A 
ATOM     35  H9  UNL     1      20.609   5.493  14.984  1.00  0.00     0.166 HD
HETATM   36  N10 UNL     1      19.899   7.328  17.453  1.00  0.00    -0.354 N 
ATOM     37  H10 UNL     1      19.789   8.212  17.952  1.00  0.00     0.166 HD
ENDBRANCH  30  31
ENDBRANCH  15  30
ENDBRANCH  13  14
ENDBRANCH  12  13
ENDBRANCH  11  12
ENDBRANCH  10  11
ENDBRANCH   1  10
BRANCH   8  38
HETATM   38  C14 UNL     1      22.960   8.175  21.259  1.00  0.00     0.168 C 
BRANCH  38  39
HETATM   39  C15 UNL     1      22.480   7.581  19.955  1.00  0.00     0.292 C 
BRANCH  39  40
HETATM   40  N8  UNL     1      23.285   6.502  19.493  1.00  0.00     0.090 N 
HETATM   41  C16 UNL     1      23.427   6.592  18.063  1.00  0.00     0.272 C 
HETATM   42  C17 UNL     1      24.744   7.290  17.821  1.00  0.00     0.032 C 
HETATM   43  C18 UNL     1      25.520   7.236  19.111  1.00  0.00     0.032 C 
HETATM   44  C19 UNL     1      24.614   6.430  19.983  1.00  0.00     0.272 C 
ENDBRANCH  39  40
ENDBRANCH  38  39
ENDBRANCH   8  38
TORSDOF 14
ENDMDL
MODEL 4
REMARK VINA RESULT: -7.545021105      3.436      9.847
REMARK  14 active torsions:
REMARK  status: ('A' for Active; 'I' for Inactive)
REMARK    1  A    between atoms: C4_10  and  C5_11 
REMARK    2  A    between atoms: C5_11  and  C6_12 
REMARK    3  A    between atoms: C6_12  and  C7_13 
REMARK    4  A    between atoms: C7_13  and  N3_14 
REMARK    5  A    between atoms: N3_14  and  C8_15 
REMARK       I    between atoms: N3_14  and  C20_35 
REMARK    6  A    between atoms: C8_15  and  C9_16 
REMARK    7  A    between atoms: C9_16  and  C10_17 
REMARK    8  A    between atoms: C10_17  and  C11_18 
REMARK    9  A    between atoms: C11_18  and  N4_19 
REMARK       I    between atoms: N4_19  and  C12_21 
REMARK       I    between atoms: C12_21  and  N7_26 
REMARK   10  A    between atoms: N7_26  and  C14_28 
REMARK   11  A    between atoms: C14_28  and  C15_29 
REMARK   12  A    between atoms: C15_29  and  N8_30 
REMARK   13  A    between atoms: C20_35  and  C21_37 
REMARK   14  A    between atoms: C21_37  and  C22_38 
ROOT
HETATM    1  N4  UNL     1      24.357   6.176  18.240  1.00  0.00    -0.226 N 
ATOM      2  H4  UNL     1      25.135   5.536  18.085  1.00  0.00     0.177 HD
HETATM    3  C12 UNL     1      23.078   5.639  18.570  1.00  0.00     0.682 C 
HETATM    4  N5  UNL     1      22.040   6.222  18.093  1.00  0.00    -0.126 N 
ATOM      5  H5  UNL     1      22.142   7.044  17.497  1.00  0.00     0.197 HD
HETATM    6  C13 UNL     1      20.773   5.727  18.394  1.00  0.00     0.196 C 
HETATM    7  N6  UNL     1      19.734   5.326  18.638  1.00  0.00    -0.171 NA
HETATM    8  N7  UNL     1      22.921   4.504  19.394  1.00  0.00    -0.224 N 
ATOM      9  H7  UNL     1      22.138   4.501  20.049  1.00  0.00     0.177 HD
ENDROOT
BRANCH   1  10
HETATM   10  C11 UNL     1      24.585   7.599  18.119  1.00  0.00     0.138 C 
BRANCH  10  11
HETATM   11  C10 UNL     1      25.020   8.210  19.428  1.00  0.00     0.022 C 
BRANCH  11  12
HETATM   12  C9  UNL     1      24.124   9.385  19.757  1.00  0.00     0.021 C 
BRANCH  12  13
HETATM   13  C8  UNL     1      23.437   9.105  21.073  1.00  0.00     0.126 C 
BRANCH  13  14
HETATM   14  N3  UNL     1      22.662  10.269  21.534  1.00  0.00    -0.352 N 
HETATM   15  C20 UNL     1      21.610  10.066  22.433  1.00  0.00     0.225 C 
HETATM   16  O1  UNL     1      20.943  10.992  22.948  1.00  0.00    -0.273 OA
BRANCH  14  17
HETATM   17  C7  UNL     1      23.072  11.531  21.014  1.00  0.00     0.126 C 
BRANCH  17  18
HETATM   18  C6  UNL     1      23.972  12.354  21.839  1.00  0.00     0.025 C 
BRANCH  18  19
HETATM   19  C5  UNL     1      23.534  13.179  22.953  1.00  0.00     0.050 C 
BRANCH  19  20
HETATM   20  C4  UNL     1      23.961  12.747  24.333  1.00  0.00     0.008 A 
HETATM   21  C2  UNL     1      23.333  13.105  25.514  1.00  0.00     0.020 A 
HETATM   22  C1  UNL     1      22.129  14.037  25.484  1.00  0.00     0.069 C 
HETATM   23  N1  UNL     1      23.805  12.612  26.625  1.00  0.00    -0.340 N 
HETATM   24  C3  UNL     1      24.859  11.797  26.562  1.00  0.00     0.142 A 
ATOM     25  H1  UNL     1      23.378  12.844  27.521  1.00  0.00     0.168 HD
HETATM   26  N2  UNL     1      25.460  11.212  27.578  1.00  0.00    -0.380 N 
HETATM   27  S1  UNL     1      25.192  11.723  24.899  1.00  0.00    -0.057 SA
ATOM     28  H22 UNL     1      25.259  11.256  28.577  1.00  0.00     0.158 HD
ATOM     29  H21 UNL     1      26.265  10.588  27.530  1.00  0.00     0.158 HD
ENDBRANCH  19  20
ENDBRANCH  18  19
ENDBRANCH  17  18
ENDBRANCH  14  17
BRANCH  15  30
HETATM   30  C21 UNL     1      21.186   8.688  22.858  1.00  0.00     0.161 C 
BRANCH  30  31
HETATM   31  C22 UNL     1      19.984   8.235  22.156  1.00  0.00     0.034 A 
HETATM   32  C23 UNL     1      19.764   8.256  20.800  1.00  0.00     0.114 A 
HETATM   33  N9  UNL     1      18.544   7.754  20.545  1.00  0.00    -0.360 N 
HETATM   34  C24 UNL     1      17.986   7.415  21.724  1.00  0.00     0.180 A 
ATOM     35  H9  UNL     1      18.117   7.650  19.625  1.00  0.00     0.166 HD
HETATM   36  N10 UNL     1      18.855   7.705  22.694  1.00  0.00    -0.354 N 
ATOM     37  H10 UNL     1      18.696   7.551  23.690  1.00  0.00     0.166 HD
ENDBRANCH  30  31
ENDBRANCH  15  30
ENDBRANCH  13  14
ENDBRANCH  12  13
ENDBRANCH  11  12
ENDBRANCH  10  11
ENDBRANCH   1  10
BRANCH   8  38
HETATM   38  C14 UNL     1      23.785   3.345  19.380  1.00  0.00     0.168 C 
BRANCH  38  39
HETATM   39  C15 UNL     1      23.397   2.365  18.297  1.00  0.00     0.292 C 
BRANCH  39  40
HETATM   40  N8  UNL     1      22.005   2.067  18.272  1.00  0.00     0.090 N 
HETATM   41  C16 UNL     1      21.613   1.738  16.926  1.00  0.00     0.272 C 
HETATM   42  C17 UNL     1      21.636   0.230  16.846  1.00  0.00     0.032 C 
HETATM   43  C18 UNL     1      21.661  -0.290  18.260  1.00  0.00     0.032 C 
HETATM   44  C19 UNL     1      21.564   0.971  19.054  1.00  0.00     0.272 C 
ENDBRANCH  39  40
ENDBRANCH  38  39
ENDBRANCH   8  38
TORSDOF 14
ENDMDL
MODEL 5
REMARK VINA RESULT: -7.523213794      2.129      4.200
REMARK  14 active torsions:
REMARK  status: ('A' for Active; 'I' for Inactive)
REMARK    1  A    between atoms: C4_10  and  C5_11 
REMARK    2  A    between atoms: C5_11  and  C6_12 
REMARK    3  A    between atoms: C6_12  and  C7_13 
REMARK    4  A    between atoms: C7_13  and  N3_14 
REMARK    5  A    between atoms: N3_14  and  C8_15 
REMARK       I    between atoms: N3_14  and  C20_35 
REMARK    6  A    between atoms: C8_15  and  C9_16 
REMARK    7  A    between atoms: C9_16  and  C10_17 
REMARK    8  A    between atoms: C10_17  and  C11_18 
REMARK    9  A    between atoms: C11_18  and  N4_19 
REMARK       I    between atoms: N4_19  and  C12_21 
REMARK       I    between atoms: C12_21  and  N7_26 
REMARK   10  A    between atoms: N7_26  and  C14_28 
REMARK   11  A    between atoms: C14_28  and  C15_29 
REMARK   12  A    between atoms: C15_29  and  N8_30 
REMARK   13  A    between atoms: C20_35  and  C21_37 
REMARK   14  A    between atoms: C21_37  and  C22_38 
ROOT
HETATM    1  N4  UNL     1      23.933   9.721  20.371  1.00  0.00    -0.226 N 
ATOM      2  H4  UNL     1      24.792  10.271  20.394  1.00  0.00     0.177 HD
HETATM    3  C12 UNL     1      22.856  10.091  21.229  1.00  0.00     0.682 C 
HETATM    4  N5  UNL     1      22.153   9.153  21.749  1.00  0.00    -0.126 N 
ATOM      5  H5  UNL     1      22.371   8.177  21.547  1.00  0.00     0.197 HD
HETATM    6  C13 UNL     1      21.092   9.474  22.592  1.00  0.00     0.196 C 
HETATM    7  N6  UNL     1      20.221   9.733  23.281  1.00  0.00    -0.171 NA
HETATM    8  N7  UNL     1      22.542  11.437  21.517  1.00  0.00    -0.224 N 
ATOM      9  H7  UNL     1      21.556  11.686  21.591  1.00  0.00     0.177 HD
ENDROOT
BRANCH   1  10
HETATM   10  C11 UNL     1      23.847   8.593  19.471  1.00  0.00     0.138 C 
BRANCH  10  11
HETATM   11  C10 UNL     1      25.044   7.682  19.599  1.00  0.00     0.022 C 
BRANCH  11  12
HETATM   12  C9  UNL     1      24.860   6.481  18.696  1.00  0.00     0.021 C 
BRANCH  12  13
HETATM   13  C8  UNL     1      23.546   5.822  19.043  1.00  0.00     0.126 C 
BRANCH  13  14
HETATM   14  N3  UNL     1      22.902   5.246  17.850  1.00  0.00    -0.352 N 
HETATM   15  C20 UNL     1      22.637   3.873  17.824  1.00  0.00     0.225 C 
HETATM   16  O1  UNL     1      22.022   3.299  16.897  1.00  0.00    -0.273 OA
BRANCH  14  17
HETATM   17  C7  UNL     1      22.593   6.167  16.808  1.00  0.00     0.126 C 
BRANCH  17  18
HETATM   18  C6  UNL     1      21.313   6.891  16.888  1.00  0.00     0.025 C 
BRANCH  18  19
HETATM   19  C5  UNL     1      20.031   6.256  17.151  1.00  0.00     0.050 C 
BRANCH  19  20
HETATM   20  C4  UNL     1      19.504   6.341  18.561  1.00  0.00     0.008 A 
HETATM   21  C2  UNL     1      19.032   5.272  19.304  1.00  0.00     0.020 A 
HETATM   22  C1  UNL     1      18.983   3.879  18.690  1.00  0.00     0.069 C 
HETATM   23  N1  UNL     1      18.649   5.507  20.528  1.00  0.00    -0.340 N 
HETATM   24  C3  UNL     1      18.731   6.755  20.992  1.00  0.00     0.142 A 
ATOM     25  H1  UNL     1      18.294   4.753  21.117  1.00  0.00     0.168 HD
HETATM   26  N2  UNL     1      18.391   7.168  22.196  1.00  0.00    -0.380 N 
HETATM   27  S1  UNL     1      19.365   7.617  19.673  1.00  0.00    -0.057 SA
ATOM     28  H22 UNL     1      18.010   6.650  22.987  1.00  0.00     0.158 HD
ATOM     29  H21 UNL     1      18.454   8.122  22.550  1.00  0.00     0.158 HD
ENDBRANCH  19  20
ENDBRANCH  18  19
ENDBRANCH  17  18
ENDBRANCH  14  17
BRANCH  15  30
HETATM   30  C21 UNL     1      23.083   2.960  18.931  1.00  0.00     0.161 C 
BRANCH  30  31
HETATM   31  C22 UNL     1      22.362   1.686  18.924  1.00  0.00     0.034 A 
HETATM   32  C23 UNL     1      21.360   1.301  19.783  1.00  0.00     0.114 A 
HETATM   33  N9  UNL     1      20.950   0.065  19.454  1.00  0.00    -0.360 N 
HETATM   34  C24 UNL     1      21.680  -0.341  18.397  1.00  0.00     0.180 A 
ATOM     35  H9  UNL     1      20.218  -0.470  19.921  1.00  0.00     0.166 HD
HETATM   36  N10 UNL     1      22.530   0.637  18.078  1.00  0.00    -0.354 N 
ATOM     37  H10 UNL     1      23.206   0.601  17.314  1.00  0.00     0.166 HD
ENDBRANCH  30  31
ENDBRANCH  15  30
ENDBRANCH  13  14
ENDBRANCH  12  13
ENDBRANCH  11  12
ENDBRANCH  10  11
ENDBRANCH   1  10
BRANCH   8  38
HETATM   38  C14 UNL     1      23.514  12.489  21.717  1.00  0.00     0.168 C 
BRANCH  38  39
HETATM   39  C15 UNL     1      23.311  13.202  23.033  1.00  0.00     0.292 C 
BRANCH  39  40
HETATM   40  N8  UNL     1      22.514  12.470  23.959  1.00  0.00     0.090 N 
HETATM   41  C16 UNL     1      23.307  12.146  25.116  1.00  0.00     0.272 C 
HETATM   42  C17 UNL     1      22.996  13.209  26.142  1.00  0.00     0.032 C 
HETATM   43  C18 UNL     1      21.733  13.901  25.697  1.00  0.00     0.032 C 
HETATM   44  C19 UNL     1      21.366  13.118  24.479  1.00  0.00     0.272 C 
ENDBRANCH  39  40
ENDBRANCH  38  39
ENDBRANCH   8  38
TORSDOF 14
ENDMDL
