MODEL 1
REMARK VINA RESULT: -8.248494323      0.000      0.000
REMARK  19 active torsions:
REMARK  status: ('A' for Active; 'I' for Inactive)
REMARK    1  A    between atoms: C3_4  and  C4_5 
REMARK    2  A    between atoms: C4_5  and  N2_6 
REMARK    3  A    between atoms: C5_8  and  N3_9 
REMARK    4  A    between atoms: C5_8  and  C20_26 
REMARK    5  A    between atoms: N3_9  and  C6_11 
REMARK    6  A    between atoms: C6_11  and  C7_12 
REMARK    7  A    between atoms: C7_12  and  O1_13 
REMARK    8  A    between atoms: O1_13  and  C8_14 
REMARK    9  A    between atoms: C12_18  and  C13_19 
REMARK   10  A    between atoms: C20_26  and  C21_27 
REMARK   11  A    between atoms: C20_26  and  C28_34 
REMARK   12  A    between atoms: C21_27  and  C22_28 
REMARK   13  A    between atoms: C28_34  and  O2_35 
REMARK   14  A    between atoms: C28_34  and  N4_37 
REMARK   15  A    between atoms: N4_37  and  C29_39 
REMARK   16  A    between atoms: C29_39  and  C30_40 
REMARK   17  A    between atoms: C30_40  and  O3_41 
REMARK   18  A    between atoms: C30_40  and  C31_43 
REMARK   19  A    between atoms: C31_43  and  O4_44 
ROOT
HETATM    1  N1  UNL     1      17.056   7.300  27.615  1.00  0.00    -0.192 NA
HETATM    2  C1  UNL     1      17.277   7.919  26.640  1.00  0.00     0.087 C 
HETATM    3  C2  UNL     1      17.566   8.665  25.452  1.00  0.00     0.095 C 
HETATM    4  C3  UNL     1      17.877   8.077  24.313  1.00  0.00     0.028 C 
ENDROOT
BRANCH   4   5
HETATM    5  C4  UNL     1      18.187   8.782  23.050  1.00  0.00     0.090 C 
BRANCH   5   6
HETATM    6  N2  UNL     1      19.527   9.043  22.773  1.00  0.00    -0.355 N 
HETATM    7  C5  UNL     1      20.286   9.006  21.785  1.00  0.00     0.085 C 
ATOM      8  H2  UNL     1      20.024   9.351  23.609  1.00  0.00     0.166 HD
BRANCH   7   9
HETATM    9  N3  UNL     1      19.919   8.622  20.468  1.00  0.00    -0.377 N 
ATOM     10  H3  UNL     1      19.676   9.345  19.792  1.00  0.00     0.160 HD
BRANCH   9  11
HETATM   11  C6  UNL     1      19.881   7.252  20.061  1.00  0.00     0.147 C 
BRANCH  11  12
HETATM   12  C7  UNL     1      18.752   6.999  19.064  1.00  0.00     0.195 C 
BRANCH  12  13
HETATM   13  O1  UNL     1      17.522   7.501  19.605  1.00  0.00    -0.350 OA
BRANCH  13  14
HETATM   14  C8  UNL     1      16.498   6.679  20.044  1.00  0.00     0.069 A 
HETATM   15  C9  UNL     1      16.218   5.567  19.263  1.00  0.00     0.037 A 
HETATM   16  C10 UNL     1      15.207   4.721  19.661  1.00  0.00     0.004 A 
HETATM   17  C11 UNL     1      14.476   4.971  20.824  1.00  0.00     0.012 A 
HETATM   18  C12 UNL     1      14.749   6.074  21.605  1.00  0.00    -0.023 A 
HETATM   19  C19 UNL     1      15.764   6.911  21.193  1.00  0.00     0.049 A 
BRANCH  18  20
HETATM   20  C13 UNL     1      13.971   6.329  22.827  1.00  0.00    -0.026 A 
HETATM   21  C14 UNL     1      14.549   7.026  23.851  1.00  0.00     0.012 A 
HETATM   22  C15 UNL     1      13.853   7.277  24.995  1.00  0.00     0.001 A 
HETATM   23  C16 UNL     1      12.569   6.835  25.133  1.00  0.00     0.000 A 
HETATM   24  C17 UNL     1      11.950   6.129  24.124  1.00  0.00     0.001 A 
HETATM   25  C18 UNL     1      12.677   5.886  22.970  1.00  0.00     0.012 A 
ENDBRANCH  18  20
ENDBRANCH  13  14
ENDBRANCH  12  13
ENDBRANCH  11  12
ENDBRANCH   9  11
ENDBRANCH   7   9
BRANCH   7  26
HETATM   26  C20 UNL     1      21.695   9.413  21.962  1.00  0.00     0.105 C 
BRANCH  26  27
HETATM   27  C21 UNL     1      22.712   8.357  22.107  1.00  0.00     0.055 C 
BRANCH  27  28
HETATM   28  C22 UNL     1      23.503   8.017  20.900  1.00  0.00    -0.057 A 
HETATM   29  C23 UNL     1      23.950   6.768  20.557  1.00  0.00     0.007 A 
HETATM   30  C24 UNL     1      24.652   6.548  19.393  1.00  0.00     0.001 A 
HETATM   31  C25 UNL     1      24.952   7.547  18.508  1.00  0.00     0.000 A 
HETATM   32  C26 UNL     1      24.505   8.811  18.847  1.00  0.00     0.001 A 
HETATM   33  C27 UNL     1      23.807   9.054  19.996  1.00  0.00     0.007 A 
ENDBRANCH  27  28
ENDBRANCH  26  27
BRANCH  26  34
HETATM   34  C28 UNL     1      21.827  10.489  23.042  1.00  0.00     0.225 C 
BRANCH  34  35
HETATM   35  O2  UNL     1      21.196  11.672  22.664  1.00  0.00    -0.376 OA
ATOM     36  H2  UNL     1      21.428  12.390  23.241  1.00  0.00     0.212 HD
ENDBRANCH  34  35
BRANCH  34  37
HETATM   37  N4  UNL     1      23.191  10.772  23.340  1.00  0.00    -0.394 N 
ATOM     38  H4  UNL     1      23.951  10.180  23.005  1.00  0.00     0.155 HD
BRANCH  37  39
HETATM   39  C29 UNL     1      23.427  11.926  24.132  1.00  0.00     0.150 C 
BRANCH  39  40
HETATM   40  C30 UNL     1      24.017  13.043  23.297  1.00  0.00     0.159 C 
BRANCH  40  41
HETATM   41  O3  UNL     1      23.095  14.069  23.106  1.00  0.00    -0.392 OA
ATOM     42  H3  UNL     1      23.035  14.311  22.189  1.00  0.00     0.210 HD
ENDBRANCH  40  41
BRANCH  40  43
HETATM   43  C31 UNL     1      24.460  12.556  21.923  1.00  0.00     0.197 C 
BRANCH  43  44
HETATM   44  O4  UNL     1      23.494  12.802  20.957  1.00  0.00    -0.398 OA
ATOM     45  H4  UNL     1      23.314  12.027  20.438  1.00  0.00     0.209 HD
ENDBRANCH  43  44
ENDBRANCH  40  43
ENDBRANCH  39  40
ENDBRANCH  37  39
ENDBRANCH  34  37
ENDBRANCH  26  34
ENDBRANCH   7  26
ENDBRANCH   5   6
ENDBRANCH   4   5
TORSDOF 19
ENDMDL
MODEL 2
REMARK VINA RESULT: -8.155230996      1.225      2.661
REMARK  19 active torsions:
REMARK  status: ('A' for Active; 'I' for Inactive)
REMARK    1  A    between atoms: C3_4  and  C4_5 
REMARK    2  A    between atoms: C4_5  and  N2_6 
REMARK    3  A    between atoms: C5_8  and  N3_9 
REMARK    4  A    between atoms: C5_8  and  C20_26 
REMARK    5  A    between atoms: N3_9  and  C6_11 
REMARK    6  A    between atoms: C6_11  and  C7_12 
REMARK    7  A    between atoms: C7_12  and  O1_13 
REMARK    8  A    between atoms: O1_13  and  C8_14 
REMARK    9  A    between atoms: C12_18  and  C13_19 
REMARK   10  A    between atoms: C20_26  and  C21_27 
REMARK   11  A    between atoms: C20_26  and  C28_34 
REMARK   12  A    between atoms: C21_27  and  C22_28 
REMARK   13  A    between atoms: C28_34  and  O2_35 
REMARK   14  A    between atoms: C28_34  and  N4_37 
REMARK   15  A    between atoms: N4_37  and  C29_39 
REMARK   16  A    between atoms: C29_39  and  C30_40 
REMARK   17  A    between atoms: C30_40  and  O3_41 
REMARK   18  A    between atoms: C30_40  and  C31_43 
REMARK   19  A    between atoms: C31_43  and  O4_44 
ROOT
HETATM    1  N1  UNL     1      16.511   7.956  27.965  1.00  0.00    -0.192 NA
HETATM    2  C1  UNL     1      16.805   7.745  26.846  1.00  0.00     0.087 C 
HETATM    3  C2  UNL     1      17.160   7.509  25.479  1.00  0.00     0.095 C 
HETATM    4  C3  UNL     1      18.157   8.143  24.894  1.00  0.00     0.028 C 
ENDROOT
BRANCH   4   5
HETATM    5  C4  UNL     1      18.579   7.951  23.488  1.00  0.00     0.090 C 
BRANCH   5   6
HETATM    6  N2  UNL     1      19.824   8.453  23.118  1.00  0.00    -0.355 N 
HETATM    7  C5  UNL     1      20.409   8.777  22.066  1.00  0.00     0.085 C 
ATOM      8  H2  UNL     1      20.423   8.594  23.932  1.00  0.00     0.166 HD
BRANCH   7   9
HETATM    9  N3  UNL     1      19.867   8.706  20.757  1.00  0.00    -0.377 N 
ATOM     10  H3  UNL     1      19.365   9.512  20.385  1.00  0.00     0.160 HD
BRANCH   9  11
HETATM   11  C6  UNL     1      20.002   7.538  19.942  1.00  0.00     0.147 C 
BRANCH  11  12
HETATM   12  C7  UNL     1      18.692   7.199  19.234  1.00  0.00     0.195 C 
BRANCH  12  13
HETATM   13  O1  UNL     1      17.619   7.923  19.852  1.00  0.00    -0.350 OA
BRANCH  13  14
HETATM   14  C8  UNL     1      16.467   7.314  20.322  1.00  0.00     0.069 A 
HETATM   15  C9  UNL     1      15.908   7.852  21.472  1.00  0.00     0.037 A 
HETATM   16  C10 UNL     1      14.762   7.279  21.977  1.00  0.00     0.004 A 
HETATM   17  C11 UNL     1      14.171   6.180  21.349  1.00  0.00     0.012 A 
HETATM   18  C12 UNL     1      14.721   5.641  20.206  1.00  0.00    -0.023 A 
HETATM   19  C19 UNL     1      15.869   6.227  19.713  1.00  0.00     0.049 A 
BRANCH  18  20
HETATM   20  C13 UNL     1      14.092   4.483  19.554  1.00  0.00    -0.026 A 
HETATM   21  C14 UNL     1      13.919   4.493  18.198  1.00  0.00     0.012 A 
HETATM   22  C15 UNL     1      13.339   3.435  17.567  1.00  0.00     0.001 A 
HETATM   23  C16 UNL     1      12.922   2.349  18.280  1.00  0.00     0.000 A 
HETATM   24  C17 UNL     1      13.078   2.298  19.650  1.00  0.00     0.001 A 
HETATM   25  C18 UNL     1      13.671   3.387  20.270  1.00  0.00     0.012 A 
ENDBRANCH  18  20
ENDBRANCH  13  14
ENDBRANCH  12  13
ENDBRANCH  11  12
ENDBRANCH   9  11
ENDBRANCH   7   9
BRANCH   7  26
HETATM   26  C20 UNL     1      21.785   9.308  22.159  1.00  0.00     0.105 C 
BRANCH  26  27
HETATM   27  C21 UNL     1      22.902   8.347  22.200  1.00  0.00     0.055 C 
BRANCH  27  28
HETATM   28  C22 UNL     1      23.589   8.062  20.918  1.00  0.00    -0.057 A 
HETATM   29  C23 UNL     1      24.002   6.831  20.483  1.00  0.00     0.007 A 
HETATM   30  C24 UNL     1      24.605   6.664  19.256  1.00  0.00     0.001 A 
HETATM   31  C25 UNL     1      24.834   7.702  18.395  1.00  0.00     0.000 A 
HETATM   32  C26 UNL     1      24.421   8.949  18.827  1.00  0.00     0.001 A 
HETATM   33  C27 UNL     1      23.820   9.139  20.039  1.00  0.00     0.007 A 
ENDBRANCH  27  28
ENDBRANCH  26  27
BRANCH  26  34
HETATM   34  C28 UNL     1      21.896  10.364  23.261  1.00  0.00     0.225 C 
BRANCH  34  35
HETATM   35  O2  UNL     1      21.130  11.490  22.968  1.00  0.00    -0.376 OA
ATOM     36  H2  UNL     1      21.652  12.284  23.001  1.00  0.00     0.212 HD
ENDBRANCH  34  35
BRANCH  34  37
HETATM   37  N4  UNL     1      23.246  10.768  23.469  1.00  0.00    -0.394 N 
ATOM     38  H4  UNL     1      24.034  10.213  23.135  1.00  0.00     0.155 HD
BRANCH  37  39
HETATM   39  C29 UNL     1      23.427  11.989  24.171  1.00  0.00     0.150 C 
BRANCH  39  40
HETATM   40  C30 UNL     1      23.991  13.058  23.258  1.00  0.00     0.159 C 
BRANCH  40  41
HETATM   41  O3  UNL     1      23.074  14.088  23.062  1.00  0.00    -0.392 OA
ATOM     42  H3  UNL     1      22.511  13.909  22.318  1.00  0.00     0.210 HD
ENDBRANCH  40  41
BRANCH  40  43
HETATM   43  C31 UNL     1      24.364  12.502  21.889  1.00  0.00     0.197 C 
BRANCH  43  44
HETATM   44  O4  UNL     1      23.334  12.666  20.973  1.00  0.00    -0.398 OA
ATOM     45  H4  UNL     1      23.323  11.966  20.331  1.00  0.00     0.209 HD
ENDBRANCH  43  44
ENDBRANCH  40  43
ENDBRANCH  39  40
ENDBRANCH  37  39
ENDBRANCH  34  37
ENDBRANCH  26  34
ENDBRANCH   7  26
ENDBRANCH   5   6
ENDBRANCH   4   5
TORSDOF 19
ENDMDL
MODEL 3
REMARK VINA RESULT: -8.090275725      2.387      5.615
REMARK  19 active torsions:
REMARK  status: ('A' for Active; 'I' for Inactive)
REMARK    1  A    between atoms: C3_4  and  C4_5 
REMARK    2  A    between atoms: C4_5  and  N2_6 
REMARK    3  A    between atoms: C5_8  and  N3_9 
REMARK    4  A    between atoms: C5_8  and  C20_26 
REMARK    5  A    between atoms: N3_9  and  C6_11 
REMARK    6  A    between atoms: C6_11  and  C7_12 
REMARK    7  A    between atoms: C7_12  and  O1_13 
REMARK    8  A    between atoms: O1_13  and  C8_14 
REMARK    9  A    between atoms: C12_18  and  C13_19 
REMARK   10  A    between atoms: C20_26  and  C21_27 
REMARK   11  A    between atoms: C20_26  and  C28_34 
REMARK   12  A    between atoms: C21_27  and  C22_28 
REMARK   13  A    between atoms: C28_34  and  O2_35 
REMARK   14  A    between atoms: C28_34  and  N4_37 
REMARK   15  A    between atoms: N4_37  and  C29_39 
REMARK   16  A    between atoms: C29_39  and  C30_40 
REMARK   17  A    between atoms: C30_40  and  O3_41 
REMARK   18  A    between atoms: C30_40  and  C31_43 
REMARK   19  A    between atoms: C31_43  and  O4_44 
ROOT
HETATM    1  N1  UNL     1      17.224   5.774  26.288  1.00  0.00    -0.192 NA
HETATM    2  C1  UNL     1      17.397   6.634  25.505  1.00  0.00     0.087 C 
HETATM    3  C2  UNL     1      17.603   7.696  24.567  1.00  0.00     0.095 C 
HETATM    4  C3  UNL     1      18.480   8.658  24.777  1.00  0.00     0.028 C 
ENDROOT
BRANCH   4   5
HETATM    5  C4  UNL     1      18.744   9.784  23.855  1.00  0.00     0.090 C 
BRANCH   5   6
HETATM    6  N2  UNL     1      19.913   9.734  23.099  1.00  0.00    -0.355 N 
HETATM    7  C5  UNL     1      20.268   9.310  21.983  1.00  0.00     0.085 C 
ATOM      8  H2  UNL     1      20.693  10.164  23.596  1.00  0.00     0.166 HD
BRANCH   7   9
HETATM    9  N3  UNL     1      19.434   8.658  21.036  1.00  0.00    -0.377 N 
ATOM     10  H3  UNL     1      19.107   9.180  20.224  1.00  0.00     0.160 HD
BRANCH   9  11
HETATM   11  C6  UNL     1      19.039   7.292  21.187  1.00  0.00     0.147 C 
BRANCH  11  12
HETATM   12  C7  UNL     1      18.281   6.793  19.958  1.00  0.00     0.195 C 
BRANCH  12  13
HETATM   13  O1  UNL     1      18.752   7.491  18.797  1.00  0.00    -0.350 OA
BRANCH  13  14
HETATM   14  C8  UNL     1      19.794   7.032  18.009  1.00  0.00     0.069 A 
HETATM   15  C9  UNL     1      20.029   7.724  16.829  1.00  0.00     0.037 A 
HETATM   16  C10 UNL     1      21.055   7.303  16.013  1.00  0.00     0.004 A 
HETATM   17  C11 UNL     1      21.845   6.205  16.359  1.00  0.00     0.012 A 
HETATM   18  C12 UNL     1      21.617   5.513  17.530  1.00  0.00    -0.023 A 
HETATM   19  C19 UNL     1      20.585   5.947  18.336  1.00  0.00     0.049 A 
BRANCH  18  20
HETATM   20  C13 UNL     1      22.454   4.357  17.884  1.00  0.00    -0.026 A 
HETATM   21  C14 UNL     1      22.181   3.662  19.029  1.00  0.00     0.012 A 
HETATM   22  C15 UNL     1      22.939   2.587  19.383  1.00  0.00     0.001 A 
HETATM   23  C16 UNL     1      23.981   2.189  18.597  1.00  0.00     0.000 A 
HETATM   24  C17 UNL     1      24.289   2.861  17.433  1.00  0.00     0.001 A 
HETATM   25  C18 UNL     1      23.505   3.952  17.094  1.00  0.00     0.012 A 
ENDBRANCH  18  20
ENDBRANCH  13  14
ENDBRANCH  12  13
ENDBRANCH  11  12
ENDBRANCH   9  11
ENDBRANCH   7   9
BRANCH   7  26
HETATM   26  C20 UNL     1      21.672   9.506  21.567  1.00  0.00     0.105 C 
BRANCH  26  27
HETATM   27  C21 UNL     1      22.613   8.385  21.738  1.00  0.00     0.055 C 
BRANCH  27  28
HETATM   28  C22 UNL     1      23.389   7.972  20.544  1.00  0.00    -0.057 A 
HETATM   29  C23 UNL     1      23.512   8.684  19.380  1.00  0.00     0.007 A 
HETATM   30  C24 UNL     1      24.286   8.229  18.335  1.00  0.00     0.001 A 
HETATM   31  C25 UNL     1      24.976   7.049  18.383  1.00  0.00     0.000 A 
HETATM   32  C26 UNL     1      24.856   6.324  19.555  1.00  0.00     0.001 A 
HETATM   33  C27 UNL     1      24.096   6.755  20.604  1.00  0.00     0.007 A 
ENDBRANCH  27  28
ENDBRANCH  26  27
BRANCH  26  34
HETATM   34  C28 UNL     1      22.234  10.816  22.123  1.00  0.00     0.225 C 
BRANCH  34  35
HETATM   35  O2  UNL     1      22.108  11.857  21.206  1.00  0.00    -0.376 OA
ATOM     36  H2  UNL     1      22.407  12.681  21.571  1.00  0.00     0.212 HD
ENDBRANCH  34  35
BRANCH  34  37
HETATM   37  N4  UNL     1      23.605  10.689  22.487  1.00  0.00    -0.394 N 
ATOM     38  H4  UNL     1      24.021   9.788  22.722  1.00  0.00     0.155 HD
BRANCH  37  39
HETATM   39  C29 UNL     1      24.359  11.893  22.501  1.00  0.00     0.150 C 
BRANCH  39  40
HETATM   40  C30 UNL     1      24.546  12.396  23.917  1.00  0.00     0.159 C 
BRANCH  40  41
HETATM   41  O3  UNL     1      24.333  11.380  24.845  1.00  0.00    -0.392 OA
ATOM     42  H3  UNL     1      25.076  11.287  25.429  1.00  0.00     0.210 HD
ENDBRANCH  40  41
BRANCH  40  43
HETATM   43  C31 UNL     1      23.590  13.536  24.249  1.00  0.00     0.197 C 
BRANCH  43  44
HETATM   44  O4  UNL     1      23.090  14.134  23.101  1.00  0.00    -0.398 OA
ATOM     45  H4  UNL     1      22.656  14.956  23.296  1.00  0.00     0.209 HD
ENDBRANCH  43  44
ENDBRANCH  40  43
ENDBRANCH  39  40
ENDBRANCH  37  39
ENDBRANCH  34  37
ENDBRANCH  26  34
ENDBRANCH   7  26
ENDBRANCH   5   6
ENDBRANCH   4   5
TORSDOF 19
ENDMDL
MODEL 4
REMARK VINA RESULT: -7.939739089      3.109      6.844
REMARK  19 active torsions:
REMARK  status: ('A' for Active; 'I' for Inactive)
REMARK    1  A    between atoms: C3_4  and  C4_5 
REMARK    2  A    between atoms: C4_5  and  N2_6 
REMARK    3  A    between atoms: C5_8  and  N3_9 
REMARK    4  A    between atoms: C5_8  and  C20_26 
REMARK    5  A    between atoms: N3_9  and  C6_11 
REMARK    6  A    between atoms: C6_11  and  C7_12 
REMARK    7  A    between atoms: C7_12  and  O1_13 
REMARK    8  A    between atoms: O1_13  and  C8_14 
REMARK    9  A    between atoms: C12_18  and  C13_19 
REMARK   10  A    between atoms: C20_26  and  C21_27 
REMARK   11  A    between atoms: C20_26  and  C28_34 
REMARK   12  A    between atoms: C21_27  and  C22_28 
REMARK   13  A    between atoms: C28_34  and  O2_35 
REMARK   14  A    between atoms: C28_34  and  N4_37 
REMARK   15  A    between atoms: N4_37  and  C29_39 
REMARK   16  A    between atoms: C29_39  and  C30_40 
REMARK   17  A    between atoms: C30_40  and  O3_41 
REMARK   18  A    between atoms: C30_40  and  C31_43 
REMARK   19  A    between atoms: C31_43  and  O4_44 
ROOT
HETATM    1  N1  UNL     1      21.253   4.088  17.210  1.00  0.00    -0.192 NA
HETATM    2  C1  UNL     1      21.057   5.080  17.810  1.00  0.00     0.087 C 
HETATM    3  C2  UNL     1      20.804   6.295  18.525  1.00  0.00     0.095 C 
HETATM    4  C3  UNL     1      19.599   6.622  18.948  1.00  0.00     0.028 C 
ENDROOT
BRANCH   4   5
HETATM    5  C4  UNL     1      19.264   7.857  19.690  1.00  0.00     0.090 C 
BRANCH   5   6
HETATM    6  N2  UNL     1      20.279   8.456  20.431  1.00  0.00    -0.355 N 
HETATM    7  C5  UNL     1      20.631   8.522  21.625  1.00  0.00     0.085 C 
ATOM      8  H2  UNL     1      20.911   8.988  19.831  1.00  0.00     0.166 HD
BRANCH   7   9
HETATM    9  N3  UNL     1      19.976   7.900  22.720  1.00  0.00    -0.377 N 
ATOM     10  H3  UNL     1      20.511   7.282  23.330  1.00  0.00     0.160 HD
BRANCH   9  11
HETATM   11  C6  UNL     1      18.589   8.113  22.995  1.00  0.00     0.147 C 
BRANCH  11  12
HETATM   12  C7  UNL     1      18.343   8.316  24.489  1.00  0.00     0.195 C 
BRANCH  12  13
HETATM   13  O1  UNL     1      18.553   9.695  24.820  1.00  0.00    -0.350 OA
BRANCH  13  14
HETATM   14  C8  UNL     1      18.790  10.136  26.111  1.00  0.00     0.069 A 
HETATM   15  C9  UNL     1      18.159   9.435  27.130  1.00  0.00     0.037 A 
HETATM   16  C10 UNL     1      18.366   9.837  28.430  1.00  0.00     0.004 A 
HETATM   17  C11 UNL     1      19.190  10.926  28.725  1.00  0.00     0.012 A 
HETATM   18  C12 UNL     1      19.820  11.626  27.718  1.00  0.00    -0.023 A 
HETATM   19  C19 UNL     1      19.603  11.210  26.420  1.00  0.00     0.049 A 
BRANCH  18  20
HETATM   20  C13 UNL     1      20.684  12.771  28.038  1.00  0.00    -0.026 A 
HETATM   21  C14 UNL     1      21.092  13.602  27.032  1.00  0.00     0.012 A 
HETATM   22  C15 UNL     1      21.892  14.670  27.299  1.00  0.00     0.001 A 
HETATM   23  C16 UNL     1      22.299  14.927  28.576  1.00  0.00     0.000 A 
HETATM   24  C17 UNL     1      21.910  14.114  29.621  1.00  0.00     0.001 A 
HETATM   25  C18 UNL     1      21.096  13.033  29.324  1.00  0.00     0.012 A 
ENDBRANCH  18  20
ENDBRANCH  13  14
ENDBRANCH  12  13
ENDBRANCH  11  12
ENDBRANCH   9  11
ENDBRANCH   7   9
BRANCH   7  26
HETATM   26  C20 UNL     1      21.847   9.291  21.962  1.00  0.00     0.105 C 
BRANCH  26  27
HETATM   27  C21 UNL     1      23.136   8.577  21.994  1.00  0.00     0.055 C 
BRANCH  27  28
HETATM   28  C22 UNL     1      23.687   8.131  20.693  1.00  0.00    -0.057 A 
HETATM   29  C23 UNL     1      24.014   6.844  20.357  1.00  0.00     0.007 A 
HETATM   30  C24 UNL     1      24.491   6.523  19.105  1.00  0.00     0.001 A 
HETATM   31  C25 UNL     1      24.673   7.455  18.121  1.00  0.00     0.000 A 
HETATM   32  C26 UNL     1      24.346   8.758  18.452  1.00  0.00     0.001 A 
HETATM   33  C27 UNL     1      23.871   9.099  19.686  1.00  0.00     0.007 A 
ENDBRANCH  27  28
ENDBRANCH  26  27
BRANCH  26  34
HETATM   34  C28 UNL     1      21.631  10.143  23.215  1.00  0.00     0.225 C 
BRANCH  34  35
HETATM   35  O2  UNL     1      20.583  11.045  23.046  1.00  0.00    -0.376 OA
ATOM     36  H2  UNL     1      20.519  11.645  23.779  1.00  0.00     0.212 HD
ENDBRANCH  34  35
BRANCH  34  37
HETATM   37  N4  UNL     1      22.806  10.865  23.569  1.00  0.00    -0.394 N 
ATOM     38  H4  UNL     1      23.734  10.443  23.527  1.00  0.00     0.155 HD
BRANCH  37  39
HETATM   39  C29 UNL     1      22.608  12.209  23.985  1.00  0.00     0.150 C 
BRANCH  39  40
HETATM   40  C30 UNL     1      23.530  13.148  23.235  1.00  0.00     0.159 C 
BRANCH  40  41
HETATM   41  O3  UNL     1      23.074  14.462  23.304  1.00  0.00    -0.392 OA
ATOM     42  H3  UNL     1      22.676  14.731  22.484  1.00  0.00     0.210 HD
ENDBRANCH  40  41
BRANCH  40  43
HETATM   43  C31 UNL     1      23.651  12.775  21.762  1.00  0.00     0.197 C 
BRANCH  43  44
HETATM   44  O4  UNL     1      24.786  12.013  21.520  1.00  0.00    -0.398 OA
ATOM     45  H4  UNL     1      25.539  12.350  21.990  1.00  0.00     0.209 HD
ENDBRANCH  43  44
ENDBRANCH  40  43
ENDBRANCH  39  40
ENDBRANCH  37  39
ENDBRANCH  34  37
ENDBRANCH  26  34
ENDBRANCH   7  26
ENDBRANCH   5   6
ENDBRANCH   4   5
TORSDOF 19
ENDMDL
MODEL 5
REMARK VINA RESULT: -7.904092421      1.509      2.003
REMARK  19 active torsions:
REMARK  status: ('A' for Active; 'I' for Inactive)
REMARK    1  A    between atoms: C3_4  and  C4_5 
REMARK    2  A    between atoms: C4_5  and  N2_6 
REMARK    3  A    between atoms: C5_8  and  N3_9 
REMARK    4  A    between atoms: C5_8  and  C20_26 
REMARK    5  A    between atoms: N3_9  and  C6_11 
REMARK    6  A    between atoms: C6_11  and  C7_12 
REMARK    7  A    between atoms: C7_12  and  O1_13 
REMARK    8  A    between atoms: O1_13  and  C8_14 
REMARK    9  A    between atoms: C12_18  and  C13_19 
REMARK   10  A    between atoms: C20_26  and  C21_27 
REMARK   11  A    between atoms: C20_26  and  C28_34 
REMARK   12  A    between atoms: C21_27  and  C22_28 
REMARK   13  A    between atoms: C28_34  and  O2_35 
REMARK   14  A    between atoms: C28_34  and  N4_37 
REMARK   15  A    between atoms: N4_37  and  C29_39 
REMARK   16  A    between atoms: C29_39  and  C30_40 
REMARK   17  A    between atoms: C30_40  and  O3_41 
REMARK   18  A    between atoms: C30_40  and  C31_43 
REMARK   19  A    between atoms: C31_43  and  O4_44 
ROOT
HETATM    1  N1  UNL     1      16.867   7.398  27.617  1.00  0.00    -0.192 NA
HETATM    2  C1  UNL     1      17.083   8.043  26.657  1.00  0.00     0.087 C 
HETATM    3  C2  UNL     1      17.366   8.823  25.490  1.00  0.00     0.095 C 
HETATM    4  C3  UNL     1      17.877   8.290  24.398  1.00  0.00     0.028 C 
ENDROOT
BRANCH   4   5
HETATM    5  C4  UNL     1      18.196   9.033  23.158  1.00  0.00     0.090 C 
BRANCH   5   6
HETATM    6  N2  UNL     1      19.541   9.217  22.848  1.00  0.00    -0.355 N 
HETATM    7  C5  UNL     1      20.394   8.690  22.109  1.00  0.00     0.085 C 
ATOM      8  H2  UNL     1      19.938   9.999  23.370  1.00  0.00     0.166 HD
BRANCH   7   9
HETATM    9  N3  UNL     1      20.180   7.580  21.249  1.00  0.00    -0.377 N 
ATOM     10  H3  UNL     1      20.162   6.642  21.648  1.00  0.00     0.160 HD
BRANCH   9  11
HETATM   11  C6  UNL     1      19.986   7.738  19.841  1.00  0.00     0.147 C 
BRANCH  11  12
HETATM   12  C7  UNL     1      18.874   6.827  19.326  1.00  0.00     0.195 C 
BRANCH  12  13
HETATM   13  O1  UNL     1      17.616   7.506  19.438  1.00  0.00    -0.350 OA
BRANCH  13  14
HETATM   14  C8  UNL     1      16.703   7.246  20.446  1.00  0.00     0.069 A 
HETATM   15  C9  UNL     1      15.607   8.094  20.522  1.00  0.00     0.037 A 
HETATM   16  C10 UNL     1      14.672   7.874  21.508  1.00  0.00     0.004 A 
HETATM   17  C11 UNL     1      14.818   6.823  22.416  1.00  0.00     0.012 A 
HETATM   18  C12 UNL     1      15.904   5.976  22.346  1.00  0.00    -0.023 A 
HETATM   19  C19 UNL     1      16.831   6.210  21.352  1.00  0.00     0.049 A 
BRANCH  18  20
HETATM   20  C13 UNL     1      16.048   4.873  23.307  1.00  0.00    -0.026 A 
HETATM   21  C14 UNL     1      16.287   3.610  22.842  1.00  0.00     0.012 A 
HETATM   22  C15 UNL     1      16.426   2.569  23.709  1.00  0.00     0.001 A 
HETATM   23  C16 UNL     1      16.328   2.773  25.055  1.00  0.00     0.000 A 
HETATM   24  C17 UNL     1      16.088   4.032  25.566  1.00  0.00     0.001 A 
HETATM   25  C18 UNL     1      15.951   5.075  24.664  1.00  0.00     0.012 A 
ENDBRANCH  18  20
ENDBRANCH  13  14
ENDBRANCH  12  13
ENDBRANCH  11  12
ENDBRANCH   9  11
ENDBRANCH   7   9
BRANCH   7  26
HETATM   26  C20 UNL     1      21.757   9.261  22.084  1.00  0.00     0.105 C 
BRANCH  26  27
HETATM   27  C21 UNL     1      22.902   8.336  22.163  1.00  0.00     0.055 C 
BRANCH  27  28
HETATM   28  C22 UNL     1      23.602   8.026  20.894  1.00  0.00    -0.057 A 
HETATM   29  C23 UNL     1      23.946   6.777  20.451  1.00  0.00     0.007 A 
HETATM   30  C24 UNL     1      24.569   6.589  19.236  1.00  0.00     0.001 A 
HETATM   31  C25 UNL     1      24.886   7.623  18.398  1.00  0.00     0.000 A 
HETATM   32  C26 UNL     1      24.543   8.888  18.840  1.00  0.00     0.001 A 
HETATM   33  C27 UNL     1      23.925   9.099  20.039  1.00  0.00     0.007 A 
ENDBRANCH  27  28
ENDBRANCH  26  27
BRANCH  26  34
HETATM   34  C28 UNL     1      21.887  10.421  23.075  1.00  0.00     0.225 C 
BRANCH  34  35
HETATM   35  O2  UNL     1      21.274  11.575  22.593  1.00  0.00    -0.376 OA
ATOM     36  H2  UNL     1      21.473  11.718  21.675  1.00  0.00     0.212 HD
ENDBRANCH  34  35
BRANCH  34  37
HETATM   37  N4  UNL     1      23.250  10.713  23.367  1.00  0.00    -0.394 N 
ATOM     38  H4  UNL     1      24.013  10.127  23.029  1.00  0.00     0.155 HD
BRANCH  37  39
HETATM   39  C29 UNL     1      23.481  11.869  24.160  1.00  0.00     0.150 C 
BRANCH  39  40
HETATM   40  C30 UNL     1      24.042  12.996  23.319  1.00  0.00     0.159 C 
BRANCH  40  41
HETATM   41  O3  UNL     1      23.104  14.012  23.149  1.00  0.00    -0.392 OA
ATOM     42  H3  UNL     1      22.349  13.704  22.662  1.00  0.00     0.210 HD
ENDBRANCH  40  41
BRANCH  40  43
HETATM   43  C31 UNL     1      24.468  12.521  21.935  1.00  0.00     0.197 C 
BRANCH  43  44
HETATM   44  O4  UNL     1      23.505  12.809  20.978  1.00  0.00    -0.398 OA
ATOM     45  H4  UNL     1      23.238  12.030  20.505  1.00  0.00     0.209 HD
ENDBRANCH  43  44
ENDBRANCH  40  43
ENDBRANCH  39  40
ENDBRANCH  37  39
ENDBRANCH  34  37
ENDBRANCH  26  34
ENDBRANCH   7  26
ENDBRANCH   5   6
ENDBRANCH   4   5
TORSDOF 19
ENDMDL
