MODEL 1
REMARK VINA RESULT: -7.632070331      0.000      0.000
REMARK  16 active torsions:
REMARK  status: ('A' for Active; 'I' for Inactive)
REMARK    1  A    between atoms: N1_1  and  S1_4 
REMARK    2  A    between atoms: S1_4  and  C1_7 
REMARK    3  A    between atoms: C4_10  and  C5_11 
REMARK    4  A    between atoms: C5_11  and  C6_12 
REMARK    5  A    between atoms: C6_12  and  N2_13 
REMARK    6  A    between atoms: N2_13  and  C7_15 
REMARK    7  A    between atoms: C7_15  and  C8_16 
REMARK    8  A    between atoms: C8_16  and  C9_17 
REMARK    9  A    between atoms: C9_17  and  C10_18 
REMARK   10  A    between atoms: C10_18  and  C11_19 
REMARK   11  A    between atoms: C11_19  and  C12_20 
REMARK   12  A    between atoms: C12_20  and  N3_21 
REMARK   13  A    between atoms: N3_21  and  C13_23 
REMARK   14  A    between atoms: C13_23  and  C14_24 
REMARK       I    between atoms: C14_24  and  N4_26 
REMARK   15  A    between atoms: N4_26  and  C15_28 
REMARK   16  A    between atoms: C19_32  and  N5_33 
ROOT
HETATM    1  C12 UNL     1      18.828   9.042  22.992  1.00  0.00     0.119 C 
ENDROOT
BRANCH   1   2
HETATM    2  C11 UNL     1      18.454   7.594  23.367  1.00  0.00     0.020 C 
BRANCH   2   3
HETATM    3  C10 UNL     1      17.266   7.683  24.283  1.00  0.00     0.002 C 
BRANCH   3   4
HETATM    4  C9  UNL     1      17.013   6.478  25.096  1.00  0.00     0.002 C 
BRANCH   4   5
HETATM    5  C8  UNL     1      15.727   6.372  25.815  1.00  0.00     0.019 C 
BRANCH   5   6
HETATM    6  C7  UNL     1      15.014   7.715  26.023  1.00  0.00     0.113 C 
BRANCH   6   7
HETATM    7  N2  UNL     1      13.669   7.617  25.554  1.00  0.00    -0.421 N 
ATOM      8  H2  UNL     1      12.964   8.303  25.824  1.00  0.00     0.153 HD
BRANCH   7   9
HETATM    9  C6  UNL     1      13.351   6.536  24.703  1.00  0.00     0.118 C 
BRANCH   9  10
HETATM   10  C5  UNL     1      12.997   6.926  23.278  1.00  0.00     0.057 C 
BRANCH  10  11
HETATM   11  C4  UNL     1      14.198   6.734  22.382  1.00  0.00    -0.057 A 
HETATM   12  C3  UNL     1      14.827   5.517  22.288  1.00  0.00     0.009 A 
HETATM   13  C2  UNL     1      15.910   5.327  21.451  1.00  0.00     0.026 A 
HETATM   14  C1  UNL     1      16.389   6.365  20.682  1.00  0.00     0.079 A 
HETATM   15  C26 UNL     1      15.740   7.592  20.791  1.00  0.00     0.026 A 
HETATM   16  C25 UNL     1      14.663   7.780  21.624  1.00  0.00     0.009 A 
BRANCH  14  17
HETATM   17  S1  UNL     1      17.763   6.141  19.610  1.00  0.00     0.256 S 
HETATM   18  O1  UNL     1      18.227   7.441  19.028  1.00  0.00    -0.201 OA
HETATM   19  O2  UNL     1      17.295   5.223  18.510  1.00  0.00    -0.201 OA
BRANCH  17  20
HETATM   20  N1  UNL     1      18.996   5.337  20.498  1.00  0.00    -0.324 N 
ATOM     21  H12 UNL     1      19.565   5.806  21.204  1.00  0.00     0.169 HD
ATOM     22  H11 UNL     1      19.088   4.355  20.240  1.00  0.00     0.169 HD
ENDBRANCH  17  20
ENDBRANCH  14  17
ENDBRANCH  10  11
ENDBRANCH   9  10
ENDBRANCH   7   9
ENDBRANCH   6   7
ENDBRANCH   5   6
ENDBRANCH   4   5
ENDBRANCH   3   4
ENDBRANCH   2   3
ENDBRANCH   1   2
BRANCH   1  23
HETATM   23  N3  UNL     1      19.899   9.549  23.780  1.00  0.00    -0.394 N 
ATOM     24  H3  UNL     1      19.878   9.587  24.799  1.00  0.00     0.159 HD
BRANCH  23  25
HETATM   25  C13 UNL     1      20.989   9.993  23.010  1.00  0.00     0.158 C 
BRANCH  25  26
HETATM   26  C14 UNL     1      21.839   9.023  22.313  1.00  0.00     0.260 C 
HETATM   27  O3  UNL     1      22.191   8.028  23.057  1.00  0.00    -0.267 OA
HETATM   28  N4  UNL     1      22.244   9.129  20.977  1.00  0.00    -0.322 N 
ATOM     29  H4  UNL     1      21.901   9.954  20.484  1.00  0.00     0.169 HD
BRANCH  28  30
HETATM   30  C15 UNL     1      23.052   8.269  20.213  1.00  0.00     0.037 A 
HETATM   31  C16 UNL     1      24.428   8.552  20.107  1.00  0.00     0.029 A 
HETATM   32  C17 UNL     1      25.244   7.744  19.369  1.00  0.00     0.004 A 
HETATM   33  C18 UNL     1      24.724   6.638  18.721  1.00  0.00     0.029 A 
HETATM   34  C19 UNL     1      23.390   6.321  18.795  1.00  0.00     0.032 A 
HETATM   35  C24 UNL     1      22.578   7.167  19.557  1.00  0.00     0.058 A 
BRANCH  34  36
HETATM   36  N5  UNL     1      22.849   5.187  18.139  1.00  0.00    -0.378 N 
HETATM   37  C20 UNL     1      21.439   4.856  18.108  1.00  0.00     0.150 C 
HETATM   38  C21 UNL     1      21.081   4.091  16.841  1.00  0.00     0.252 C 
HETATM   39  N6  UNL     1      21.842   2.882  16.685  1.00  0.00    -0.072 N 
HETATM   40  C22 UNL     1      23.092   2.906  17.407  1.00  0.00     0.252 C 
ATOM     41  H62 UNL     1      21.286   2.066  16.945  1.00  0.00     0.277 HD
ATOM     42  H61 UNL     1      21.994   2.673  15.699  1.00  0.00     0.277 HD
HETATM   43  C23 UNL     1      23.735   4.273  17.444  1.00  0.00     0.150 C 
ENDBRANCH  34  36
ENDBRANCH  28  30
ENDBRANCH  25  26
ENDBRANCH  23  25
ENDBRANCH   1  23
TORSDOF 16
ENDMDL
MODEL 2
REMARK VINA RESULT: -7.555006576      4.273      8.959
REMARK  16 active torsions:
REMARK  status: ('A' for Active; 'I' for Inactive)
REMARK    1  A    between atoms: N1_1  and  S1_4 
REMARK    2  A    between atoms: S1_4  and  C1_7 
REMARK    3  A    between atoms: C4_10  and  C5_11 
REMARK    4  A    between atoms: C5_11  and  C6_12 
REMARK    5  A    between atoms: C6_12  and  N2_13 
REMARK    6  A    between atoms: N2_13  and  C7_15 
REMARK    7  A    between atoms: C7_15  and  C8_16 
REMARK    8  A    between atoms: C8_16  and  C9_17 
REMARK    9  A    between atoms: C9_17  and  C10_18 
REMARK   10  A    between atoms: C10_18  and  C11_19 
REMARK   11  A    between atoms: C11_19  and  C12_20 
REMARK   12  A    between atoms: C12_20  and  N3_21 
REMARK   13  A    between atoms: N3_21  and  C13_23 
REMARK   14  A    between atoms: C13_23  and  C14_24 
REMARK       I    between atoms: C14_24  and  N4_26 
REMARK   15  A    between atoms: N4_26  and  C15_28 
REMARK   16  A    between atoms: C19_32  and  N5_33 
ROOT
HETATM    1  C12 UNL     1      19.636   6.692  19.094  1.00  0.00     0.119 C 
ENDROOT
BRANCH   1   2
HETATM    2  C11 UNL     1      20.390   6.538  17.759  1.00  0.00     0.020 C 
BRANCH   2   3
HETATM    3  C10 UNL     1      20.298   5.086  17.380  1.00  0.00     0.002 C 
BRANCH   3   4
HETATM    4  C9  UNL     1      20.118   4.156  18.510  1.00  0.00     0.002 C 
BRANCH   4   5
HETATM    5  C8  UNL     1      19.928   2.721  18.216  1.00  0.00     0.019 C 
BRANCH   5   6
HETATM    6  C7  UNL     1      20.520   1.782  19.276  1.00  0.00     0.113 C 
BRANCH   6   7
HETATM    7  N2  UNL     1      21.484   0.923  18.667  1.00  0.00    -0.421 N 
ATOM      8  H2  UNL     1      21.674  -0.007  19.039  1.00  0.00     0.153 HD
BRANCH   7   9
HETATM    9  C6  UNL     1      22.165   1.411  17.530  1.00  0.00     0.118 C 
BRANCH   9  10
HETATM   10  C5  UNL     1      23.630   1.743  17.755  1.00  0.00     0.057 C 
BRANCH  10  11
HETATM   11  C4  UNL     1      23.781   3.221  18.032  1.00  0.00    -0.057 A 
HETATM   12  C3  UNL     1      23.909   4.127  17.006  1.00  0.00     0.009 A 
HETATM   13  C2  UNL     1      24.022   5.482  17.251  1.00  0.00     0.026 A 
HETATM   14  C1  UNL     1      24.009   5.963  18.542  1.00  0.00     0.079 A 
HETATM   15  C26 UNL     1      23.881   5.030  19.568  1.00  0.00     0.026 A 
HETATM   16  C25 UNL     1      23.768   3.683  19.325  1.00  0.00     0.009 A 
BRANCH  14  17
HETATM   17  S1  UNL     1      24.148   7.683  18.871  1.00  0.00     0.256 S 
HETATM   18  O1  UNL     1      25.431   8.010  19.572  1.00  0.00    -0.201 OA
HETATM   19  O2  UNL     1      22.976   8.041  19.749  1.00  0.00    -0.201 OA
BRANCH  17  20
HETATM   20  N1  UNL     1      23.980   8.518  17.377  1.00  0.00    -0.324 N 
ATOM     21  H12 UNL     1      23.074   8.769  16.982  1.00  0.00     0.169 HD
ATOM     22  H11 UNL     1      24.879   8.727  16.943  1.00  0.00     0.169 HD
ENDBRANCH  17  20
ENDBRANCH  14  17
ENDBRANCH  10  11
ENDBRANCH   9  10
ENDBRANCH   7   9
ENDBRANCH   6   7
ENDBRANCH   5   6
ENDBRANCH   4   5
ENDBRANCH   3   4
ENDBRANCH   2   3
ENDBRANCH   1   2
BRANCH   1  23
HETATM   23  N3  UNL     1      19.834   7.970  19.688  1.00  0.00    -0.394 N 
ATOM     24  H3  UNL     1      19.977   8.824  19.149  1.00  0.00     0.159 HD
BRANCH  23  25
HETATM   25  C13 UNL     1      19.814   7.935  21.094  1.00  0.00     0.158 C 
BRANCH  25  26
HETATM   26  C14 UNL     1      20.746   8.766  21.863  1.00  0.00     0.260 C 
HETATM   27  O3  UNL     1      20.959   8.321  23.055  1.00  0.00    -0.267 OA
HETATM   28  N4  UNL     1      21.364   9.927  21.382  1.00  0.00    -0.322 N 
ATOM     29  H4  UNL     1      21.126  10.181  20.424  1.00  0.00     0.169 HD
BRANCH  28  30
HETATM   30  C15 UNL     1      22.264  10.795  22.025  1.00  0.00     0.037 A 
HETATM   31  C16 UNL     1      23.524  11.020  21.436  1.00  0.00     0.029 A 
HETATM   32  C17 UNL     1      24.426  11.850  22.034  1.00  0.00     0.004 A 
HETATM   33  C18 UNL     1      24.109  12.480  23.224  1.00  0.00     0.029 A 
HETATM   34  C19 UNL     1      22.894  12.293  23.836  1.00  0.00     0.032 A 
HETATM   35  C24 UNL     1      21.989  11.437  23.202  1.00  0.00     0.058 A 
BRANCH  34  36
HETATM   36  N5  UNL     1      22.558  12.939  25.053  1.00  0.00    -0.378 N 
HETATM   37  C20 UNL     1      22.956  12.469  26.363  1.00  0.00     0.150 C 
HETATM   38  C21 UNL     1      23.094  13.626  27.344  1.00  0.00     0.252 C 
HETATM   39  N6  UNL     1      21.887  14.393  27.477  1.00  0.00    -0.072 N 
HETATM   40  C22 UNL     1      21.015  14.274  26.332  1.00  0.00     0.252 C 
ATOM     41  H62 UNL     1      21.394  14.150  28.336  1.00  0.00     0.277 HD
ATOM     42  H61 UNL     1      22.097  15.371  27.675  1.00  0.00     0.277 HD
HETATM   43  C23 UNL     1      21.761  14.150  25.023  1.00  0.00     0.150 C 
ENDBRANCH  34  36
ENDBRANCH  28  30
ENDBRANCH  25  26
ENDBRANCH  23  25
ENDBRANCH   1  23
TORSDOF 16
ENDMDL
MODEL 3
REMARK VINA RESULT: -7.474328058      3.934      9.255
REMARK  16 active torsions:
REMARK  status: ('A' for Active; 'I' for Inactive)
REMARK    1  A    between atoms: N1_1  and  S1_4 
REMARK    2  A    between atoms: S1_4  and  C1_7 
REMARK    3  A    between atoms: C4_10  and  C5_11 
REMARK    4  A    between atoms: C5_11  and  C6_12 
REMARK    5  A    between atoms: C6_12  and  N2_13 
REMARK    6  A    between atoms: N2_13  and  C7_15 
REMARK    7  A    between atoms: C7_15  and  C8_16 
REMARK    8  A    between atoms: C8_16  and  C9_17 
REMARK    9  A    between atoms: C9_17  and  C10_18 
REMARK   10  A    between atoms: C10_18  and  C11_19 
REMARK   11  A    between atoms: C11_19  and  C12_20 
REMARK   12  A    between atoms: C12_20  and  N3_21 
REMARK   13  A    between atoms: N3_21  and  C13_23 
REMARK   14  A    between atoms: C13_23  and  C14_24 
REMARK       I    between atoms: C14_24  and  N4_26 
REMARK   15  A    between atoms: N4_26  and  C15_28 
REMARK   16  A    between atoms: C19_32  and  N5_33 
ROOT
HETATM    1  C12 UNL     1      19.122   7.778  21.841  1.00  0.00     0.119 C 
ENDROOT
BRANCH   1   2
HETATM    2  C11 UNL     1      18.888   7.614  20.326  1.00  0.00     0.020 C 
BRANCH   2   3
HETATM    3  C10 UNL     1      20.247   7.571  19.685  1.00  0.00     0.002 C 
BRANCH   3   4
HETATM    4  C9  UNL     1      20.488   6.409  18.810  1.00  0.00     0.002 C 
BRANCH   4   5
HETATM    5  C8  UNL     1      20.230   6.553  17.362  1.00  0.00     0.019 C 
BRANCH   5   6
HETATM    6  C7  UNL     1      21.501   6.665  16.509  1.00  0.00     0.113 C 
BRANCH   6   7
HETATM    7  N2  UNL     1      22.413   5.629  16.876  1.00  0.00    -0.421 N 
ATOM      8  H2  UNL     1      22.098   4.804  17.386  1.00  0.00     0.153 HD
BRANCH   7   9
HETATM    9  C6  UNL     1      23.766   5.790  16.506  1.00  0.00     0.118 C 
BRANCH   9  10
HETATM   10  C5  UNL     1      24.749   5.800  17.664  1.00  0.00     0.057 C 
BRANCH  10  11
HETATM   11  C4  UNL     1      24.373   6.886  18.644  1.00  0.00    -0.057 A 
HETATM   12  C3  UNL     1      24.396   8.211  18.280  1.00  0.00     0.009 A 
HETATM   13  C2  UNL     1      24.030   9.208  19.163  1.00  0.00     0.026 A 
HETATM   14  C1  UNL     1      23.627   8.895  20.443  1.00  0.00     0.079 A 
HETATM   15  C26 UNL     1      23.611   7.548  20.795  1.00  0.00     0.026 A 
HETATM   16  C25 UNL     1      23.976   6.556  19.916  1.00  0.00     0.009 A 
BRANCH  14  17
HETATM   17  S1  UNL     1      23.153  10.149  21.579  1.00  0.00     0.256 S 
HETATM   18  O1  UNL     1      22.907   9.592  22.947  1.00  0.00    -0.201 OA
HETATM   19  O2  UNL     1      21.886  10.756  21.034  1.00  0.00    -0.201 OA
BRANCH  17  20
HETATM   20  N1  UNL     1      24.379  11.356  21.568  1.00  0.00    -0.324 N 
ATOM     21  H12 UNL     1      25.291  11.222  22.003  1.00  0.00     0.169 HD
ATOM     22  H11 UNL     1      24.088  12.204  21.083  1.00  0.00     0.169 HD
ENDBRANCH  17  20
ENDBRANCH  14  17
ENDBRANCH  10  11
ENDBRANCH   9  10
ENDBRANCH   7   9
ENDBRANCH   6   7
ENDBRANCH   5   6
ENDBRANCH   4   5
ENDBRANCH   3   4
ENDBRANCH   2   3
ENDBRANCH   1   2
BRANCH   1  23
HETATM   23  N3  UNL     1      19.648   9.057  22.176  1.00  0.00    -0.394 N 
ATOM     24  H3  UNL     1      20.409   9.503  21.665  1.00  0.00     0.159 HD
BRANCH  23  25
HETATM   25  C13 UNL     1      19.010   9.643  23.284  1.00  0.00     0.158 C 
BRANCH  25  26
HETATM   26  C14 UNL     1      19.756  10.543  24.170  1.00  0.00     0.260 C 
HETATM   27  O3  UNL     1      19.479  10.373  25.418  1.00  0.00    -0.267 OA
HETATM   28  N4  UNL     1      20.687  11.497  23.739  1.00  0.00    -0.322 N 
ATOM     29  H4  UNL     1      20.831  11.538  22.731  1.00  0.00     0.169 HD
BRANCH  28  30
HETATM   30  C15 UNL     1      21.451  12.406  24.491  1.00  0.00     0.037 A 
HETATM   31  C16 UNL     1      20.828  13.571  24.980  1.00  0.00     0.029 A 
HETATM   32  C17 UNL     1      21.539  14.480  25.707  1.00  0.00     0.004 A 
HETATM   33  C18 UNL     1      22.880  14.263  25.972  1.00  0.00     0.029 A 
HETATM   34  C19 UNL     1      23.530  13.142  25.518  1.00  0.00     0.032 A 
HETATM   35  C24 UNL     1      22.778  12.229  24.775  1.00  0.00     0.058 A 
BRANCH  34  36
HETATM   36  N5  UNL     1      24.902  12.908  25.789  1.00  0.00    -0.378 N 
HETATM   37  C20 UNL     1      25.666  13.609  26.801  1.00  0.00     0.150 C 
HETATM   38  C21 UNL     1      26.790  12.737  27.345  1.00  0.00     0.252 C 
HETATM   39  N6  UNL     1      27.689  12.283  26.321  1.00  0.00    -0.072 N 
HETATM   40  C22 UNL     1      27.090  12.274  25.008  1.00  0.00     0.252 C 
ATOM     41  H62 UNL     1      28.551  12.829  26.324  1.00  0.00     0.277 HD
ATOM     42  H61 UNL     1      28.071  11.366  26.553  1.00  0.00     0.277 HD
HETATM   43  C23 UNL     1      25.622  11.911  25.022  1.00  0.00     0.150 C 
ENDBRANCH  34  36
ENDBRANCH  28  30
ENDBRANCH  25  26
ENDBRANCH  23  25
ENDBRANCH   1  23
TORSDOF 16
ENDMDL
MODEL 4
REMARK VINA RESULT: -7.403059356      3.815      8.825
REMARK  16 active torsions:
REMARK  status: ('A' for Active; 'I' for Inactive)
REMARK    1  A    between atoms: N1_1  and  S1_4 
REMARK    2  A    between atoms: S1_4  and  C1_7 
REMARK    3  A    between atoms: C4_10  and  C5_11 
REMARK    4  A    between atoms: C5_11  and  C6_12 
REMARK    5  A    between atoms: C6_12  and  N2_13 
REMARK    6  A    between atoms: N2_13  and  C7_15 
REMARK    7  A    between atoms: C7_15  and  C8_16 
REMARK    8  A    between atoms: C8_16  and  C9_17 
REMARK    9  A    between atoms: C9_17  and  C10_18 
REMARK   10  A    between atoms: C10_18  and  C11_19 
REMARK   11  A    between atoms: C11_19  and  C12_20 
REMARK   12  A    between atoms: C12_20  and  N3_21 
REMARK   13  A    between atoms: N3_21  and  C13_23 
REMARK   14  A    between atoms: C13_23  and  C14_24 
REMARK       I    between atoms: C14_24  and  N4_26 
REMARK   15  A    between atoms: N4_26  and  C15_28 
REMARK   16  A    between atoms: C19_32  and  N5_33 
ROOT
HETATM    1  C12 UNL     1      19.576   7.912  20.342  1.00  0.00     0.119 C 
ENDROOT
BRANCH   1   2
HETATM    2  C11 UNL     1      18.895   7.107  19.218  1.00  0.00     0.020 C 
BRANCH   2   3
HETATM    3  C10 UNL     1      19.967   6.270  18.580  1.00  0.00     0.002 C 
BRANCH   3   4
HETATM    4  C9  UNL     1      19.480   5.098  17.828  1.00  0.00     0.002 C 
BRANCH   4   5
HETATM    5  C8  UNL     1      20.449   4.328  17.022  1.00  0.00     0.019 C 
BRANCH   5   6
HETATM    6  C7  UNL     1      20.381   2.811  17.246  1.00  0.00     0.113 C 
BRANCH   6   7
HETATM    7  N2  UNL     1      21.565   2.200  16.732  1.00  0.00    -0.421 N 
ATOM      8  H2  UNL     1      21.800   2.255  15.741  1.00  0.00     0.153 HD
BRANCH   7   9
HETATM    9  C6  UNL     1      22.398   1.519  17.647  1.00  0.00     0.118 C 
BRANCH   9  10
HETATM   10  C5  UNL     1      23.851   1.961  17.640  1.00  0.00     0.057 C 
BRANCH  10  11
HETATM   11  C4  UNL     1      23.938   3.435  17.964  1.00  0.00    -0.057 A 
HETATM   12  C3  UNL     1      24.155   4.367  16.979  1.00  0.00     0.009 A 
HETATM   13  C2  UNL     1      24.210   5.718  17.265  1.00  0.00     0.026 A 
HETATM   14  C1  UNL     1      24.047   6.167  18.557  1.00  0.00     0.079 A 
HETATM   15  C26 UNL     1      23.830   5.207  19.542  1.00  0.00     0.026 A 
HETATM   16  C25 UNL     1      23.775   3.864  19.258  1.00  0.00     0.009 A 
BRANCH  14  17
HETATM   17  S1  UNL     1      24.110   7.881  18.938  1.00  0.00     0.256 S 
HETATM   18  O1  UNL     1      25.379   8.243  19.646  1.00  0.00    -0.201 OA
HETATM   19  O2  UNL     1      22.926   8.160  19.828  1.00  0.00    -0.201 OA
BRANCH  17  20
HETATM   20  N1  UNL     1      23.901   8.752  17.470  1.00  0.00    -0.324 N 
ATOM     21  H12 UNL     1      23.816   8.294  16.562  1.00  0.00     0.169 HD
ATOM     22  H11 UNL     1      23.874   9.761  17.613  1.00  0.00     0.169 HD
ENDBRANCH  17  20
ENDBRANCH  14  17
ENDBRANCH  10  11
ENDBRANCH   9  10
ENDBRANCH   7   9
ENDBRANCH   6   7
ENDBRANCH   5   6
ENDBRANCH   4   5
ENDBRANCH   3   4
ENDBRANCH   2   3
ENDBRANCH   1   2
BRANCH   1  23
HETATM   23  N3  UNL     1      19.407   7.311  21.622  1.00  0.00    -0.394 N 
ATOM     24  H3  UNL     1      19.132   6.338  21.753  1.00  0.00     0.159 HD
BRANCH  23  25
HETATM   25  C13 UNL     1      19.659   8.196  22.685  1.00  0.00     0.158 C 
BRANCH  25  26
HETATM   26  C14 UNL     1      20.957   8.872  22.785  1.00  0.00     0.260 C 
HETATM   27  O3  UNL     1      21.932   8.066  23.039  1.00  0.00    -0.267 OA
HETATM   28  N4  UNL     1      21.155  10.249  22.623  1.00  0.00    -0.322 N 
ATOM     29  H4  UNL     1      20.313  10.787  22.419  1.00  0.00     0.169 HD
BRANCH  28  30
HETATM   30  C15 UNL     1      22.341  10.999  22.699  1.00  0.00     0.037 A 
HETATM   31  C16 UNL     1      22.785  11.681  21.549  1.00  0.00     0.029 A 
HETATM   32  C17 UNL     1      23.936  12.414  21.582  1.00  0.00     0.004 A 
HETATM   33  C18 UNL     1      24.675  12.494  22.749  1.00  0.00     0.029 A 
HETATM   34  C19 UNL     1      24.283  11.847  23.895  1.00  0.00     0.032 A 
HETATM   35  C24 UNL     1      23.101  11.104  23.832  1.00  0.00     0.058 A 
BRANCH  34  36
HETATM   36  N5  UNL     1      25.031  11.928  25.097  1.00  0.00    -0.378 N 
HETATM   37  C20 UNL     1      26.478  11.970  25.157  1.00  0.00     0.150 C 
HETATM   38  C21 UNL     1      26.956  12.736  26.384  1.00  0.00     0.252 C 
HETATM   39  N6  UNL     1      26.459  12.185  27.614  1.00  0.00    -0.072 N 
HETATM   40  C22 UNL     1      25.250  11.416  27.439  1.00  0.00     0.252 C 
ATOM     41  H62 UNL     1      27.178  11.632  28.082  1.00  0.00     0.277 HD
ATOM     42  H61 UNL     1      26.329  12.916  28.313  1.00  0.00     0.277 HD
HETATM   43  C23 UNL     1      24.338  11.971  26.369  1.00  0.00     0.150 C 
ENDBRANCH  34  36
ENDBRANCH  28  30
ENDBRANCH  25  26
ENDBRANCH  23  25
ENDBRANCH   1  23
TORSDOF 16
ENDMDL
MODEL 5
REMARK VINA RESULT: -7.346010229      1.678      2.219
REMARK  16 active torsions:
REMARK  status: ('A' for Active; 'I' for Inactive)
REMARK    1  A    between atoms: N1_1  and  S1_4 
REMARK    2  A    between atoms: S1_4  and  C1_7 
REMARK    3  A    between atoms: C4_10  and  C5_11 
REMARK    4  A    between atoms: C5_11  and  C6_12 
REMARK    5  A    between atoms: C6_12  and  N2_13 
REMARK    6  A    between atoms: N2_13  and  C7_15 
REMARK    7  A    between atoms: C7_15  and  C8_16 
REMARK    8  A    between atoms: C8_16  and  C9_17 
REMARK    9  A    between atoms: C9_17  and  C10_18 
REMARK   10  A    between atoms: C10_18  and  C11_19 
REMARK   11  A    between atoms: C11_19  and  C12_20 
REMARK   12  A    between atoms: C12_20  and  N3_21 
REMARK   13  A    between atoms: N3_21  and  C13_23 
REMARK   14  A    between atoms: C13_23  and  C14_24 
REMARK       I    between atoms: C14_24  and  N4_26 
REMARK   15  A    between atoms: N4_26  and  C15_28 
REMARK   16  A    between atoms: C19_32  and  N5_33 
ROOT
HETATM    1  C12 UNL     1      20.024   9.909  23.989  1.00  0.00     0.119 C 
ENDROOT
BRANCH   1   2
HETATM    2  C11 UNL     1      18.566  10.148  24.427  1.00  0.00     0.020 C 
BRANCH   2   3
HETATM    3  C10 UNL     1      18.394   9.449  25.746  1.00  0.00     0.002 C 
BRANCH   3   4
HETATM    4  C9  UNL     1      17.792  10.269  26.814  1.00  0.00     0.002 C 
BRANCH   4   5
HETATM    5  C8  UNL     1      16.367  10.061  27.142  1.00  0.00     0.019 C 
BRANCH   5   6
HETATM    6  C7  UNL     1      15.985   8.591  27.364  1.00  0.00     0.113 C 
BRANCH   6   7
HETATM    7  N2  UNL     1      14.703   8.340  26.787  1.00  0.00    -0.421 N 
ATOM      8  H2  UNL     1      13.967   9.046  26.806  1.00  0.00     0.153 HD
BRANCH   7   9
HETATM    9  C6  UNL     1      14.493   7.077  26.190  1.00  0.00     0.118 C 
BRANCH   9  10
HETATM   10  C5  UNL     1      13.873   7.121  24.804  1.00  0.00     0.057 C 
BRANCH  10  11
HETATM   11  C4  UNL     1      14.964   7.177  23.759  1.00  0.00    -0.057 A 
HETATM   12  C3  UNL     1      14.692   7.561  22.468  1.00  0.00     0.009 A 
HETATM   13  C2  UNL     1      15.689   7.639  21.514  1.00  0.00     0.026 A 
HETATM   14  C1  UNL     1      16.992   7.330  21.838  1.00  0.00     0.079 A 
HETATM   15  C26 UNL     1      17.248   6.942  23.151  1.00  0.00     0.026 A 
HETATM   16  C25 UNL     1      16.257   6.865  24.099  1.00  0.00     0.009 A 
BRANCH  14  17
HETATM   17  S1  UNL     1      18.273   7.428  20.639  1.00  0.00     0.256 S 
HETATM   18  O1  UNL     1      19.179   8.593  20.892  1.00  0.00    -0.201 OA
HETATM   19  O2  UNL     1      17.592   7.584  19.304  1.00  0.00    -0.201 OA
BRANCH  17  20
HETATM   20  N1  UNL     1      19.112   5.926  20.646  1.00  0.00    -0.324 N 
ATOM     21  H12 UNL     1      19.730   5.641  21.406  1.00  0.00     0.169 HD
ATOM     22  H11 UNL     1      18.920   5.367  19.816  1.00  0.00     0.169 HD
ENDBRANCH  17  20
ENDBRANCH  14  17
ENDBRANCH  10  11
ENDBRANCH   9  10
ENDBRANCH   7   9
ENDBRANCH   6   7
ENDBRANCH   5   6
ENDBRANCH   4   5
ENDBRANCH   3   4
ENDBRANCH   2   3
ENDBRANCH   1   2
BRANCH   1  23
HETATM   23  N3  UNL     1      20.632  11.079  23.456  1.00  0.00    -0.394 N 
ATOM     24  H3  UNL     1      20.141  11.965  23.341  1.00  0.00     0.159 HD
BRANCH  23  25
HETATM   25  C13 UNL     1      21.980  10.890  23.105  1.00  0.00     0.158 C 
BRANCH  25  26
HETATM   26  C14 UNL     1      22.324  10.236  21.837  1.00  0.00     0.260 C 
HETATM   27  O3  UNL     1      22.140  10.994  20.809  1.00  0.00    -0.267 OA
HETATM   28  N4  UNL     1      22.808   8.927  21.718  1.00  0.00    -0.322 N 
ATOM     29  H4  UNL     1      22.919   8.425  22.598  1.00  0.00     0.169 HD
BRANCH  28  30
HETATM   30  C15 UNL     1      23.164   8.205  20.566  1.00  0.00     0.037 A 
HETATM   31  C16 UNL     1      24.472   8.340  20.060  1.00  0.00     0.029 A 
HETATM   32  C17 UNL     1      24.852   7.660  18.941  1.00  0.00     0.004 A 
HETATM   33  C18 UNL     1      23.955   6.830  18.294  1.00  0.00     0.029 A 
HETATM   34  C19 UNL     1      22.670   6.665  18.749  1.00  0.00     0.032 A 
HETATM   35  C24 UNL     1      22.307   7.374  19.897  1.00  0.00     0.058 A 
BRANCH  34  36
HETATM   36  N5  UNL     1      21.745   5.811  18.096  1.00  0.00    -0.378 N 
HETATM   37  C20 UNL     1      21.906   4.378  17.969  1.00  0.00     0.150 C 
HETATM   38  C21 UNL     1      20.555   3.676  17.898  1.00  0.00     0.252 C 
HETATM   39  N6  UNL     1      19.739   4.146  16.813  1.00  0.00    -0.072 N 
HETATM   40  C22 UNL     1      20.096   5.475  16.374  1.00  0.00     0.252 C 
ATOM     41  H62 UNL     1      19.756   3.488  16.033  1.00  0.00     0.277 HD
ATOM     42  H61 UNL     1      18.750   4.095  17.053  1.00  0.00     0.277 HD
HETATM   43  C23 UNL     1      20.550   6.375  17.500  1.00  0.00     0.150 C 
ENDBRANCH  34  36
ENDBRANCH  28  30
ENDBRANCH  25  26
ENDBRANCH  23  25
ENDBRANCH   1  23
TORSDOF 16
ENDMDL
