MODEL 1
REMARK VINA RESULT: -8.238387279      0.000      0.000
REMARK  16 active torsions:
REMARK  status: ('A' for Active; 'I' for Inactive)
REMARK       I    between atoms: C1_4  and  N2_5 
REMARK       I    between atoms: C1_4  and  N8_40 
REMARK    1  A    between atoms: N2_5  and  C2_7 
REMARK    2  A    between atoms: C2_7  and  C3_8 
REMARK    3  A    between atoms: C3_8  and  C4_9 
REMARK    4  A    between atoms: C4_9  and  C5_10 
REMARK    5  A    between atoms: C5_10  and  C6_11 
REMARK    6  A    between atoms: C6_11  and  C7_12 
REMARK    7  A    between atoms: C7_12  and  C8_13 
REMARK    8  A    between atoms: C8_13  and  C9_14 
REMARK       I    between atoms: C9_14  and  N3_16 
REMARK    9  A    between atoms: N4_19  and  C12_20 
REMARK   10  A    between atoms: C12_20  and  C13_21 
REMARK   11  A    between atoms: C13_21  and  C14_22 
REMARK   12  A    between atoms: C14_22  and  N5_23 
REMARK   13  A    between atoms: N5_23  and  N6_24 
REMARK   14  A    between atoms: N5_23  and  C15_27 
REMARK   15  A    between atoms: C15_27  and  C16_28 
REMARK   16  A    between atoms: N8_40  and  N9_42 
ROOT
HETATM    1  C9  UNL     1      17.799   7.682  22.830  1.00  0.00     0.219 C 
HETATM    2  O1  UNL     1      17.114   7.145  23.777  1.00  0.00    -0.273 OA
HETATM    3  N3  UNL     1      17.954   6.882  21.660  1.00  0.00    -0.349 N 
HETATM    4  C10 UNL     1      17.479   5.541  21.603  1.00  0.00     0.156 C 
HETATM    5  C11 UNL     1      17.156   5.070  20.230  1.00  0.00     0.292 C 
HETATM    6  N4  UNL     1      17.933   5.622  19.186  1.00  0.00     0.091 N 
HETATM    7  C24 UNL     1      19.106   6.388  19.630  1.00  0.00     0.292 C 
HETATM    8  C25 UNL     1      18.557   7.505  20.485  1.00  0.00     0.156 C 
ENDROOT
BRANCH   1   9
HETATM    9  C8  UNL     1      18.352   9.014  23.005  1.00  0.00     0.103 C 
BRANCH   9  10
HETATM   10  C7  UNL     1      19.573   9.137  23.812  1.00  0.00     0.009 C 
BRANCH  10  11
HETATM   11  C6  UNL     1      20.829   9.627  23.238  1.00  0.00     0.000 C 
BRANCH  11  12
HETATM   12  C5  UNL     1      21.713   8.533  22.662  1.00  0.00     0.000 C 
BRANCH  12  13
HETATM   13  C4  UNL     1      22.815   9.155  21.870  1.00  0.00     0.002 C 
BRANCH  13  14
HETATM   14  C3  UNL     1      22.337  10.202  20.920  1.00  0.00     0.020 C 
BRANCH  14  15
HETATM   15  C2  UNL     1      23.509  11.187  20.736  1.00  0.00     0.138 C 
BRANCH  15  16
HETATM   16  N2  UNL     1      23.107  12.473  21.240  1.00  0.00    -0.225 N 
HETATM   17  C1  UNL     1      23.669  12.966  22.424  1.00  0.00     0.691 C 
HETATM   18  N1  UNL     1      23.174  13.965  23.126  1.00  0.00    -0.233 N 
HETATM   19  N8  UNL     1      24.842  12.386  22.947  1.00  0.00    -0.072 N 
ATOM     20  H12 UNL     1      22.325  14.385  22.747  1.00  0.00     0.174 HD
ATOM     21  H11 UNL     1      23.584  14.323  23.989  1.00  0.00     0.174 HD
ATOM     22  H8  UNL     1      25.722  12.422  22.433  1.00  0.00     0.212 HD
ATOM     23  H2  UNL     1      22.414  13.026  20.735  1.00  0.00     0.177 HD
BRANCH  19  24
HETATM   24  N9  UNL     1      24.761  11.765  24.181  1.00  0.00    -0.024 N 
HETATM   25  O2  UNL     1      23.676  11.271  24.578  1.00  0.00    -0.516 OA
HETATM   26  O3  UNL     1      25.846  11.664  25.032  1.00  0.00    -0.516 OA
ENDBRANCH  19  24
ENDBRANCH  15  16
ENDBRANCH  14  15
ENDBRANCH  13  14
ENDBRANCH  12  13
ENDBRANCH  11  12
ENDBRANCH  10  11
ENDBRANCH   9  10
ENDBRANCH   1   9
BRANCH   6  27
HETATM   27  C12 UNL     1      18.339   4.642  18.228  1.00  0.00     0.277 C 
BRANCH  27  28
HETATM   28  C13 UNL     1      19.334   3.620  18.854  1.00  0.00     0.076 C 
BRANCH  28  29
HETATM   29  C14 UNL     1      20.034   3.018  17.701  1.00  0.00     0.084 C 
BRANCH  29  30
HETATM   30  N5  UNL     1      21.362   3.359  17.444  1.00  0.00    -0.309 N 
BRANCH  30  31
HETATM   31  N6  UNL     1      22.142   2.784  16.533  1.00  0.00    -0.343 N 
ATOM     32  H62 UNL     1      21.977   3.006  15.551  1.00  0.00     0.177 HD
ATOM     33  H61 UNL     1      23.017   2.298  16.727  1.00  0.00     0.177 HD
ENDBRANCH  30  31
BRANCH  30  34
HETATM   34  C15 UNL     1      21.987   4.202  18.446  1.00  0.00     0.188 C 
BRANCH  34  35
HETATM   35  C16 UNL     1      22.375   5.500  17.894  1.00  0.00    -0.011 A 
HETATM   36  C17 UNL     1      21.899   6.245  16.889  1.00  0.00     0.098 A 
HETATM   37  N7  UNL     1      22.521   7.448  16.894  1.00  0.00    -0.365 N 
HETATM   38  C18 UNL     1      23.420   7.543  17.891  1.00  0.00     0.043 A 
ATOM     39  H7  UNL     1      22.331   8.192  16.222  1.00  0.00     0.165 HD
HETATM   40  C19 UNL     1      24.365   8.451  18.316  1.00  0.00     0.030 A 
HETATM   41  C23 UNL     1      23.333   6.310  18.535  1.00  0.00    -0.000 A 
HETATM   42  C20 UNL     1      25.202   8.125  19.357  1.00  0.00     0.002 A 
HETATM   43  C21 UNL     1      25.113   6.886  19.996  1.00  0.00     0.001 A 
HETATM   44  C22 UNL     1      24.156   5.995  19.554  1.00  0.00     0.014 A 
ENDBRANCH  34  35
ENDBRANCH  30  34
ENDBRANCH  29  30
ENDBRANCH  28  29
ENDBRANCH  27  28
ENDBRANCH   6  27
TORSDOF 16
ENDMDL
MODEL 2
REMARK VINA RESULT: -7.967903403      1.784      2.802
REMARK  16 active torsions:
REMARK  status: ('A' for Active; 'I' for Inactive)
REMARK       I    between atoms: C1_4  and  N2_5 
REMARK       I    between atoms: C1_4  and  N8_40 
REMARK    1  A    between atoms: N2_5  and  C2_7 
REMARK    2  A    between atoms: C2_7  and  C3_8 
REMARK    3  A    between atoms: C3_8  and  C4_9 
REMARK    4  A    between atoms: C4_9  and  C5_10 
REMARK    5  A    between atoms: C5_10  and  C6_11 
REMARK    6  A    between atoms: C6_11  and  C7_12 
REMARK    7  A    between atoms: C7_12  and  C8_13 
REMARK    8  A    between atoms: C8_13  and  C9_14 
REMARK       I    between atoms: C9_14  and  N3_16 
REMARK    9  A    between atoms: N4_19  and  C12_20 
REMARK   10  A    between atoms: C12_20  and  C13_21 
REMARK   11  A    between atoms: C13_21  and  C14_22 
REMARK   12  A    between atoms: C14_22  and  N5_23 
REMARK   13  A    between atoms: N5_23  and  N6_24 
REMARK   14  A    between atoms: N5_23  and  C15_27 
REMARK   15  A    between atoms: C15_27  and  C16_28 
REMARK   16  A    between atoms: N8_40  and  N9_42 
ROOT
HETATM    1  C9  UNL     1      16.964   6.499  19.932  1.00  0.00     0.219 C 
HETATM    2  O1  UNL     1      17.346   7.545  19.288  1.00  0.00    -0.273 OA
HETATM    3  N3  UNL     1      17.718   5.316  19.677  1.00  0.00    -0.349 N 
HETATM    4  C10 UNL     1      18.743   5.282  18.689  1.00  0.00     0.156 C 
HETATM    5  C11 UNL     1      19.796   4.263  18.944  1.00  0.00     0.292 C 
HETATM    6  N4  UNL     1      19.377   3.091  19.612  1.00  0.00     0.091 N 
HETATM    7  C24 UNL     1      17.920   2.940  19.736  1.00  0.00     0.292 C 
HETATM    8  C25 UNL     1      17.454   4.148  20.512  1.00  0.00     0.156 C 
ENDROOT
BRANCH   1   9
HETATM    9  C8  UNL     1      15.833   6.584  20.839  1.00  0.00     0.103 C 
BRANCH   9  10
HETATM   10  C7  UNL     1      15.937   7.526  21.961  1.00  0.00     0.009 C 
BRANCH  10  11
HETATM   11  C6  UNL     1      17.068   7.493  22.892  1.00  0.00     0.000 C 
BRANCH  11  12
HETATM   12  C5  UNL     1      18.002   8.686  22.771  1.00  0.00     0.000 C 
BRANCH  12  13
HETATM   13  C4  UNL     1      19.416   8.205  22.747  1.00  0.00     0.002 C 
BRANCH  13  14
HETATM   14  C3  UNL     1      20.000   8.167  21.374  1.00  0.00     0.020 C 
BRANCH  14  15
HETATM   15  C2  UNL     1      21.477   8.585  21.522  1.00  0.00     0.138 C 
BRANCH  15  16
HETATM   16  N2  UNL     1      21.693   9.777  20.744  1.00  0.00    -0.225 N 
HETATM   17  C1  UNL     1      22.558  10.770  21.218  1.00  0.00     0.691 C 
HETATM   18  N1  UNL     1      22.602  12.004  20.756  1.00  0.00    -0.233 N 
HETATM   19  N8  UNL     1      23.461  10.486  22.263  1.00  0.00    -0.072 N 
ATOM     20  H12 UNL     1      21.948  12.209  20.000  1.00  0.00     0.174 HD
ATOM     21  H11 UNL     1      23.232  12.728  21.102  1.00  0.00     0.174 HD
ATOM     22  H8  UNL     1      24.205   9.799  22.143  1.00  0.00     0.212 HD
ATOM     23  H2  UNL     1      21.217   9.897  19.851  1.00  0.00     0.177 HD
BRANCH  19  24
HETATM   24  N9  UNL     1      23.305  11.171  23.455  1.00  0.00    -0.024 N 
HETATM   25  O2  UNL     1      22.261  11.834  23.679  1.00  0.00    -0.516 OA
HETATM   26  O3  UNL     1      24.274  11.170  24.441  1.00  0.00    -0.516 OA
ENDBRANCH  19  24
ENDBRANCH  15  16
ENDBRANCH  14  15
ENDBRANCH  13  14
ENDBRANCH  12  13
ENDBRANCH  11  12
ENDBRANCH  10  11
ENDBRANCH   9  10
ENDBRANCH   1   9
BRANCH   6  27
HETATM   27  C12 UNL     1      19.931   1.905  19.038  1.00  0.00     0.277 C 
BRANCH  27  28
HETATM   28  C13 UNL     1      21.343   1.602  19.622  1.00  0.00     0.076 C 
BRANCH  28  29
HETATM   29  C14 UNL     1      22.188   1.324  18.442  1.00  0.00     0.084 C 
BRANCH  29  30
HETATM   30  N5  UNL     1      23.299   2.126  18.182  1.00  0.00    -0.309 N 
BRANCH  30  31
HETATM   31  N6  UNL     1      24.377   1.752  17.499  1.00  0.00    -0.343 N 
ATOM     32  H62 UNL     1      25.223   1.528  18.022  1.00  0.00     0.177 HD
ATOM     33  H61 UNL     1      24.387   1.473  16.518  1.00  0.00     0.177 HD
ENDBRANCH  30  31
BRANCH  30  34
HETATM   34  C15 UNL     1      23.375   3.347  18.964  1.00  0.00     0.188 C 
BRANCH  34  35
HETATM   35  C16 UNL     1      23.452   4.531  18.111  1.00  0.00    -0.011 A 
HETATM   36  C17 UNL     1      23.094   4.770  16.844  1.00  0.00     0.098 A 
HETATM   37  N7  UNL     1      23.236   6.092  16.582  1.00  0.00    -0.365 N 
HETATM   38  C18 UNL     1      23.685   6.768  17.654  1.00  0.00     0.043 A 
ATOM     39  H7  UNL     1      23.026   6.521  15.680  1.00  0.00     0.165 HD
HETATM   40  C19 UNL     1      24.080   8.057  17.943  1.00  0.00     0.030 A 
HETATM   41  C23 UNL     1      23.824   5.786  18.633  1.00  0.00    -0.000 A 
HETATM   42  C20 UNL     1      24.605   8.346  19.180  1.00  0.00     0.002 A 
HETATM   43  C21 UNL     1      24.745   7.357  20.156  1.00  0.00     0.001 A 
HETATM   44  C22 UNL     1      24.338   6.075  19.844  1.00  0.00     0.014 A 
ENDBRANCH  34  35
ENDBRANCH  30  34
ENDBRANCH  29  30
ENDBRANCH  28  29
ENDBRANCH  27  28
ENDBRANCH   6  27
TORSDOF 16
ENDMDL
MODEL 3
REMARK VINA RESULT: -7.894674262      3.175      8.840
REMARK  16 active torsions:
REMARK  status: ('A' for Active; 'I' for Inactive)
REMARK       I    between atoms: C1_4  and  N2_5 
REMARK       I    between atoms: C1_4  and  N8_40 
REMARK    1  A    between atoms: N2_5  and  C2_7 
REMARK    2  A    between atoms: C2_7  and  C3_8 
REMARK    3  A    between atoms: C3_8  and  C4_9 
REMARK    4  A    between atoms: C4_9  and  C5_10 
REMARK    5  A    between atoms: C5_10  and  C6_11 
REMARK    6  A    between atoms: C6_11  and  C7_12 
REMARK    7  A    between atoms: C7_12  and  C8_13 
REMARK    8  A    between atoms: C8_13  and  C9_14 
REMARK       I    between atoms: C9_14  and  N3_16 
REMARK    9  A    between atoms: N4_19  and  C12_20 
REMARK   10  A    between atoms: C12_20  and  C13_21 
REMARK   11  A    between atoms: C13_21  and  C14_22 
REMARK   12  A    between atoms: C14_22  and  N5_23 
REMARK   13  A    between atoms: N5_23  and  N6_24 
REMARK   14  A    between atoms: N5_23  and  C15_27 
REMARK   15  A    between atoms: C15_27  and  C16_28 
REMARK   16  A    between atoms: N8_40  and  N9_42 
ROOT
HETATM    1  C9  UNL     1      23.868   4.031  18.871  1.00  0.00     0.219 C 
HETATM    2  O1  UNL     1      23.886   3.404  19.994  1.00  0.00    -0.273 OA
HETATM    3  N3  UNL     1      23.953   5.451  18.964  1.00  0.00    -0.349 N 
HETATM    4  C10 UNL     1      23.939   6.120  20.221  1.00  0.00     0.156 C 
HETATM    5  C11 UNL     1      24.621   7.442  20.212  1.00  0.00     0.292 C 
HETATM    6  N4  UNL     1      24.569   8.159  18.995  1.00  0.00     0.091 N 
HETATM    7  C24 UNL     1      23.641   7.609  17.996  1.00  0.00     0.292 C 
HETATM    8  C25 UNL     1      24.125   6.205  17.726  1.00  0.00     0.156 C 
ENDROOT
BRANCH   1   9
HETATM    9  C8  UNL     1      23.764   3.284  17.630  1.00  0.00     0.103 C 
BRANCH   9  10
HETATM   10  C7  UNL     1      23.494   1.845  17.728  1.00  0.00     0.009 C 
BRANCH  10  11
HETATM   11  C6  UNL     1      22.193   1.278  17.361  1.00  0.00     0.000 C 
BRANCH  11  12
HETATM   12  C5  UNL     1      21.352   0.843  18.550  1.00  0.00     0.000 C 
BRANCH  12  13
HETATM   13  C4  UNL     1      20.602   2.021  19.081  1.00  0.00     0.002 C 
BRANCH  13  14
HETATM   14  C3  UNL     1      20.090   2.922  18.008  1.00  0.00     0.020 C 
BRANCH  14  15
HETATM   15  C2  UNL     1      20.189   4.357  18.567  1.00  0.00     0.138 C 
BRANCH  15  16
HETATM   16  N2  UNL     1      20.190   5.277  17.461  1.00  0.00    -0.225 N 
HETATM   17  C1  UNL     1      20.068   6.652  17.698  1.00  0.00     0.691 C 
HETATM   18  N1  UNL     1      19.760   7.543  16.778  1.00  0.00    -0.233 N 
HETATM   19  N8  UNL     1      20.274   7.169  18.993  1.00  0.00    -0.072 N 
ATOM     20  H12 UNL     1      19.611   7.168  15.840  1.00  0.00     0.174 HD
ATOM     21  H11 UNL     1      19.671   8.544  16.951  1.00  0.00     0.174 HD
ATOM     22  H8  UNL     1      21.184   7.102  19.448  1.00  0.00     0.212 HD
ATOM     23  H2  UNL     1      20.278   4.929  16.506  1.00  0.00     0.177 HD
BRANCH  19  24
HETATM   24  N9  UNL     1      19.202   7.773  19.626  1.00  0.00    -0.024 N 
HETATM   25  O2  UNL     1      18.028   7.576  19.221  1.00  0.00    -0.516 OA
HETATM   26  O3  UNL     1      19.360   8.616  20.710  1.00  0.00    -0.516 OA
ENDBRANCH  19  24
ENDBRANCH  15  16
ENDBRANCH  14  15
ENDBRANCH  13  14
ENDBRANCH  12  13
ENDBRANCH  11  12
ENDBRANCH  10  11
ENDBRANCH   9  10
ENDBRANCH   1   9
BRANCH   6  27
HETATM   27  C12 UNL     1      24.293   9.547  19.188  1.00  0.00     0.277 C 
BRANCH  27  28
HETATM   28  C13 UNL     1      23.907   9.845  20.667  1.00  0.00     0.076 C 
BRANCH  28  29
HETATM   29  C14 UNL     1      23.274  11.180  20.632  1.00  0.00     0.084 C 
BRANCH  29  30
HETATM   30  N5  UNL     1      22.815  11.759  21.814  1.00  0.00    -0.309 N 
BRANCH  30  31
HETATM   31  N6  UNL     1      21.601  11.595  22.331  1.00  0.00    -0.343 N 
ATOM     32  H62 UNL     1      20.883  11.169  21.746  1.00  0.00     0.177 HD
ATOM     33  H61 UNL     1      21.366  11.669  23.321  1.00  0.00     0.177 HD
ENDBRANCH  30  31
BRANCH  30  34
HETATM   34  C15 UNL     1      23.643  12.830  22.339  1.00  0.00     0.188 C 
BRANCH  34  35
HETATM   35  C16 UNL     1      23.985  12.609  23.743  1.00  0.00    -0.011 A 
HETATM   36  C17 UNL     1      24.930  11.883  24.351  1.00  0.00     0.098 A 
HETATM   37  N7  UNL     1      24.914  12.152  25.679  1.00  0.00    -0.365 N 
HETATM   38  C18 UNL     1      23.969  13.056  25.994  1.00  0.00     0.043 A 
ATOM     39  H7  UNL     1      25.542  11.720  26.357  1.00  0.00     0.165 HD
HETATM   40  C19 UNL     1      23.456  13.623  27.141  1.00  0.00     0.030 A 
HETATM   41  C23 UNL     1      23.374  13.356  24.771  1.00  0.00    -0.000 A 
HETATM   42  C20 UNL     1      22.371  14.463  27.058  1.00  0.00     0.002 A 
HETATM   43  C21 UNL     1      21.776  14.757  25.829  1.00  0.00     0.001 A 
HETATM   44  C22 UNL     1      22.311  14.180  24.694  1.00  0.00     0.014 A 
ENDBRANCH  34  35
ENDBRANCH  30  34
ENDBRANCH  29  30
ENDBRANCH  28  29
ENDBRANCH  27  28
ENDBRANCH   6  27
TORSDOF 16
ENDMDL
MODEL 4
REMARK VINA RESULT: -7.670286889      3.046      6.499
REMARK  16 active torsions:
REMARK  status: ('A' for Active; 'I' for Inactive)
REMARK       I    between atoms: C1_4  and  N2_5 
REMARK       I    between atoms: C1_4  and  N8_40 
REMARK    1  A    between atoms: N2_5  and  C2_7 
REMARK    2  A    between atoms: C2_7  and  C3_8 
REMARK    3  A    between atoms: C3_8  and  C4_9 
REMARK    4  A    between atoms: C4_9  and  C5_10 
REMARK    5  A    between atoms: C5_10  and  C6_11 
REMARK    6  A    between atoms: C6_11  and  C7_12 
REMARK    7  A    between atoms: C7_12  and  C8_13 
REMARK    8  A    between atoms: C8_13  and  C9_14 
REMARK       I    between atoms: C9_14  and  N3_16 
REMARK    9  A    between atoms: N4_19  and  C12_20 
REMARK   10  A    between atoms: C12_20  and  C13_21 
REMARK   11  A    between atoms: C13_21  and  C14_22 
REMARK   12  A    between atoms: C14_22  and  N5_23 
REMARK   13  A    between atoms: N5_23  and  N6_24 
REMARK   14  A    between atoms: N5_23  and  C15_27 
REMARK   15  A    between atoms: C15_27  and  C16_28 
REMARK   16  A    between atoms: N8_40  and  N9_42 
ROOT
HETATM    1  C9  UNL     1      17.509   7.755  23.524  1.00  0.00     0.219 C 
HETATM    2  O1  UNL     1      17.283   8.273  24.680  1.00  0.00    -0.273 OA
HETATM    3  N3  UNL     1      18.735   8.145  22.910  1.00  0.00    -0.349 N 
HETATM    4  C10 UNL     1      19.582   9.130  23.492  1.00  0.00     0.156 C 
HETATM    5  C11 UNL     1      21.015   8.993  23.117  1.00  0.00     0.292 C 
HETATM    6  N4  UNL     1      21.273   8.466  21.831  1.00  0.00     0.091 N 
HETATM    7  C24 UNL     1      20.093   8.361  20.961  1.00  0.00     0.292 C 
HETATM    8  C25 UNL     1      19.135   7.451  21.689  1.00  0.00     0.156 C 
ENDROOT
BRANCH   1   9
HETATM    9  C8  UNL     1      16.540   6.844  22.941  1.00  0.00     0.103 C 
BRANCH   9  10
HETATM   10  C7  UNL     1      15.300   7.426  22.410  1.00  0.00     0.009 C 
BRANCH  10  11
HETATM   11  C6  UNL     1      15.220   7.954  21.046  1.00  0.00     0.000 C 
BRANCH  11  12
HETATM   12  C5  UNL     1      15.920   7.094  20.008  1.00  0.00     0.000 C 
BRANCH  12  13
HETATM   13  C4  UNL     1      15.058   5.919  19.678  1.00  0.00     0.002 C 
BRANCH  13  14
HETATM   14  C3  UNL     1      15.725   4.938  18.773  1.00  0.00     0.020 C 
BRANCH  14  15
HETATM   15  C2  UNL     1      17.139   4.714  19.346  1.00  0.00     0.138 C 
BRANCH  15  16
HETATM   16  N2  UNL     1      17.880   3.893  18.426  1.00  0.00    -0.225 N 
HETATM   17  C1  UNL     1      19.130   4.320  17.961  1.00  0.00     0.691 C 
HETATM   18  N1  UNL     1      19.749   3.815  16.914  1.00  0.00    -0.233 N 
HETATM   19  N8  UNL     1      19.814   5.361  18.620  1.00  0.00    -0.072 N 
ATOM     20  H12 UNL     1      19.254   3.060  16.437  1.00  0.00     0.174 HD
ATOM     21  H11 UNL     1      20.660   4.126  16.575  1.00  0.00     0.174 HD
ATOM     22  H8  UNL     1      20.131   5.256  19.583  1.00  0.00     0.212 HD
ATOM     23  H2  UNL     1      17.495   3.002  18.112  1.00  0.00     0.177 HD
BRANCH  19  24
HETATM   24  N9  UNL     1      20.042   6.531  17.917  1.00  0.00    -0.024 N 
HETATM   25  O2  UNL     1      21.111   6.694  17.278  1.00  0.00    -0.516 OA
HETATM   26  O3  UNL     1      19.128   7.568  17.888  1.00  0.00    -0.516 OA
ENDBRANCH  19  24
ENDBRANCH  15  16
ENDBRANCH  14  15
ENDBRANCH  13  14
ENDBRANCH  12  13
ENDBRANCH  11  12
ENDBRANCH  10  11
ENDBRANCH   9  10
ENDBRANCH   1   9
BRANCH   6  27
HETATM   27  C12 UNL     1      22.309   9.173  21.146  1.00  0.00     0.277 C 
BRANCH  27  28
HETATM   28  C13 UNL     1      23.492   8.228  20.782  1.00  0.00     0.076 C 
BRANCH  28  29
HETATM   29  C14 UNL     1      24.165   8.886  19.643  1.00  0.00     0.084 C 
BRANCH  29  30
HETATM   30  N5  UNL     1      24.274   8.218  18.424  1.00  0.00    -0.309 N 
BRANCH  30  31
HETATM   31  N6  UNL     1      23.527   8.451  17.349  1.00  0.00    -0.343 N 
ATOM     32  H62 UNL     1      23.998   8.575  16.453  1.00  0.00     0.177 HD
ATOM     33  H61 UNL     1      22.516   8.323  17.293  1.00  0.00     0.177 HD
ENDBRANCH  30  31
BRANCH  30  34
HETATM   34  C15 UNL     1      25.068   7.004  18.454  1.00  0.00     0.188 C 
BRANCH  34  35
HETATM   35  C16 UNL     1      24.462   5.941  17.654  1.00  0.00    -0.011 A 
HETATM   36  C17 UNL     1      24.325   5.754  16.336  1.00  0.00     0.098 A 
HETATM   37  N7  UNL     1      23.824   4.516  16.111  1.00  0.00    -0.365 N 
HETATM   38  C18 UNL     1      23.614   3.846  17.258  1.00  0.00     0.043 A 
ATOM     39  H7  UNL     1      23.628   4.138  15.183  1.00  0.00     0.165 HD
HETATM   40  C19 UNL     1      23.066   2.640  17.638  1.00  0.00     0.030 A 
HETATM   41  C23 UNL     1      24.019   4.742  18.246  1.00  0.00    -0.000 A 
HETATM   42  C20 UNL     1      22.924   2.347  18.974  1.00  0.00     0.002 A 
HETATM   43  C21 UNL     1      23.329   3.251  19.959  1.00  0.00     0.001 A 
HETATM   44  C22 UNL     1      23.878   4.450  19.553  1.00  0.00     0.014 A 
ENDBRANCH  34  35
ENDBRANCH  30  34
ENDBRANCH  29  30
ENDBRANCH  28  29
ENDBRANCH  27  28
ENDBRANCH   6  27
TORSDOF 16
ENDMDL
MODEL 5
REMARK VINA RESULT: -7.641781600      4.655     10.595
REMARK  16 active torsions:
REMARK  status: ('A' for Active; 'I' for Inactive)
REMARK       I    between atoms: C1_4  and  N2_5 
REMARK       I    between atoms: C1_4  and  N8_40 
REMARK    1  A    between atoms: N2_5  and  C2_7 
REMARK    2  A    between atoms: C2_7  and  C3_8 
REMARK    3  A    between atoms: C3_8  and  C4_9 
REMARK    4  A    between atoms: C4_9  and  C5_10 
REMARK    5  A    between atoms: C5_10  and  C6_11 
REMARK    6  A    between atoms: C6_11  and  C7_12 
REMARK    7  A    between atoms: C7_12  and  C8_13 
REMARK    8  A    between atoms: C8_13  and  C9_14 
REMARK       I    between atoms: C9_14  and  N3_16 
REMARK    9  A    between atoms: N4_19  and  C12_20 
REMARK   10  A    between atoms: C12_20  and  C13_21 
REMARK   11  A    between atoms: C13_21  and  C14_22 
REMARK   12  A    between atoms: C14_22  and  N5_23 
REMARK   13  A    between atoms: N5_23  and  N6_24 
REMARK   14  A    between atoms: N5_23  and  C15_27 
REMARK   15  A    between atoms: C15_27  and  C16_28 
REMARK   16  A    between atoms: N8_40  and  N9_42 
ROOT
HETATM    1  C9  UNL     1      22.586  10.544  21.274  1.00  0.00     0.219 C 
HETATM    2  O1  UNL     1      21.484   9.881  21.277  1.00  0.00    -0.273 OA
HETATM    3  N3  UNL     1      22.837  11.317  22.445  1.00  0.00    -0.349 N 
HETATM    4  C10 UNL     1      21.872  11.431  23.486  1.00  0.00     0.156 C 
HETATM    5  C11 UNL     1      22.455  11.716  24.824  1.00  0.00     0.292 C 
HETATM    6  N4  UNL     1      23.643  12.481  24.834  1.00  0.00     0.091 N 
HETATM    7  C24 UNL     1      23.993  13.092  23.543  1.00  0.00     0.292 C 
HETATM    8  C25 UNL     1      24.150  11.939  22.581  1.00  0.00     0.156 C 
ENDROOT
BRANCH   1   9
HETATM    9  C8  UNL     1      23.469  10.468  20.123  1.00  0.00     0.103 C 
BRANCH   9  10
HETATM   10  C7  UNL     1      24.340   9.291  20.017  1.00  0.00     0.009 C 
BRANCH  10  11
HETATM   11  C6  UNL     1      23.930   7.981  20.529  1.00  0.00     0.000 C 
BRANCH  11  12
HETATM   12  C5  UNL     1      24.730   6.819  19.964  1.00  0.00     0.000 C 
BRANCH  12  13
HETATM   13  C4  UNL     1      23.823   5.935  19.171  1.00  0.00     0.002 C 
BRANCH  13  14
HETATM   14  C3  UNL     1      24.003   6.081  17.697  1.00  0.00     0.020 C 
BRANCH  14  15
HETATM   15  C2  UNL     1      22.945   7.102  17.232  1.00  0.00     0.138 C 
BRANCH  15  16
HETATM   16  N2  UNL     1      22.095   6.467  16.261  1.00  0.00    -0.225 N 
HETATM   17  C1  UNL     1      20.705   6.493  16.428  1.00  0.00     0.691 C 
HETATM   18  N1  UNL     1      19.861   5.710  15.787  1.00  0.00    -0.233 N 
HETATM   19  N8  UNL     1      20.116   7.396  17.336  1.00  0.00    -0.072 N 
ATOM     20  H12 UNL     1      20.288   5.056  15.129  1.00  0.00     0.174 HD
ATOM     21  H11 UNL     1      18.849   5.728  15.909  1.00  0.00     0.174 HD
ATOM     22  H8  UNL     1      20.187   8.403  17.198  1.00  0.00     0.212 HD
ATOM     23  H2  UNL     1      22.503   5.999  15.452  1.00  0.00     0.177 HD
BRANCH  19  24
HETATM   24  N9  UNL     1      19.438   6.871  18.423  1.00  0.00    -0.024 N 
HETATM   25  O2  UNL     1      19.843   5.820  18.981  1.00  0.00    -0.516 OA
HETATM   26  O3  UNL     1      18.297   7.456  18.937  1.00  0.00    -0.516 OA
ENDBRANCH  19  24
ENDBRANCH  15  16
ENDBRANCH  14  15
ENDBRANCH  13  14
ENDBRANCH  12  13
ENDBRANCH  11  12
ENDBRANCH  10  11
ENDBRANCH   9  10
ENDBRANCH   1   9
BRANCH   6  27
HETATM   27  C12 UNL     1      23.641  13.485  25.850  1.00  0.00     0.277 C 
BRANCH  27  28
HETATM   28  C13 UNL     1      25.090  13.917  26.221  1.00  0.00     0.076 C 
BRANCH  28  29
HETATM   29  C14 UNL     1      25.887  12.674  26.145  1.00  0.00     0.084 C 
BRANCH  29  30
HETATM   30  N5  UNL     1      27.060  12.650  25.392  1.00  0.00    -0.309 N 
BRANCH  30  31
HETATM   31  N6  UNL     1      27.750  11.557  25.077  1.00  0.00    -0.343 N 
ATOM     32  H62 UNL     1      27.741  11.247  24.105  1.00  0.00     0.177 HD
ATOM     33  H61 UNL     1      28.450  11.110  25.668  1.00  0.00     0.177 HD
ENDBRANCH  30  31
BRANCH  30  34
HETATM   34  C15 UNL     1      27.695  13.940  25.198  1.00  0.00     0.188 C 
BRANCH  34  35
HETATM   35  C16 UNL     1      28.853  14.110  26.074  1.00  0.00    -0.011 A 
HETATM   36  C17 UNL     1      30.107  13.646  26.031  1.00  0.00     0.098 A 
HETATM   37  N7  UNL     1      30.835  14.235  27.010  1.00  0.00    -0.365 N 
HETATM   38  C18 UNL     1      30.097  15.103  27.727  1.00  0.00     0.043 A 
ATOM     39  H7  UNL     1      31.822  14.045  27.183  1.00  0.00     0.165 HD
HETATM   40  C19 UNL     1      30.267  15.891  28.845  1.00  0.00     0.030 A 
HETATM   41  C23 UNL     1      28.836  15.033  27.138  1.00  0.00    -0.000 A 
HETATM   42  C20 UNL     1      29.197  16.584  29.358  1.00  0.00     0.002 A 
HETATM   43  C21 UNL     1      27.934  16.507  28.766  1.00  0.00     0.001 A 
HETATM   44  C22 UNL     1      27.790  15.714  27.645  1.00  0.00     0.014 A 
ENDBRANCH  34  35
ENDBRANCH  30  34
ENDBRANCH  29  30
ENDBRANCH  28  29
ENDBRANCH  27  28
ENDBRANCH   6  27
TORSDOF 16
ENDMDL
