MODEL 1
REMARK VINA RESULT: -8.959826823      0.000      0.000
REMARK  18 active torsions:
REMARK  status: ('A' for Active; 'I' for Inactive)
REMARK    1  A    between atoms: N1_2  and  C3_4 
REMARK    2  A    between atoms: N2_12  and  C10_13 
REMARK    3  A    between atoms: C10_13  and  C11_14 
REMARK    4  A    between atoms: C11_14  and  C12_15 
REMARK    5  A    between atoms: C17_23  and  C18_24 
REMARK    6  A    between atoms: C18_24  and  C19_25 
REMARK    7  A    between atoms: C19_25  and  C20_26 
REMARK       I    between atoms: C20_26  and  N4_28 
REMARK    8  A    between atoms: N4_28  and  C21_30 
REMARK    9  A    between atoms: C21_30  and  C22_31 
REMARK   10  A    between atoms: C22_31  and  C23_32 
REMARK   11  A    between atoms: C23_32  and  C24_33 
REMARK   12  A    between atoms: C24_33  and  C25_34 
REMARK   13  A    between atoms: C25_34  and  C26_35 
REMARK   14  A    between atoms: C26_35  and  N5_36 
REMARK       I    between atoms: N5_36  and  C27_38 
REMARK   15  A    between atoms: C27_38  and  C28_40 
REMARK   16  A    between atoms: C28_40  and  C29_41 
REMARK   17  A    between atoms: C32_44  and  C33_45 
REMARK   18  A    between atoms: C33_45  and  O4_46 
ROOT
HETATM    1  C3  UNL     1      18.148  10.635  26.789  1.00  0.00     0.030 A 
HETATM    2  C4  UNL     1      17.884  10.496  25.419  1.00  0.00     0.031 A 
HETATM    3  C5  UNL     1      18.744  11.039  24.488  1.00  0.00     0.032 A 
HETATM    4  C6  UNL     1      19.871  11.724  24.907  1.00  0.00     0.045 A 
HETATM    5  C7  UNL     1      20.155  11.876  26.254  1.00  0.00     0.060 A 
HETATM    6  C8  UNL     1      19.280  11.324  27.161  1.00  0.00     0.048 A 
HETATM    7  C9  UNL     1      21.350  12.618  26.604  1.00  0.00     0.257 C 
HETATM    8  O1  UNL     1      21.643  12.777  27.837  1.00  0.00    -0.267 OA
HETATM    9  N2  UNL     1      22.221  13.186  25.632  1.00  0.00    -0.327 N 
HETATM   10  C17 UNL     1      22.033  12.906  24.247  1.00  0.00     0.187 C 
HETATM   11  N6  UNL     1      20.741  12.275  23.966  1.00  0.00    -0.368 N 
ATOM     12  H6  UNL     1      20.450  12.235  22.989  1.00  0.00     0.161 HD
ENDROOT
BRANCH  10  13
HETATM   13  C18 UNL     1      23.063  12.102  23.558  1.00  0.00     0.056 C 
BRANCH  13  14
HETATM   14  C19 UNL     1      23.555  12.585  22.242  1.00  0.00     0.106 C 
BRANCH  14  15
HETATM   15  C20 UNL     1      23.176  11.517  21.240  1.00  0.00     0.217 C 
HETATM   16  O2  UNL     1      21.967  11.365  20.899  1.00  0.00    -0.274 OA
HETATM   17  N4  UNL     1      24.174  10.691  20.685  1.00  0.00    -0.361 N 
ATOM     18  H4  UNL     1      25.146  10.820  20.966  1.00  0.00     0.162 HD
BRANCH  17  19
HETATM   19  C21 UNL     1      23.846   9.679  19.738  1.00  0.00     0.122 C 
BRANCH  19  20
HETATM   20  C22 UNL     1      23.998   8.258  20.234  1.00  0.00     0.020 C 
BRANCH  20  21
HETATM   21  C23 UNL     1      25.022   7.516  19.443  1.00  0.00     0.002 C 
BRANCH  21  22
HETATM   22  C24 UNL     1      24.784   7.587  17.930  1.00  0.00     0.005 C 
BRANCH  22  23
HETATM   23  C25 UNL     1      24.744   6.260  17.306  1.00  0.00     0.044 C 
BRANCH  23  24
HETATM   24  C26 UNL     1      23.449   5.673  16.929  1.00  0.00     0.064 C 
BRANCH  24  25
HETATM   25  N5  UNL     1      22.220   6.288  17.170  1.00  0.00    -0.341 N 
HETATM   26  C27 UNL     1      21.194   5.914  18.044  1.00  0.00     0.227 C 
HETATM   27  O3  UNL     1      21.250   4.905  18.756  1.00  0.00    -0.273 OA
ATOM     28  H5  UNL     1      22.045   7.135  16.631  1.00  0.00     0.167 HD
BRANCH  26  29
HETATM   29  C28 UNL     1      19.932   6.726  18.178  1.00  0.00     0.168 C 
BRANCH  29  30
HETATM   30  C29 UNL     1      19.750   7.185  19.571  1.00  0.00     0.062 A 
HETATM   31  C30 UNL     1      18.581   7.001  20.306  1.00  0.00     0.036 A 
HETATM   32  C31 UNL     1      18.819   7.567  21.540  1.00  0.00     0.037 A 
HETATM   33  C32 UNL     1      20.080   8.062  21.524  1.00  0.00     0.076 A 
HETATM   34  O5  UNL     1      20.602   7.823  20.359  1.00  0.00    -0.317 OA
BRANCH  33  35
HETATM   35  C33 UNL     1      20.739   8.767  22.682  1.00  0.00     0.229 C 
BRANCH  35  36
HETATM   36  O4  UNL     1      21.982   8.204  22.915  1.00  0.00    -0.394 OA
ATOM     37  H4  UNL     1      22.223   8.338  23.824  1.00  0.00     0.209 HD
ENDBRANCH  35  36
ENDBRANCH  33  35
ENDBRANCH  29  30
ENDBRANCH  26  29
ENDBRANCH  24  25
ENDBRANCH  23  24
ENDBRANCH  22  23
ENDBRANCH  21  22
ENDBRANCH  20  21
ENDBRANCH  19  20
ENDBRANCH  17  19
ENDBRANCH  14  15
ENDBRANCH  13  14
ENDBRANCH  10  13
BRANCH   9  38
HETATM   38  C10 UNL     1      23.282  14.086  26.020  1.00  0.00     0.129 C 
BRANCH  38  39
HETATM   39  C11 UNL     1      24.424  13.464  26.742  1.00  0.00     0.024 C 
BRANCH  39  40
HETATM   40  C12 UNL     1      25.697  13.478  25.899  1.00  0.00    -0.010 C 
HETATM   41  C13 UNL     1      26.785  14.278  26.579  1.00  0.00     0.032 C 
HETATM   42  C14 UNL     1      27.957  14.354  25.630  1.00  0.00     0.232 C 
HETATM   43  N3  UNL     1      28.420  13.004  25.361  1.00  0.00    -0.075 N 
HETATM   44  C15 UNL     1      27.402  12.239  24.671  1.00  0.00     0.232 C 
ATOM     45  H32 UNL     1      29.304  13.002  24.851  1.00  0.00     0.277 HD
ATOM     46  H31 UNL     1      28.732  12.535  26.211  1.00  0.00     0.277 HD
HETATM   47  C16 UNL     1      26.181  12.087  25.574  1.00  0.00     0.032 C 
ENDBRANCH  39  40
ENDBRANCH  38  39
ENDBRANCH   9  38
BRANCH   1  48
HETATM   48  N1  UNL     1      17.227  10.062  27.684  1.00  0.00    -0.390 N 
HETATM   49  C1  UNL     1      15.977   9.551  27.194  1.00  0.00     0.149 C 
HETATM   50  C2  UNL     1      17.529   9.991  29.086  1.00  0.00     0.149 C 
ENDBRANCH   1  48
TORSDOF 18
ENDMDL
MODEL 2
REMARK VINA RESULT: -8.817763169      3.189      6.409
REMARK  18 active torsions:
REMARK  status: ('A' for Active; 'I' for Inactive)
REMARK    1  A    between atoms: N1_2  and  C3_4 
REMARK    2  A    between atoms: N2_12  and  C10_13 
REMARK    3  A    between atoms: C10_13  and  C11_14 
REMARK    4  A    between atoms: C11_14  and  C12_15 
REMARK    5  A    between atoms: C17_23  and  C18_24 
REMARK    6  A    between atoms: C18_24  and  C19_25 
REMARK    7  A    between atoms: C19_25  and  C20_26 
REMARK       I    between atoms: C20_26  and  N4_28 
REMARK    8  A    between atoms: N4_28  and  C21_30 
REMARK    9  A    between atoms: C21_30  and  C22_31 
REMARK   10  A    between atoms: C22_31  and  C23_32 
REMARK   11  A    between atoms: C23_32  and  C24_33 
REMARK   12  A    between atoms: C24_33  and  C25_34 
REMARK   13  A    between atoms: C25_34  and  C26_35 
REMARK   14  A    between atoms: C26_35  and  N5_36 
REMARK       I    between atoms: N5_36  and  C27_38 
REMARK   15  A    between atoms: C27_38  and  C28_40 
REMARK   16  A    between atoms: C28_40  and  C29_41 
REMARK   17  A    between atoms: C32_44  and  C33_45 
REMARK   18  A    between atoms: C33_45  and  O4_46 
ROOT
HETATM    1  C3  UNL     1      13.138   6.082  24.704  1.00  0.00     0.030 A 
HETATM    2  C4  UNL     1      12.830   6.189  23.341  1.00  0.00     0.031 A 
HETATM    3  C5  UNL     1      13.735   6.755  22.468  1.00  0.00     0.032 A 
HETATM    4  C6  UNL     1      14.951   7.220  22.941  1.00  0.00     0.045 A 
HETATM    5  C7  UNL     1      15.279   7.125  24.283  1.00  0.00     0.060 A 
HETATM    6  C8  UNL     1      14.357   6.555  25.131  1.00  0.00     0.048 A 
HETATM    7  C9  UNL     1      16.568   7.647  24.692  1.00  0.00     0.257 C 
HETATM    8  O1  UNL     1      16.903   7.576  25.923  1.00  0.00    -0.267 OA
HETATM    9  N2  UNL     1      17.486   8.242  23.783  1.00  0.00    -0.327 N 
HETATM   10  C17 UNL     1      17.235   8.205  22.380  1.00  0.00     0.187 C 
HETATM   11  N6  UNL     1      15.866   7.794  22.059  1.00  0.00    -0.368 N 
ATOM     12  H6  UNL     1      15.553   7.942  21.099  1.00  0.00     0.161 HD
ENDROOT
BRANCH  10  13
HETATM   13  C18 UNL     1      18.138   7.393  21.538  1.00  0.00     0.056 C 
BRANCH  13  14
HETATM   14  C19 UNL     1      19.266   8.084  20.863  1.00  0.00     0.106 C 
BRANCH  14  15
HETATM   15  C20 UNL     1      19.486   7.346  19.561  1.00  0.00     0.217 C 
HETATM   16  O2  UNL     1      18.616   7.399  18.645  1.00  0.00    -0.274 OA
HETATM   17  N4  UNL     1      20.665   6.598  19.370  1.00  0.00    -0.361 N 
ATOM     18  H4  UNL     1      21.362   6.559  20.114  1.00  0.00     0.162 HD
BRANCH  17  19
HETATM   19  C21 UNL     1      20.900   5.895  18.153  1.00  0.00     0.122 C 
BRANCH  19  20
HETATM   20  C22 UNL     1      21.895   6.544  17.216  1.00  0.00     0.020 C 
BRANCH  20  21
HETATM   21  C23 UNL     1      23.133   5.721  17.088  1.00  0.00     0.002 C 
BRANCH  21  22
HETATM   22  C24 UNL     1      24.090   5.883  18.276  1.00  0.00     0.005 C 
BRANCH  22  23
HETATM   23  C25 UNL     1      24.774   7.180  18.271  1.00  0.00     0.044 C 
BRANCH  23  24
HETATM   24  C26 UNL     1      25.005   7.883  19.543  1.00  0.00     0.064 C 
BRANCH  24  25
HETATM   25  N5  UNL     1      24.162   8.875  20.044  1.00  0.00    -0.341 N 
HETATM   26  C27 UNL     1      23.097   8.768  20.943  1.00  0.00     0.227 C 
HETATM   27  O3  UNL     1      22.735   7.692  21.433  1.00  0.00    -0.273 OA
ATOM     28  H5  UNL     1      24.350   9.818  19.704  1.00  0.00     0.167 HD
BRANCH  26  29
HETATM   29  C28 UNL     1      22.304   9.971  21.382  1.00  0.00     0.168 C 
BRANCH  29  30
HETATM   30  C29 UNL     1      23.112  10.837  22.266  1.00  0.00     0.062 A 
HETATM   31  C30 UNL     1      23.676  12.048  21.870  1.00  0.00     0.036 A 
HETATM   32  C31 UNL     1      24.341  12.534  22.974  1.00  0.00     0.037 A 
HETATM   33  C32 UNL     1      24.172  11.638  23.976  1.00  0.00     0.076 A 
HETATM   34  O5  UNL     1      23.448  10.656  23.535  1.00  0.00    -0.317 OA
BRANCH  33  35
HETATM   35  C33 UNL     1      24.742  11.788  25.364  1.00  0.00     0.229 C 
BRANCH  35  36
HETATM   36  O4  UNL     1      23.715  11.734  26.291  1.00  0.00    -0.394 OA
ATOM     37  H4  UNL     1      23.163  12.501  26.194  1.00  0.00     0.209 HD
ENDBRANCH  35  36
ENDBRANCH  33  35
ENDBRANCH  29  30
ENDBRANCH  26  29
ENDBRANCH  24  25
ENDBRANCH  23  24
ENDBRANCH  22  23
ENDBRANCH  21  22
ENDBRANCH  20  21
ENDBRANCH  19  20
ENDBRANCH  17  19
ENDBRANCH  14  15
ENDBRANCH  13  14
ENDBRANCH  10  13
BRANCH   9  38
HETATM   38  C10 UNL     1      18.664   8.930  24.259  1.00  0.00     0.129 C 
BRANCH  38  39
HETATM   39  C11 UNL     1      18.835  10.326  23.773  1.00  0.00     0.024 C 
BRANCH  39  40
HETATM   40  C12 UNL     1      18.980  11.310  24.931  1.00  0.00    -0.010 C 
HETATM   41  C13 UNL     1      18.618  10.653  26.245  1.00  0.00     0.032 C 
HETATM   42  C14 UNL     1      18.657  11.719  27.314  1.00  0.00     0.232 C 
HETATM   43  N3  UNL     1      20.005  12.259  27.376  1.00  0.00    -0.075 N 
HETATM   44  C15 UNL     1      20.348  12.929  26.138  1.00  0.00     0.232 C 
ATOM     45  H32 UNL     1      20.130  12.870  28.183  1.00  0.00     0.277 HD
ATOM     46  H31 UNL     1      20.688  11.542  27.619  1.00  0.00     0.277 HD
HETATM   47  C16 UNL     1      20.359  11.914  24.998  1.00  0.00     0.032 C 
ENDBRANCH  39  40
ENDBRANCH  38  39
ENDBRANCH   9  38
BRANCH   1  48
HETATM   48  N1  UNL     1      12.166   5.499  25.540  1.00  0.00    -0.390 N 
HETATM   49  C1  UNL     1      12.446   4.257  26.203  1.00  0.00     0.149 C 
HETATM   50  C2  UNL     1      10.896   6.141  25.728  1.00  0.00     0.149 C 
ENDBRANCH   1  48
TORSDOF 18
ENDMDL
MODEL 3
REMARK VINA RESULT: -8.737086208      1.726      2.533
REMARK  18 active torsions:
REMARK  status: ('A' for Active; 'I' for Inactive)
REMARK    1  A    between atoms: N1_2  and  C3_4 
REMARK    2  A    between atoms: N2_12  and  C10_13 
REMARK    3  A    between atoms: C10_13  and  C11_14 
REMARK    4  A    between atoms: C11_14  and  C12_15 
REMARK    5  A    between atoms: C17_23  and  C18_24 
REMARK    6  A    between atoms: C18_24  and  C19_25 
REMARK    7  A    between atoms: C19_25  and  C20_26 
REMARK       I    between atoms: C20_26  and  N4_28 
REMARK    8  A    between atoms: N4_28  and  C21_30 
REMARK    9  A    between atoms: C21_30  and  C22_31 
REMARK   10  A    between atoms: C22_31  and  C23_32 
REMARK   11  A    between atoms: C23_32  and  C24_33 
REMARK   12  A    between atoms: C24_33  and  C25_34 
REMARK   13  A    between atoms: C25_34  and  C26_35 
REMARK   14  A    between atoms: C26_35  and  N5_36 
REMARK       I    between atoms: N5_36  and  C27_38 
REMARK   15  A    between atoms: C27_38  and  C28_40 
REMARK   16  A    between atoms: C28_40  and  C29_41 
REMARK   17  A    between atoms: C32_44  and  C33_45 
REMARK   18  A    between atoms: C33_45  and  O4_46 
ROOT
HETATM    1  C3  UNL     1      19.449  11.537  26.473  1.00  0.00     0.030 A 
HETATM    2  C4  UNL     1      18.954  11.810  25.190  1.00  0.00     0.031 A 
HETATM    3  C5  UNL     1      19.805  12.246  24.196  1.00  0.00     0.032 A 
HETATM    4  C6  UNL     1      21.153  12.413  24.467  1.00  0.00     0.045 A 
HETATM    5  C7  UNL     1      21.667  12.150  25.726  1.00  0.00     0.060 A 
HETATM    6  C8  UNL     1      20.794  11.716  26.698  1.00  0.00     0.048 A 
HETATM    7  C9  UNL     1      23.087  12.363  25.924  1.00  0.00     0.257 C 
HETATM    8  O1  UNL     1      23.595  12.130  27.073  1.00  0.00    -0.267 OA
HETATM    9  N2  UNL     1      23.951  12.827  24.893  1.00  0.00    -0.327 N 
HETATM   10  C17 UNL     1      23.473  12.951  23.556  1.00  0.00     0.187 C 
HETATM   11  N6  UNL     1      22.014  12.855  23.463  1.00  0.00    -0.368 N 
ATOM     12  H6  UNL     1      21.588  13.138  22.580  1.00  0.00     0.161 HD
ENDROOT
BRANCH  10  13
HETATM   13  C18 UNL     1      24.030  12.040  22.535  1.00  0.00     0.056 C 
BRANCH  13  14
HETATM   14  C19 UNL     1      23.145  11.626  21.417  1.00  0.00     0.106 C 
BRANCH  14  15
HETATM   15  C20 UNL     1      22.862  10.156  21.632  1.00  0.00     0.217 C 
HETATM   16  O2  UNL     1      22.676   9.709  22.800  1.00  0.00    -0.274 OA
HETATM   17  N4  UNL     1      22.805   9.284  20.527  1.00  0.00    -0.361 N 
ATOM     18  H4  UNL     1      22.958   9.653  19.588  1.00  0.00     0.162 HD
BRANCH  17  19
HETATM   19  C21 UNL     1      22.539   7.895  20.700  1.00  0.00     0.122 C 
BRANCH  19  20
HETATM   20  C22 UNL     1      23.739   6.985  20.556  1.00  0.00     0.020 C 
BRANCH  20  21
HETATM   21  C23 UNL     1      24.840   7.658  19.805  1.00  0.00     0.002 C 
BRANCH  21  22
HETATM   22  C24 UNL     1      25.306   6.865  18.578  1.00  0.00     0.005 C 
BRANCH  22  23
HETATM   23  C25 UNL     1      24.264   6.759  17.551  1.00  0.00     0.044 C 
BRANCH  23  24
HETATM   24  C26 UNL     1      23.966   5.449  16.952  1.00  0.00     0.064 C 
BRANCH  24  25
HETATM   25  N5  UNL     1      22.692   5.057  16.541  1.00  0.00    -0.341 N 
HETATM   26  C27 UNL     1      21.546   4.811  17.304  1.00  0.00     0.227 C 
HETATM   27  O3  UNL     1      21.525   4.905  18.537  1.00  0.00    -0.273 OA
ATOM     28  H5  UNL     1      22.578   4.933  15.535  1.00  0.00     0.167 HD
BRANCH  26  29
HETATM   29  C28 UNL     1      20.242   4.407  16.670  1.00  0.00     0.168 C 
BRANCH  29  30
HETATM   30  C29 UNL     1      19.126   4.547  17.630  1.00  0.00     0.062 A 
HETATM   31  C30 UNL     1      18.381   3.477  18.120  1.00  0.00     0.036 A 
HETATM   32  C31 UNL     1      17.451   4.027  18.976  1.00  0.00     0.037 A 
HETATM   33  C32 UNL     1      17.647   5.367  18.983  1.00  0.00     0.076 A 
HETATM   34  O5  UNL     1      18.635   5.644  18.187  1.00  0.00    -0.317 OA
BRANCH  33  35
HETATM   35  C33 UNL     1      16.838   6.348  19.792  1.00  0.00     0.229 C 
BRANCH  35  36
HETATM   36  O4  UNL     1      17.261   7.635  19.512  1.00  0.00    -0.394 OA
ATOM     37  H4  UNL     1      17.362   8.118  20.323  1.00  0.00     0.209 HD
ENDBRANCH  35  36
ENDBRANCH  33  35
ENDBRANCH  29  30
ENDBRANCH  26  29
ENDBRANCH  24  25
ENDBRANCH  23  24
ENDBRANCH  22  23
ENDBRANCH  21  22
ENDBRANCH  20  21
ENDBRANCH  19  20
ENDBRANCH  17  19
ENDBRANCH  14  15
ENDBRANCH  13  14
ENDBRANCH  10  13
BRANCH   9  38
HETATM   38  C10 UNL     1      25.310  13.220  25.183  1.00  0.00     0.129 C 
BRANCH  38  39
HETATM   39  C11 UNL     1      26.289  12.108  25.315  1.00  0.00     0.024 C 
BRANCH  39  40
HETATM   40  C12 UNL     1      27.721  12.630  25.426  1.00  0.00    -0.010 C 
HETATM   41  C13 UNL     1      27.820  14.045  24.902  1.00  0.00     0.032 C 
HETATM   42  C14 UNL     1      29.278  14.437  24.923  1.00  0.00     0.232 C 
HETATM   43  N3  UNL     1      29.752  14.375  26.295  1.00  0.00    -0.075 N 
HETATM   44  C15 UNL     1      29.702  13.017  26.795  1.00  0.00     0.232 C 
ATOM     45  H32 UNL     1      30.684  14.779  26.391  1.00  0.00     0.277 HD
ATOM     46  H31 UNL     1      29.243  15.019  26.900  1.00  0.00     0.277 HD
HETATM   47  C16 UNL     1      28.251  12.544  26.835  1.00  0.00     0.032 C 
ENDBRANCH  39  40
ENDBRANCH  38  39
ENDBRANCH   9  38
BRANCH   1  48
HETATM   48  N1  UNL     1      18.525  11.102  27.441  1.00  0.00    -0.390 N 
HETATM   49  C1  UNL     1      18.994  10.522  28.668  1.00  0.00     0.149 C 
HETATM   50  C2  UNL     1      17.114  11.233  27.203  1.00  0.00     0.149 C 
ENDBRANCH   1  48
TORSDOF 18
ENDMDL
MODEL 4
REMARK VINA RESULT: -8.705062161      2.388      6.358
REMARK  18 active torsions:
REMARK  status: ('A' for Active; 'I' for Inactive)
REMARK    1  A    between atoms: N1_2  and  C3_4 
REMARK    2  A    between atoms: N2_12  and  C10_13 
REMARK    3  A    between atoms: C10_13  and  C11_14 
REMARK    4  A    between atoms: C11_14  and  C12_15 
REMARK    5  A    between atoms: C17_23  and  C18_24 
REMARK    6  A    between atoms: C18_24  and  C19_25 
REMARK    7  A    between atoms: C19_25  and  C20_26 
REMARK       I    between atoms: C20_26  and  N4_28 
REMARK    8  A    between atoms: N4_28  and  C21_30 
REMARK    9  A    between atoms: C21_30  and  C22_31 
REMARK   10  A    between atoms: C22_31  and  C23_32 
REMARK   11  A    between atoms: C23_32  and  C24_33 
REMARK   12  A    between atoms: C24_33  and  C25_34 
REMARK   13  A    between atoms: C25_34  and  C26_35 
REMARK   14  A    between atoms: C26_35  and  N5_36 
REMARK       I    between atoms: N5_36  and  C27_38 
REMARK   15  A    between atoms: C27_38  and  C28_40 
REMARK   16  A    between atoms: C28_40  and  C29_41 
REMARK   17  A    between atoms: C32_44  and  C33_45 
REMARK   18  A    between atoms: C33_45  and  O4_46 
ROOT
HETATM    1  C3  UNL     1      23.556   8.825  19.941  1.00  0.00     0.030 A 
HETATM    2  C4  UNL     1      22.644   7.954  20.553  1.00  0.00     0.031 A 
HETATM    3  C5  UNL     1      21.944   8.355  21.671  1.00  0.00     0.032 A 
HETATM    4  C6  UNL     1      22.145   9.623  22.192  1.00  0.00     0.045 A 
HETATM    5  C7  UNL     1      23.040  10.502  21.606  1.00  0.00     0.060 A 
HETATM    6  C8  UNL     1      23.723  10.075  20.490  1.00  0.00     0.048 A 
HETATM    7  C9  UNL     1      23.196  11.805  22.222  1.00  0.00     0.257 C 
HETATM    8  O1  UNL     1      24.013  12.641  21.708  1.00  0.00    -0.267 OA
HETATM    9  N2  UNL     1      22.478  12.201  23.385  1.00  0.00    -0.327 N 
HETATM   10  C17 UNL     1      21.442  11.374  23.907  1.00  0.00     0.187 C 
HETATM   11  N6  UNL     1      21.439  10.030  23.324  1.00  0.00    -0.368 N 
ATOM     12  H6  UNL     1      20.867   9.325  23.790  1.00  0.00     0.161 HD
ENDROOT
BRANCH  10  13
HETATM   13  C18 UNL     1      20.054  11.877  23.836  1.00  0.00     0.056 C 
BRANCH  13  14
HETATM   14  C19 UNL     1      19.080  11.372  24.837  1.00  0.00     0.106 C 
BRANCH  14  15
HETATM   15  C20 UNL     1      18.579  10.049  24.299  1.00  0.00     0.217 C 
HETATM   16  O2  UNL     1      18.496   9.861  23.052  1.00  0.00    -0.274 OA
HETATM   17  N4  UNL     1      18.205   9.026  25.193  1.00  0.00    -0.361 N 
ATOM     18  H4  UNL     1      18.274   9.187  26.198  1.00  0.00     0.162 HD
BRANCH  17  19
HETATM   19  C21 UNL     1      17.732   7.770  24.715  1.00  0.00     0.122 C 
BRANCH  19  20
HETATM   20  C22 UNL     1      16.250   7.711  24.415  1.00  0.00     0.020 C 
BRANCH  20  21
HETATM   21  C23 UNL     1      15.958   6.742  23.319  1.00  0.00     0.002 C 
BRANCH  21  22
HETATM   22  C24 UNL     1      14.864   7.227  22.360  1.00  0.00     0.005 C 
BRANCH  22  23
HETATM   23  C25 UNL     1      15.395   8.072  21.285  1.00  0.00     0.044 C 
BRANCH  23  24
HETATM   24  C26 UNL     1      15.937   7.445  20.069  1.00  0.00     0.064 C 
BRANCH  24  25
HETATM   25  N5  UNL     1      17.156   6.769  20.024  1.00  0.00    -0.341 N 
HETATM   26  C27 UNL     1      17.512   5.624  19.305  1.00  0.00     0.227 C 
HETATM   27  O3  UNL     1      16.723   5.014  18.574  1.00  0.00    -0.273 OA
ATOM     28  H5  UNL     1      17.897   7.169  20.599  1.00  0.00     0.167 HD
BRANCH  26  29
HETATM   29  C28 UNL     1      18.901   5.044  19.374  1.00  0.00     0.168 C 
BRANCH  29  30
HETATM   30  C29 UNL     1      19.786   5.685  18.379  1.00  0.00     0.062 A 
HETATM   31  C30 UNL     1      21.123   5.342  18.188  1.00  0.00     0.036 A 
HETATM   32  C31 UNL     1      21.584   6.164  17.183  1.00  0.00     0.037 A 
HETATM   33  C32 UNL     1      20.554   6.958  16.803  1.00  0.00     0.076 A 
HETATM   34  O5  UNL     1      19.514   6.655  17.519  1.00  0.00    -0.317 OA
BRANCH  33  35
HETATM   35  C33 UNL     1      20.633   8.007  15.724  1.00  0.00     0.229 C 
BRANCH  35  36
HETATM   36  O4  UNL     1      19.466   8.751  15.720  1.00  0.00    -0.394 OA
ATOM     37  H4  UNL     1      19.373   9.187  14.881  1.00  0.00     0.209 HD
ENDBRANCH  35  36
ENDBRANCH  33  35
ENDBRANCH  29  30
ENDBRANCH  26  29
ENDBRANCH  24  25
ENDBRANCH  23  24
ENDBRANCH  22  23
ENDBRANCH  21  22
ENDBRANCH  20  21
ENDBRANCH  19  20
ENDBRANCH  17  19
ENDBRANCH  14  15
ENDBRANCH  13  14
ENDBRANCH  10  13
BRANCH   9  38
HETATM   38  C10 UNL     1      22.810  13.421  24.084  1.00  0.00     0.129 C 
BRANCH  38  39
HETATM   39  C11 UNL     1      23.284  13.253  25.484  1.00  0.00     0.024 C 
BRANCH  39  40
HETATM   40  C12 UNL     1      24.808  13.196  25.559  1.00  0.00    -0.010 C 
HETATM   41  C13 UNL     1      25.289  13.469  26.967  1.00  0.00     0.032 C 
HETATM   42  C14 UNL     1      26.798  13.525  26.930  1.00  0.00     0.232 C 
HETATM   43  N3  UNL     1      27.296  12.241  26.468  1.00  0.00    -0.075 N 
HETATM   44  C15 UNL     1      26.877  11.988  25.105  1.00  0.00     0.232 C 
ATOM     45  H32 UNL     1      28.308  12.170  26.572  1.00  0.00     0.277 HD
ATOM     46  H31 UNL     1      27.024  11.483  27.093  1.00  0.00     0.277 HD
HETATM   47  C16 UNL     1      25.355  11.886  25.051  1.00  0.00     0.032 C 
ENDBRANCH  39  40
ENDBRANCH  38  39
ENDBRANCH   9  38
BRANCH   1  48
HETATM   48  N1  UNL     1      24.239   8.348  18.807  1.00  0.00    -0.390 N 
HETATM   49  C1  UNL     1      24.260   9.131  17.603  1.00  0.00     0.149 C 
HETATM   50  C2  UNL     1      24.912   7.080  18.848  1.00  0.00     0.149 C 
ENDBRANCH   1  48
TORSDOF 18
ENDMDL
MODEL 5
REMARK VINA RESULT: -8.678008371      1.525      3.277
REMARK  18 active torsions:
REMARK  status: ('A' for Active; 'I' for Inactive)
REMARK    1  A    between atoms: N1_2  and  C3_4 
REMARK    2  A    between atoms: N2_12  and  C10_13 
REMARK    3  A    between atoms: C10_13  and  C11_14 
REMARK    4  A    between atoms: C11_14  and  C12_15 
REMARK    5  A    between atoms: C17_23  and  C18_24 
REMARK    6  A    between atoms: C18_24  and  C19_25 
REMARK    7  A    between atoms: C19_25  and  C20_26 
REMARK       I    between atoms: C20_26  and  N4_28 
REMARK    8  A    between atoms: N4_28  and  C21_30 
REMARK    9  A    between atoms: C21_30  and  C22_31 
REMARK   10  A    between atoms: C22_31  and  C23_32 
REMARK   11  A    between atoms: C23_32  and  C24_33 
REMARK   12  A    between atoms: C24_33  and  C25_34 
REMARK   13  A    between atoms: C25_34  and  C26_35 
REMARK   14  A    between atoms: C26_35  and  N5_36 
REMARK       I    between atoms: N5_36  and  C27_38 
REMARK   15  A    between atoms: C27_38  and  C28_40 
REMARK   16  A    between atoms: C28_40  and  C29_41 
REMARK   17  A    between atoms: C32_44  and  C33_45 
REMARK   18  A    between atoms: C33_45  and  O4_46 
ROOT
HETATM    1  C3  UNL     1      18.846  11.108  26.584  1.00  0.00     0.030 A 
HETATM    2  C4  UNL     1      18.368  11.297  25.279  1.00  0.00     0.031 A 
HETATM    3  C5  UNL     1      19.165  11.901  24.330  1.00  0.00     0.032 A 
HETATM    4  C6  UNL     1      20.441  12.322  24.666  1.00  0.00     0.045 A 
HETATM    5  C7  UNL     1      20.935  12.147  25.948  1.00  0.00     0.060 A 
HETATM    6  C8  UNL     1      20.119  11.541  26.875  1.00  0.00     0.048 A 
HETATM    7  C9  UNL     1      22.276  12.628  26.216  1.00  0.00     0.257 C 
HETATM    8  O1  UNL     1      22.765  12.482  27.387  1.00  0.00    -0.267 OA
HETATM    9  N2  UNL     1      23.083  13.263  25.230  1.00  0.00    -0.327 N 
HETATM   10  C17 UNL     1      22.654  13.310  23.872  1.00  0.00     0.187 C 
HETATM   11  N6  UNL     1      21.247  12.935  23.707  1.00  0.00    -0.368 N 
ATOM     12  H6  UNL     1      20.816  13.141  22.805  1.00  0.00     0.161 HD
ENDROOT
BRANCH  10  13
HETATM   13  C18 UNL     1      23.424  12.536  22.876  1.00  0.00     0.056 C 
BRANCH  13  14
HETATM   14  C19 UNL     1      23.622  11.085  23.127  1.00  0.00     0.106 C 
BRANCH  14  15
HETATM   15  C20 UNL     1      22.551  10.375  22.329  1.00  0.00     0.217 C 
HETATM   16  O2  UNL     1      21.972  10.969  21.374  1.00  0.00    -0.274 OA
HETATM   17  N4  UNL     1      22.200   9.049  22.651  1.00  0.00    -0.361 N 
ATOM     18  H4  UNL     1      22.672   8.578  23.424  1.00  0.00     0.162 HD
BRANCH  17  19
HETATM   19  C21 UNL     1      21.197   8.356  21.914  1.00  0.00     0.122 C 
BRANCH  19  20
HETATM   20  C22 UNL     1      19.832   8.315  22.566  1.00  0.00     0.020 C 
BRANCH  20  21
HETATM   21  C23 UNL     1      18.745   8.311  21.543  1.00  0.00     0.002 C 
BRANCH  21  22
HETATM   22  C24 UNL     1      19.127   7.563  20.260  1.00  0.00     0.005 C 
BRANCH  22  23
HETATM   23  C25 UNL     1      18.123   6.567  19.872  1.00  0.00     0.044 C 
BRANCH  23  24
HETATM   24  C26 UNL     1      18.520   5.158  19.720  1.00  0.00     0.064 C 
BRANCH  24  25
HETATM   25  N5  UNL     1      19.639   4.742  19.000  1.00  0.00    -0.341 N 
HETATM   26  C27 UNL     1      19.859   4.740  17.619  1.00  0.00     0.227 C 
HETATM   27  O3  UNL     1      19.015   5.126  16.802  1.00  0.00    -0.273 OA
ATOM     28  H5  UNL     1      20.412   4.386  19.563  1.00  0.00     0.167 HD
BRANCH  26  29
HETATM   29  C28 UNL     1      21.157   4.260  17.023  1.00  0.00     0.168 C 
BRANCH  29  30
HETATM   30  C29 UNL     1      22.290   5.075  17.509  1.00  0.00     0.062 A 
HETATM   31  C30 UNL     1      23.253   5.645  16.680  1.00  0.00     0.036 A 
HETATM   32  C31 UNL     1      24.122   6.314  17.515  1.00  0.00     0.037 A 
HETATM   33  C32 UNL     1      23.681   6.139  18.784  1.00  0.00     0.076 A 
HETATM   34  O5  UNL     1      22.607   5.411  18.751  1.00  0.00    -0.317 OA
BRANCH  33  35
HETATM   35  C33 UNL     1      24.348   6.709  20.009  1.00  0.00     0.229 C 
BRANCH  35  36
HETATM   36  O4  UNL     1      23.900   6.036  21.132  1.00  0.00    -0.394 OA
ATOM     37  H4  UNL     1      23.643   6.665  21.796  1.00  0.00     0.209 HD
ENDBRANCH  35  36
ENDBRANCH  33  35
ENDBRANCH  29  30
ENDBRANCH  26  29
ENDBRANCH  24  25
ENDBRANCH  23  24
ENDBRANCH  22  23
ENDBRANCH  21  22
ENDBRANCH  20  21
ENDBRANCH  19  20
ENDBRANCH  17  19
ENDBRANCH  14  15
ENDBRANCH  13  14
ENDBRANCH  10  13
BRANCH   9  38
HETATM   38  C10 UNL     1      24.325  13.908  25.587  1.00  0.00     0.129 C 
BRANCH  38  39
HETATM   39  C11 UNL     1      25.543  13.060  25.487  1.00  0.00     0.024 C 
BRANCH  39  40
HETATM   40  C12 UNL     1      26.818  13.891  25.625  1.00  0.00    -0.010 C 
HETATM   41  C13 UNL     1      27.131  14.159  27.081  1.00  0.00     0.032 C 
HETATM   42  C14 UNL     1      28.320  15.088  27.127  1.00  0.00     0.232 C 
HETATM   43  N3  UNL     1      29.444  14.430  26.484  1.00  0.00    -0.075 N 
HETATM   44  C15 UNL     1      29.174  14.206  25.079  1.00  0.00     0.232 C 
ATOM     45  H32 UNL     1      30.313  14.945  26.624  1.00  0.00     0.277 HD
ATOM     46  H31 UNL     1      29.700  13.566  26.962  1.00  0.00     0.277 HD
HETATM   47  C16 UNL     1      27.994  13.248  24.936  1.00  0.00     0.032 C 
ENDBRANCH  39  40
ENDBRANCH  38  39
ENDBRANCH   9  38
BRANCH   1  48
HETATM   48  N1  UNL     1      17.978  10.491  27.504  1.00  0.00    -0.390 N 
HETATM   49  C1  UNL     1      18.489  10.012  28.758  1.00  0.00     0.149 C 
HETATM   50  C2  UNL     1      16.585  10.335  27.191  1.00  0.00     0.149 C 
ENDBRANCH   1  48
TORSDOF 18
ENDMDL
