MODEL 1
REMARK VINA RESULT: -7.706425972      0.000      0.000
REMARK  5 active torsions:
REMARK  status: ('A' for Active; 'I' for Inactive)
REMARK       I    between atoms: C2_2  and  N1_4 
REMARK    1  A    between atoms: N1_4  and  N2_6 
REMARK    2  A    between atoms: N2_6  and  C3_8 
REMARK    3  A    between atoms: C3_8  and  O2_9 
REMARK    4  A    between atoms: C3_8  and  C4_11 
REMARK    5  A    between atoms: C5_14  and  N4_15 
ROOT
HETATM    1  C4  UNL     1      92.645  66.283  20.234  1.00  0.00     0.094 A 
HETATM    2  N3  UNL     1      93.601  66.688  21.148  1.00  0.00    -0.332 N 
ATOM      3  H3  UNL     1      93.681  67.683  21.359  1.00  0.00     0.168 HD
HETATM    4  C5  UNL     1      94.423  65.843  21.765  1.00  0.00     0.200 A 
HETATM    5  C6  UNL     1      94.301  64.503  21.468  1.00  0.00     0.121 A 
HETATM    6  N5  UNL     1      95.170  63.582  22.122  1.00  0.00    -0.096 NA
HETATM    7  C7  UNL     1      93.385  64.019  20.576  1.00  0.00     0.082 A 
HETATM    8  N6  UNL     1      93.230  62.646  20.241  1.00  0.00    -0.100 NA
HETATM    9  C8  UNL     1      92.533  64.957  19.943  1.00  0.00    -0.005 A 
HETATM   10  C9  UNL     1      91.580  64.450  18.935  1.00  0.00     0.052 C 
ENDROOT
BRANCH   1  11
HETATM   11  C3  UNL     1      91.825  67.294  19.598  1.00  0.00     0.183 C 
BRANCH  11  12
HETATM   12  N2  UNL     1      90.545  67.726  19.861  1.00  0.00    -0.276 N 
ATOM     13  H2  UNL     1      90.411  68.545  20.454  1.00  0.00     0.189 HD
BRANCH  12  14
HETATM   14  N1  UNL     1      89.428  67.076  19.338  1.00  0.00    -0.268 N 
HETATM   15  C2  UNL     1      88.906  67.327  18.053  1.00  0.00     0.232 C 
HETATM   16  C1  UNL     1      87.749  66.692  17.440  1.00  0.00     0.119 C 
HETATM   17  O1  UNL     1      89.538  68.213  17.371  1.00  0.00    -0.272 OA
ATOM     18  H1  UNL     1      88.961  66.380  19.919  1.00  0.00     0.190 HD
ENDBRANCH  12  14
ENDBRANCH  11  12
BRANCH  11  19
HETATM   19  O2  UNL     1      92.447  67.886  18.600  1.00  0.00    -0.344 OA
ATOM     20  H2  UNL     1      92.422  67.439  17.763  1.00  0.00     0.219 HD
ENDBRANCH  11  19
ENDBRANCH   1  11
BRANCH   4  21
HETATM   21  N4  UNL     1      95.411  66.276  22.712  1.00  0.00    -0.096 N 
HETATM   22  O3  UNL     1      95.132  66.350  23.944  1.00  0.00    -0.530 OA
HETATM   23  O4  UNL     1      96.688  66.625  22.359  1.00  0.00    -0.530 OA
ENDBRANCH   4  21
TORSDOF 5
ENDMDL
MODEL 2
REMARK VINA RESULT: -7.458844812      2.628      3.792
REMARK  5 active torsions:
REMARK  status: ('A' for Active; 'I' for Inactive)
REMARK       I    between atoms: C2_2  and  N1_4 
REMARK    1  A    between atoms: N1_4  and  N2_6 
REMARK    2  A    between atoms: N2_6  and  C3_8 
REMARK    3  A    between atoms: C3_8  and  O2_9 
REMARK    4  A    between atoms: C3_8  and  C4_11 
REMARK    5  A    between atoms: C5_14  and  N4_15 
ROOT
HETATM    1  C4  UNL     1      90.607  67.641  18.494  1.00  0.00     0.094 A 
HETATM    2  N3  UNL     1      90.626  66.775  19.574  1.00  0.00    -0.332 N 
ATOM      3  H3  UNL     1      89.801  66.725  20.171  1.00  0.00     0.168 HD
HETATM    4  C5  UNL     1      91.670  66.005  19.870  1.00  0.00     0.200 A 
HETATM    5  C6  UNL     1      92.776  66.086  19.053  1.00  0.00     0.121 A 
HETATM    6  N5  UNL     1      93.902  65.267  19.353  1.00  0.00    -0.096 NA
HETATM    7  C7  UNL     1      92.839  66.916  17.968  1.00  0.00     0.082 A 
HETATM    8  N6  UNL     1      93.962  67.030  17.102  1.00  0.00    -0.100 NA
HETATM    9  C8  UNL     1      91.705  67.717  17.692  1.00  0.00    -0.005 A 
HETATM   10  C9  UNL     1      91.786  68.658  16.557  1.00  0.00     0.052 C 
ENDROOT
BRANCH   1  11
HETATM   11  C3  UNL     1      89.428  68.455  18.284  1.00  0.00     0.183 C 
BRANCH  11  12
HETATM   12  N2  UNL     1      88.351  68.298  17.441  1.00  0.00    -0.276 N 
ATOM     13  H2  UNL     1      87.592  68.979  17.475  1.00  0.00     0.189 HD
BRANCH  12  14
HETATM   14  N1  UNL     1      88.268  67.235  16.543  1.00  0.00    -0.268 N 
HETATM   15  C2  UNL     1      87.204  66.311  16.520  1.00  0.00     0.232 C 
HETATM   16  C1  UNL     1      87.048  65.180  15.617  1.00  0.00     0.119 C 
HETATM   17  O1  UNL     1      86.289  66.510  17.399  1.00  0.00    -0.272 OA
ATOM     18  H1  UNL     1      89.020  67.120  15.864  1.00  0.00     0.190 HD
ENDBRANCH  12  14
ENDBRANCH  11  12
BRANCH  11  19
HETATM   19  O2  UNL     1      89.415  69.523  19.054  1.00  0.00    -0.344 OA
ATOM     20  H2  UNL     1      88.769  70.187  18.843  1.00  0.00     0.219 HD
ENDBRANCH  11  19
ENDBRANCH   1  11
BRANCH   4  21
HETATM   21  N4  UNL     1      91.678  65.111  20.994  1.00  0.00    -0.096 N 
HETATM   22  O3  UNL     1      91.130  63.974  20.914  1.00  0.00    -0.530 OA
HETATM   23  O4  UNL     1      92.266  65.415  22.193  1.00  0.00    -0.530 OA
ENDBRANCH   4  21
TORSDOF 5
ENDMDL
MODEL 3
REMARK VINA RESULT: -7.374624349      1.276      1.328
REMARK  5 active torsions:
REMARK  status: ('A' for Active; 'I' for Inactive)
REMARK       I    between atoms: C2_2  and  N1_4 
REMARK    1  A    between atoms: N1_4  and  N2_6 
REMARK    2  A    between atoms: N2_6  and  C3_8 
REMARK    3  A    between atoms: C3_8  and  O2_9 
REMARK    4  A    between atoms: C3_8  and  C4_11 
REMARK    5  A    between atoms: C5_14  and  N4_15 
ROOT
HETATM    1  C4  UNL     1      91.898  66.213  20.363  1.00  0.00     0.094 A 
HETATM    2  N3  UNL     1      92.849  66.673  21.256  1.00  0.00    -0.332 N 
ATOM      3  H3  UNL     1      92.746  67.616  21.633  1.00  0.00     0.168 HD
HETATM    4  C5  UNL     1      93.892  65.946  21.647  1.00  0.00     0.200 A 
HETATM    5  C6  UNL     1      94.016  64.676  21.129  1.00  0.00     0.121 A 
HETATM    6  N5  UNL     1      95.125  63.881  21.538  1.00  0.00    -0.096 NA
HETATM    7  C7  UNL     1      93.122  64.145  20.240  1.00  0.00     0.082 A 
HETATM    8  N6  UNL     1      93.215  62.841  19.680  1.00  0.00    -0.100 NA
HETATM    9  C8  UNL     1      92.029  64.957  19.853  1.00  0.00    -0.005 A 
HETATM   10  C9  UNL     1      91.090  64.414  18.849  1.00  0.00     0.052 C 
ENDROOT
BRANCH   1  11
HETATM   11  C3  UNL     1      90.819  67.102  19.983  1.00  0.00     0.183 C 
BRANCH  11  12
HETATM   12  N2  UNL     1      90.819  68.285  19.280  1.00  0.00    -0.276 N 
ATOM     13  H2  UNL     1      91.003  69.157  19.778  1.00  0.00     0.189 HD
BRANCH  12  14
HETATM   14  N1  UNL     1      90.575  68.326  17.908  1.00  0.00    -0.268 N 
HETATM   15  C2  UNL     1      89.288  68.240  17.340  1.00  0.00     0.232 C 
HETATM   16  C1  UNL     1      88.954  68.274  15.924  1.00  0.00     0.119 C 
HETATM   17  O1  UNL     1      88.326  68.118  18.182  1.00  0.00    -0.272 OA
ATOM     18  H1  UNL     1      91.372  68.424  17.280  1.00  0.00     0.190 HD
ENDBRANCH  12  14
ENDBRANCH  11  12
BRANCH  11  19
HETATM   19  O2  UNL     1      89.647  66.669  20.395  1.00  0.00    -0.344 OA
ATOM     20  H2  UNL     1      89.391  66.918  21.276  1.00  0.00     0.219 HD
ENDBRANCH  11  19
ENDBRANCH   1  11
BRANCH   4  21
HETATM   21  N4  UNL     1      94.873  66.435  22.575  1.00  0.00    -0.096 N 
HETATM   22  O3  UNL     1      94.649  66.411  23.820  1.00  0.00    -0.530 OA
HETATM   23  O4  UNL     1      96.086  66.943  22.189  1.00  0.00    -0.530 OA
ENDBRANCH   4  21
TORSDOF 5
ENDMDL
MODEL 4
REMARK VINA RESULT: -7.337890152      1.592      2.355
REMARK  5 active torsions:
REMARK  status: ('A' for Active; 'I' for Inactive)
REMARK       I    between atoms: C2_2  and  N1_4 
REMARK    1  A    between atoms: N1_4  and  N2_6 
REMARK    2  A    between atoms: N2_6  and  C3_8 
REMARK    3  A    between atoms: C3_8  and  O2_9 
REMARK    4  A    between atoms: C3_8  and  C4_11 
REMARK    5  A    between atoms: C5_14  and  N4_15 
ROOT
HETATM    1  C4  UNL     1      92.052  66.111  20.468  1.00  0.00     0.094 A 
HETATM    2  N3  UNL     1      93.025  66.573  21.337  1.00  0.00    -0.332 N 
ATOM      3  H3  UNL     1      92.988  67.549  21.632  1.00  0.00     0.168 HD
HETATM    4  C5  UNL     1      94.006  65.807  21.805  1.00  0.00     0.200 A 
HETATM    5  C6  UNL     1      94.040  64.492  21.396  1.00  0.00     0.121 A 
HETATM    6  N5  UNL     1      95.081  63.655  21.889  1.00  0.00    -0.096 NA
HETATM    7  C7  UNL     1      93.118  63.956  20.539  1.00  0.00     0.082 A 
HETATM    8  N6  UNL     1      93.120  62.606  20.091  1.00  0.00    -0.100 NA
HETATM    9  C8  UNL     1      92.093  64.811  20.066  1.00  0.00    -0.005 A 
HETATM   10  C9  UNL     1      91.128  64.257  19.095  1.00  0.00     0.052 C 
ENDROOT
BRANCH   1  11
HETATM   11  C3  UNL     1      91.047  67.043  19.997  1.00  0.00     0.183 C 
BRANCH  11  12
HETATM   12  N2  UNL     1      91.150  68.184  19.235  1.00  0.00    -0.276 N 
ATOM     13  H2  UNL     1      90.758  69.056  19.592  1.00  0.00     0.189 HD
BRANCH  12  14
HETATM   14  N1  UNL     1      91.774  68.182  17.988  1.00  0.00    -0.268 N 
HETATM   15  C2  UNL     1      93.158  68.377  17.806  1.00  0.00     0.232 C 
HETATM   16  C1  UNL     1      93.880  68.389  16.542  1.00  0.00     0.119 C 
HETATM   17  O1  UNL     1      93.830  68.562  18.885  1.00  0.00    -0.272 OA
ATOM     18  H1  UNL     1      91.197  68.031  17.161  1.00  0.00     0.190 HD
ENDBRANCH  12  14
ENDBRANCH  11  12
BRANCH  11  19
HETATM   19  O2  UNL     1      89.834  66.705  20.380  1.00  0.00    -0.344 OA
ATOM     20  H2  UNL     1      89.775  66.137  21.140  1.00  0.00     0.219 HD
ENDBRANCH  11  19
ENDBRANCH   1  11
BRANCH   4  21
HETATM   21  N4  UNL     1      95.011  66.299  22.706  1.00  0.00    -0.096 N 
HETATM   22  O3  UNL     1      94.833  66.245  23.957  1.00  0.00    -0.530 OA
HETATM   23  O4  UNL     1      96.197  66.839  22.286  1.00  0.00    -0.530 OA
ENDBRANCH   4  21
TORSDOF 5
ENDMDL
MODEL 5
REMARK VINA RESULT: -7.313679102      1.732      1.732
REMARK  5 active torsions:
REMARK  status: ('A' for Active; 'I' for Inactive)
REMARK       I    between atoms: C2_2  and  N1_4 
REMARK    1  A    between atoms: N1_4  and  N2_6 
REMARK    2  A    between atoms: N2_6  and  C3_8 
REMARK    3  A    between atoms: C3_8  and  O2_9 
REMARK    4  A    between atoms: C3_8  and  C4_11 
REMARK    5  A    between atoms: C5_14  and  N4_15 
ROOT
HETATM    1  C4  UNL     1      92.750  66.373  20.143  1.00  0.00     0.094 A 
HETATM    2  N3  UNL     1      93.690  66.754  21.083  1.00  0.00    -0.332 N 
ATOM      3  H3  UNL     1      93.798  67.748  21.288  1.00  0.00     0.168 HD
HETATM    4  C5  UNL     1      94.461  65.887  21.734  1.00  0.00     0.200 A 
HETATM    5  C6  UNL     1      94.301  64.549  21.446  1.00  0.00     0.121 A 
HETATM    6  N5  UNL     1      95.116  63.605  22.134  1.00  0.00    -0.096 NA
HETATM    7  C7  UNL     1      93.397  64.089  20.529  1.00  0.00     0.082 A 
HETATM    8  N6  UNL     1      93.204  62.718  20.201  1.00  0.00    -0.100 NA
HETATM    9  C8  UNL     1      92.600  65.049  19.861  1.00  0.00    -0.005 A 
HETATM   10  C9  UNL     1      91.661  64.567  18.827  1.00  0.00     0.052 C 
ENDROOT
BRANCH   1  11
HETATM   11  C3  UNL     1      91.986  67.406  19.472  1.00  0.00     0.183 C 
BRANCH  11  12
HETATM   12  N2  UNL     1      92.281  68.196  18.385  1.00  0.00    -0.276 N 
ATOM     13  H2  UNL     1      93.085  68.823  18.431  1.00  0.00     0.189 HD
BRANCH  12  14
HETATM   14  N1  UNL     1      91.513  68.163  17.221  1.00  0.00    -0.268 N 
HETATM   15  C2  UNL     1      91.034  69.316  16.567  1.00  0.00     0.232 C 
HETATM   16  C1  UNL     1      90.230  69.363  15.355  1.00  0.00     0.119 C 
HETATM   17  O1  UNL     1      91.355  70.430  17.119  1.00  0.00    -0.272 OA
ATOM     18  H1  UNL     1      91.285  67.253  16.821  1.00  0.00     0.190 HD
ENDBRANCH  12  14
ENDBRANCH  11  12
BRANCH  11  19
HETATM   19  O2  UNL     1      90.806  67.592  20.024  1.00  0.00    -0.344 OA
ATOM     20  H2  UNL     1      90.753  67.456  20.963  1.00  0.00     0.219 HD
ENDBRANCH  11  19
ENDBRANCH   1  11
BRANCH   4  21
HETATM   21  N4  UNL     1      95.434  66.294  22.708  1.00  0.00    -0.096 N 
HETATM   22  O3  UNL     1      95.131  66.347  23.935  1.00  0.00    -0.530 OA
HETATM   23  O4  UNL     1      96.720  66.640  22.387  1.00  0.00    -0.530 OA
ENDBRANCH   4  21
TORSDOF 5
ENDMDL
