MODEL 1
REMARK VINA RESULT: -8.221595988      0.000      0.000
REMARK  5 active torsions:
REMARK  status: ('A' for Active; 'I' for Inactive)
REMARK    1  A    between atoms: O1_2  and  C2_3 
REMARK    2  A    between atoms: C2_3  and  C3_5 
REMARK    3  A    between atoms: C5_11  and  N3_12 
REMARK    4  A    between atoms: C6_17  and  N5_18 
REMARK    5  A    between atoms: N5_18  and  C7_20 
ROOT
HETATM    1  C3  UNL     1      94.876  66.860  22.726  1.00  0.00     0.227 A 
HETATM    2  N1  UNL     1      95.395  65.652  22.446  1.00  0.00    -0.315 N 
ATOM      3  H1  UNL     1      96.351  65.359  22.648  1.00  0.00     0.169 HD
HETATM    4  C4  UNL     1      94.457  64.891  21.860  1.00  0.00     0.161 A 
HETATM    5  N2  UNL     1      94.373  63.651  21.374  1.00  0.00    -0.174 N 
ATOM      6  H2  UNL     1      95.183  63.034  21.408  1.00  0.00     0.186 HD
HETATM    7  C5  UNL     1      93.209  63.213  20.834  1.00  0.00     0.679 A 
HETATM    8  N4  UNL     1      92.118  63.983  20.766  1.00  0.00    -0.174 N 
ATOM      9  H4  UNL     1      91.260  63.616  20.352  1.00  0.00     0.186 HD
HETATM   10  C6  UNL     1      92.148  65.230  21.237  1.00  0.00     0.160 A 
HETATM   11  C9  UNL     1      93.340  65.698  21.796  1.00  0.00     0.167 A 
HETATM   12  O3  UNL     1      93.624  66.864  22.321  1.00  0.00    -0.281 OA
ENDROOT
BRANCH  10  13
HETATM   13  N5  UNL     1      91.146  66.039  21.211  1.00  0.00    -0.324 N 
ATOM     14  H5  UNL     1      90.895  66.539  22.064  1.00  0.00     0.169 HD
BRANCH  13  15
HETATM   15  C7  UNL     1      90.384  66.257  20.043  1.00  0.00     0.139 A 
HETATM   16  C8  UNL     1      90.719  67.224  19.101  1.00  0.00     0.158 A 
HETATM   17  N6  UNL     1      89.791  67.158  18.132  1.00  0.00    -0.294 N 
HETATM   18  N7  UNL     1      88.941  66.210  18.460  1.00  0.00    -0.241 N 
ATOM     19  H6  UNL     1      89.754  67.738  17.294  1.00  0.00     0.187 HD
HETATM   20  N8  UNL     1      89.267  65.644  19.607  1.00  0.00    -0.270 N 
ATOM     21  H7  UNL     1      88.131  65.945  17.898  1.00  0.00     0.208 HD
ATOM     22  H8  UNL     1      88.769  64.887  20.075  1.00  0.00     0.190 HD
ENDBRANCH  13  15
ENDBRANCH  10  13
BRANCH   7  23
HETATM   23  N3  UNL     1      93.111  62.009  20.356  1.00  0.00    -0.234 N 
ATOM     24  H32 UNL     1      93.763  61.314  20.719  1.00  0.00     0.174 HD
ATOM     25  H31 UNL     1      92.410  61.784  19.651  1.00  0.00     0.174 HD
ENDBRANCH   7  23
BRANCH   1  26
HETATM   26  C2  UNL     1      95.550  67.998  23.366  1.00  0.00     0.334 C 
HETATM   27  O2  UNL     1      95.194  69.146  23.011  1.00  0.00    -0.255 OA
BRANCH  26  28
HETATM   28  O1  UNL     1      96.527  67.861  24.310  1.00  0.00    -0.320 OA
HETATM   29  C1  UNL     1      97.439  68.884  24.677  1.00  0.00     0.213 C 
ENDBRANCH  26  28
ENDBRANCH   1  26
TORSDOF 5
ENDMDL
MODEL 2
REMARK VINA RESULT: -8.202743645      0.735      1.040
REMARK  5 active torsions:
REMARK  status: ('A' for Active; 'I' for Inactive)
REMARK    1  A    between atoms: O1_2  and  C2_3 
REMARK    2  A    between atoms: C2_3  and  C3_5 
REMARK    3  A    between atoms: C5_11  and  N3_12 
REMARK    4  A    between atoms: C6_17  and  N5_18 
REMARK    5  A    between atoms: N5_18  and  C7_20 
ROOT
HETATM    1  C3  UNL     1      94.890  66.883  22.724  1.00  0.00     0.227 A 
HETATM    2  N1  UNL     1      95.388  65.653  22.509  1.00  0.00    -0.315 N 
ATOM      3  H1  UNL     1      96.322  65.340  22.772  1.00  0.00     0.169 HD
HETATM    4  C4  UNL     1      94.463  64.901  21.892  1.00  0.00     0.161 A 
HETATM    5  N2  UNL     1      94.370  63.650  21.437  1.00  0.00    -0.174 N 
ATOM      6  H2  UNL     1      95.159  63.012  21.536  1.00  0.00     0.186 HD
HETATM    7  C5  UNL     1      93.227  63.227  20.845  1.00  0.00     0.679 A 
HETATM    8  N4  UNL     1      92.164  64.025  20.693  1.00  0.00    -0.174 N 
ATOM      9  H4  UNL     1      91.320  63.669  20.242  1.00  0.00     0.186 HD
HETATM   10  C6  UNL     1      92.203  65.284  21.129  1.00  0.00     0.160 A 
HETATM   11  C9  UNL     1      93.375  65.736  21.742  1.00  0.00     0.167 A 
HETATM   12  O3  UNL     1      93.663  66.909  22.248  1.00  0.00    -0.281 OA
ENDROOT
BRANCH  10  13
HETATM   13  N5  UNL     1      91.228  66.119  21.023  1.00  0.00    -0.324 N 
ATOM     14  H5  UNL     1      90.605  66.252  21.820  1.00  0.00     0.169 HD
BRANCH  13  15
HETATM   15  C7  UNL     1      90.993  66.856  19.842  1.00  0.00     0.139 A 
HETATM   16  C8  UNL     1      89.917  66.597  19.001  1.00  0.00     0.158 A 
HETATM   17  N6  UNL     1      89.998  67.474  17.987  1.00  0.00    -0.294 N 
HETATM   18  N7  UNL     1      91.058  68.224  18.194  1.00  0.00    -0.241 N 
ATOM     19  H6  UNL     1      89.354  67.546  17.199  1.00  0.00     0.187 HD
HETATM   20  N8  UNL     1      91.684  67.880  19.305  1.00  0.00    -0.270 N 
ATOM     21  H7  UNL     1      91.360  68.977  17.575  1.00  0.00     0.208 HD
ATOM     22  H8  UNL     1      92.529  68.308  19.684  1.00  0.00     0.190 HD
ENDBRANCH  13  15
ENDBRANCH  10  13
BRANCH   7  23
HETATM   23  N3  UNL     1      93.121  62.013  20.397  1.00  0.00    -0.234 N 
ATOM     24  H32 UNL     1      93.828  61.345  20.701  1.00  0.00     0.174 HD
ATOM     25  H31 UNL     1      92.359  61.753  19.771  1.00  0.00     0.174 HD
ENDBRANCH   7  23
BRANCH   1  26
HETATM   26  C2  UNL     1      95.560  68.021  23.368  1.00  0.00     0.334 C 
HETATM   27  O2  UNL     1      95.215  69.169  23.001  1.00  0.00    -0.255 OA
BRANCH  26  28
HETATM   28  O1  UNL     1      96.520  67.883  24.329  1.00  0.00    -0.320 OA
HETATM   29  C1  UNL     1      97.455  68.892  24.681  1.00  0.00     0.213 C 
ENDBRANCH  26  28
ENDBRANCH   1  26
TORSDOF 5
ENDMDL
MODEL 3
REMARK VINA RESULT: -8.135724194      2.017      3.665
REMARK  5 active torsions:
REMARK  status: ('A' for Active; 'I' for Inactive)
REMARK    1  A    between atoms: O1_2  and  C2_3 
REMARK    2  A    between atoms: C2_3  and  C3_5 
REMARK    3  A    between atoms: C5_11  and  N3_12 
REMARK    4  A    between atoms: C6_17  and  N5_18 
REMARK    5  A    between atoms: N5_18  and  C7_20 
ROOT
HETATM    1  C3  UNL     1      93.295  65.578  21.481  1.00  0.00     0.227 A 
HETATM    2  N1  UNL     1      92.427  64.572  21.271  1.00  0.00    -0.315 N 
ATOM      3  H1  UNL     1      92.512  63.630  21.652  1.00  0.00     0.169 HD
HETATM    4  C4  UNL     1      91.431  65.003  20.480  1.00  0.00     0.161 A 
HETATM    5  N2  UNL     1      90.322  64.490  19.945  1.00  0.00    -0.174 N 
ATOM      6  H2  UNL     1      90.072  63.517  20.122  1.00  0.00     0.186 HD
HETATM    7  C5  UNL     1      89.526  65.262  19.165  1.00  0.00     0.679 A 
HETATM    8  N4  UNL     1      89.809  66.543  18.902  1.00  0.00    -0.174 N 
ATOM      9  H4  UNL     1      89.184  67.091  18.311  1.00  0.00     0.186 HD
HETATM   10  C6  UNL     1      90.905  67.104  19.412  1.00  0.00     0.160 A 
HETATM   11  C9  UNL     1      91.736  66.322  20.218  1.00  0.00     0.167 A 
HETATM   12  O3  UNL     1      92.853  66.633  20.829  1.00  0.00    -0.281 OA
ENDROOT
BRANCH  10  13
HETATM   13  N5  UNL     1      91.254  68.329  19.211  1.00  0.00    -0.324 N 
ATOM     14  H5  UNL     1      91.537  68.897  20.009  1.00  0.00     0.169 HD
BRANCH  13  15
HETATM   15  C7  UNL     1      91.255  68.909  17.925  1.00  0.00     0.139 A 
HETATM   16  C8  UNL     1      92.162  68.538  16.938  1.00  0.00     0.158 A 
HETATM   17  N6  UNL     1      91.881  69.281  15.854  1.00  0.00    -0.294 N 
HETATM   18  N7  UNL     1      90.864  70.058  16.158  1.00  0.00    -0.241 N 
ATOM     19  H6  UNL     1      92.367  69.247  14.958  1.00  0.00     0.187 HD
HETATM   20  N8  UNL     1      90.460  69.861  17.400  1.00  0.00    -0.270 N 
ATOM     21  H7  UNL     1      90.441  70.729  15.517  1.00  0.00     0.208 HD
ATOM     22  H8  UNL     1      89.692  70.339  17.872  1.00  0.00     0.190 HD
ENDBRANCH  13  15
ENDBRANCH  10  13
BRANCH   7  23
HETATM   23  N3  UNL     1      88.443  64.778  18.636  1.00  0.00    -0.234 N 
ATOM     24  H32 UNL     1      87.609  64.764  19.222  1.00  0.00     0.174 HD
ATOM     25  H31 UNL     1      88.442  64.430  17.677  1.00  0.00     0.174 HD
ENDBRANCH   7  23
BRANCH   1  26
HETATM   26  C2  UNL     1      94.525  65.546  22.283  1.00  0.00     0.334 C 
HETATM   27  O2  UNL     1      94.491  64.897  23.355  1.00  0.00    -0.255 OA
BRANCH  26  28
HETATM   28  O1  UNL     1      95.677  66.180  21.918  1.00  0.00    -0.320 OA
HETATM   29  C1  UNL     1      96.247  67.278  22.616  1.00  0.00     0.213 C 
ENDBRANCH  26  28
ENDBRANCH   1  26
TORSDOF 5
ENDMDL
MODEL 4
REMARK VINA RESULT: -8.008178542      4.664      8.026
REMARK  5 active torsions:
REMARK  status: ('A' for Active; 'I' for Inactive)
REMARK    1  A    between atoms: O1_2  and  C2_3 
REMARK    2  A    between atoms: C2_3  and  C3_5 
REMARK    3  A    between atoms: C5_11  and  N3_12 
REMARK    4  A    between atoms: C6_17  and  N5_18 
REMARK    5  A    between atoms: N5_18  and  C7_20 
ROOT
HETATM    1  C3  UNL     1      87.647  67.247  16.741  1.00  0.00     0.227 A 
HETATM    2  N1  UNL     1      88.418  68.263  16.316  1.00  0.00    -0.315 N 
ATOM      3  H1  UNL     1      88.267  68.802  15.463  1.00  0.00     0.169 HD
HETATM    4  C4  UNL     1      89.419  68.456  17.189  1.00  0.00     0.161 A 
HETATM    5  N2  UNL     1      90.461  69.282  17.310  1.00  0.00    -0.174 N 
ATOM      6  H2  UNL     1      90.632  69.993  16.600  1.00  0.00     0.186 HD
HETATM    7  C5  UNL     1      91.291  69.174  18.376  1.00  0.00     0.679 A 
HETATM    8  N4  UNL     1      91.109  68.258  19.334  1.00  0.00    -0.174 N 
ATOM      9  H4  UNL     1      91.755  68.209  20.121  1.00  0.00     0.186 HD
HETATM   10  C6  UNL     1      90.083  67.409  19.262  1.00  0.00     0.160 A 
HETATM   11  C9  UNL     1      89.218  67.506  18.169  1.00  0.00     0.167 A 
HETATM   12  O3  UNL     1      88.154  66.803  17.871  1.00  0.00    -0.281 OA
ENDROOT
BRANCH  10  13
HETATM   13  N5  UNL     1      89.833  66.497  20.138  1.00  0.00    -0.324 N 
ATOM     14  H5  UNL     1      88.882  66.405  20.495  1.00  0.00     0.169 HD
BRANCH  13  15
HETATM   15  C7  UNL     1      90.831  65.623  20.620  1.00  0.00     0.139 A 
HETATM   16  C8  UNL     1      91.032  64.353  20.092  1.00  0.00     0.158 A 
HETATM   17  N6  UNL     1      92.049  63.804  20.777  1.00  0.00    -0.294 N 
HETATM   18  N7  UNL     1      92.446  64.684  21.670  1.00  0.00    -0.241 N 
ATOM     19  H6  UNL     1      92.441  62.874  20.632  1.00  0.00     0.187 HD
HETATM   20  N8  UNL     1      91.734  65.795  21.604  1.00  0.00    -0.270 N 
ATOM     21  H7  UNL     1      93.208  64.529  22.330  1.00  0.00     0.208 HD
ATOM     22  H8  UNL     1      91.847  66.624  22.187  1.00  0.00     0.190 HD
ENDBRANCH  13  15
ENDBRANCH  10  13
BRANCH   7  23
HETATM   23  N3  UNL     1      92.309  69.969  18.508  1.00  0.00    -0.234 N 
ATOM     24  H32 UNL     1      93.233  69.539  18.516  1.00  0.00     0.174 HD
ATOM     25  H31 UNL     1      92.175  70.976  18.598  1.00  0.00     0.174 HD
ENDBRANCH   7  23
BRANCH   1  26
HETATM   26  C2  UNL     1      86.448  66.701  16.092  1.00  0.00     0.334 C 
HETATM   27  O2  UNL     1      85.902  67.408  15.212  1.00  0.00    -0.255 OA
BRANCH  26  28
HETATM   28  O1  UNL     1      85.915  65.483  16.399  1.00  0.00    -0.320 OA
HETATM   29  C1  UNL     1      86.542  64.238  16.126  1.00  0.00     0.213 C 
ENDBRANCH  26  28
ENDBRANCH   1  26
TORSDOF 5
ENDMDL
MODEL 5
REMARK VINA RESULT: -8.006906232      4.674      8.223
REMARK  5 active torsions:
REMARK  status: ('A' for Active; 'I' for Inactive)
REMARK    1  A    between atoms: O1_2  and  C2_3 
REMARK    2  A    between atoms: C2_3  and  C3_5 
REMARK    3  A    between atoms: C5_11  and  N3_12 
REMARK    4  A    between atoms: C6_17  and  N5_18 
REMARK    5  A    between atoms: N5_18  and  C7_20 
ROOT
HETATM    1  C3  UNL     1      87.634  67.327  16.749  1.00  0.00     0.227 A 
HETATM    2  N1  UNL     1      88.428  68.319  16.309  1.00  0.00    -0.315 N 
ATOM      3  H1  UNL     1      88.285  68.853  15.452  1.00  0.00     0.169 HD
HETATM    4  C4  UNL     1      89.438  68.496  17.175  1.00  0.00     0.161 A 
HETATM    5  N2  UNL     1      90.501  69.297  17.280  1.00  0.00    -0.174 N 
ATOM      6  H2  UNL     1      90.685  69.997  16.563  1.00  0.00     0.186 HD
HETATM    7  C5  UNL     1      91.335  69.179  18.342  1.00  0.00     0.679 A 
HETATM    8  N4  UNL     1      91.137  68.278  19.310  1.00  0.00    -0.174 N 
ATOM      9  H4  UNL     1      91.787  68.221  20.094  1.00  0.00     0.186 HD
HETATM   10  C6  UNL     1      90.091  67.453  19.253  1.00  0.00     0.160 A 
HETATM   11  C9  UNL     1      89.221  67.561  18.165  1.00  0.00     0.167 A 
HETATM   12  O3  UNL     1      88.138  66.881  17.881  1.00  0.00    -0.281 OA
ENDROOT
BRANCH  10  13
HETATM   13  N5  UNL     1      89.824  66.557  20.140  1.00  0.00    -0.324 N 
ATOM     14  H5  UNL     1      88.874  66.492  20.505  1.00  0.00     0.169 HD
BRANCH  13  15
HETATM   15  C7  UNL     1      90.803  65.663  20.623  1.00  0.00     0.139 A 
HETATM   16  C8  UNL     1      90.980  64.389  20.093  1.00  0.00     0.158 A 
HETATM   17  N6  UNL     1      91.984  63.819  20.781  1.00  0.00    -0.294 N 
HETATM   18  N7  UNL     1      92.396  64.690  21.677  1.00  0.00    -0.241 N 
ATOM     19  H6  UNL     1      92.358  62.882  20.634  1.00  0.00     0.187 HD
HETATM   20  N8  UNL     1      91.706  65.814  21.611  1.00  0.00    -0.270 N 
ATOM     21  H7  UNL     1      93.152  64.518  22.340  1.00  0.00     0.208 HD
ATOM     22  H8  UNL     1      91.833  66.639  22.197  1.00  0.00     0.190 HD
ENDBRANCH  13  15
ENDBRANCH  10  13
BRANCH   7  23
HETATM   23  N3  UNL     1      92.373  69.950  18.459  1.00  0.00    -0.234 N 
ATOM     24  H32 UNL     1      93.288  69.501  18.436  1.00  0.00     0.174 HD
ATOM     25  H31 UNL     1      92.264  70.959  18.569  1.00  0.00     0.174 HD
ENDBRANCH   7  23
BRANCH   1  26
HETATM   26  C2  UNL     1      86.418  66.804  16.113  1.00  0.00     0.334 C 
HETATM   27  O2  UNL     1      85.801  65.897  16.720  1.00  0.00    -0.255 OA
BRANCH  26  28
HETATM   28  O1  UNL     1      85.942  67.253  14.915  1.00  0.00    -0.320 OA
HETATM   29  C1  UNL     1      85.240  66.451  13.977  1.00  0.00     0.213 C 
ENDBRANCH  26  28
ENDBRANCH   1  26
TORSDOF 5
ENDMDL
