MODEL 1
REMARK VINA RESULT: -8.456999451      0.000      0.000
REMARK  3 active torsions:
REMARK  status: ('A' for Active; 'I' for Inactive)
REMARK    1  A    between atoms: C3_3  and  C4_4 
REMARK    2  A    between atoms: C4_4  and  O1_6 
REMARK    3  A    between atoms: C7_17  and  N5_18 
ROOT
HETATM    1  C1  UNL     1      88.572  64.773  18.299  1.00  0.00     0.055 C 
HETATM    2  C2  UNL     1      89.309  66.081  18.404  1.00  0.00     0.015 A 
HETATM    3  C3  UNL     1      88.767  67.169  17.747  1.00  0.00     0.087 A 
HETATM    4  N1  UNL     1      89.513  68.301  17.774  1.00  0.00    -0.187 N 
ATOM      5  H1  UNL     1      89.161  69.134  17.302  1.00  0.00     0.184 HD
HETATM    6  C6  UNL     1      90.727  68.367  18.416  1.00  0.00     0.700 A 
HETATM    7  N2  UNL     1      91.375  69.473  18.477  1.00  0.00    -0.233 N 
ATOM      8  H21 UNL     1      92.276  69.522  18.953  1.00  0.00     0.174 HD
ATOM      9  H22 UNL     1      91.002  70.294  18.001  1.00  0.00     0.174 HD
HETATM   10  N3  UNL     1      91.219  67.284  19.043  1.00  0.00    -0.055 N 
HETATM   11  N4  UNL     1      92.328  67.031  19.706  1.00  0.00    -0.109 N 
ATOM     12  H4  UNL     1      93.061  67.719  19.879  1.00  0.00     0.207 HD
HETATM   13  C7  UNL     1      92.374  65.777  20.117  1.00  0.00     0.699 A 
HETATM   14  N7  UNL     1      91.204  65.197  19.681  1.00  0.00    -0.172 N 
ATOM     15  H7  UNL     1      90.915  64.228  19.822  1.00  0.00     0.186 HD
HETATM   16  C11 UNL     1      90.518  66.146  19.038  1.00  0.00     0.169 A 
ENDROOT
BRANCH  13  17
HETATM   17  N5  UNL     1      93.367  65.031  20.849  1.00  0.00    -0.190 N 
HETATM   18  C8  UNL     1      94.352  65.510  21.776  1.00  0.00     0.170 C 
HETATM   19  C9  UNL     1      94.610  64.276  22.636  1.00  0.00     0.254 C 
HETATM   20  N6  UNL     1      94.435  63.208  21.709  1.00  0.00    -0.057 N 
HETATM   21  C10 UNL     1      93.520  63.613  20.693  1.00  0.00     0.374 C 
ATOM     22  H62 UNL     1      95.322  62.881  21.324  1.00  0.00     0.279 HD
ATOM     23  H61 UNL     1      94.149  62.342  22.165  1.00  0.00     0.279 HD
ENDBRANCH  13  17
BRANCH   3  24
HETATM   24  C4  UNL     1      87.393  67.165  17.251  1.00  0.00     0.067 C 
HETATM   25  C5  UNL     1      87.191  66.685  15.817  1.00  0.00     0.078 C 
BRANCH  24  26
HETATM   26  O1  UNL     1      86.353  66.980  18.125  1.00  0.00    -0.363 OA
ATOM     27  H1  UNL     1      85.590  66.484  17.853  1.00  0.00     0.217 HD
ENDBRANCH  24  26
ENDBRANCH   3  24
TORSDOF 3
ENDMDL
MODEL 2
REMARK VINA RESULT: -8.173089546      2.968      6.260
REMARK  3 active torsions:
REMARK  status: ('A' for Active; 'I' for Inactive)
REMARK    1  A    between atoms: C3_3  and  C4_4 
REMARK    2  A    between atoms: C4_4  and  O1_6 
REMARK    3  A    between atoms: C7_17  and  N5_18 
ROOT
HETATM    1  C1  UNL     1      90.949  64.035  20.381  1.00  0.00     0.055 C 
HETATM    2  C2  UNL     1      90.732  65.435  19.875  1.00  0.00     0.015 A 
HETATM    3  C3  UNL     1      91.517  66.434  20.416  1.00  0.00     0.087 A 
HETATM    4  N1  UNL     1      91.219  67.696  20.016  1.00  0.00    -0.187 N 
ATOM      5  H1  UNL     1      91.766  68.472  20.388  1.00  0.00     0.184 HD
HETATM    6  C6  UNL     1      90.206  67.965  19.128  1.00  0.00     0.700 A 
HETATM    7  N2  UNL     1      89.994  69.164  18.722  1.00  0.00    -0.233 N 
ATOM      8  H21 UNL     1      89.243  69.365  18.062  1.00  0.00     0.174 HD
ATOM      9  H22 UNL     1      90.557  69.925  19.103  1.00  0.00     0.174 HD
HETATM   10  N3  UNL     1      89.464  66.963  18.624  1.00  0.00    -0.055 N 
HETATM   11  N4  UNL     1      88.441  66.903  17.798  1.00  0.00    -0.109 N 
ATOM     12  H4  UNL     1      88.022  67.715  17.345  1.00  0.00     0.207 HD
HETATM   13  C7  UNL     1      88.024  65.661  17.630  1.00  0.00     0.699 A 
HETATM   14  N7  UNL     1      88.848  64.880  18.409  1.00  0.00    -0.172 N 
ATOM     15  H7  UNL     1      88.801  63.867  18.519  1.00  0.00     0.186 HD
HETATM   16  C11 UNL     1      89.721  65.704  18.994  1.00  0.00     0.169 A 
ENDROOT
BRANCH  13  17
HETATM   17  N5  UNL     1      86.948  65.095  16.856  1.00  0.00    -0.190 N 
HETATM   18  C8  UNL     1      85.807  65.752  16.284  1.00  0.00     0.170 C 
HETATM   19  C9  UNL     1      85.450  64.824  15.126  1.00  0.00     0.254 C 
HETATM   20  N6  UNL     1      85.811  63.541  15.632  1.00  0.00    -0.057 N 
HETATM   21  C10 UNL     1      86.869  63.690  16.576  1.00  0.00     0.374 C 
ATOM     22  H62 UNL     1      85.013  63.039  16.020  1.00  0.00     0.279 HD
ATOM     23  H61 UNL     1      86.046  62.884  14.887  1.00  0.00     0.279 HD
ENDBRANCH  13  17
BRANCH   3  24
HETATM   24  C4  UNL     1      92.721  66.136  21.189  1.00  0.00     0.067 C 
HETATM   25  C5  UNL     1      93.964  65.760  20.391  1.00  0.00     0.078 C 
BRANCH  24  26
HETATM   26  O1  UNL     1      92.916  66.738  22.406  1.00  0.00    -0.363 OA
ATOM     27  H1  UNL     1      92.972  66.207  23.191  1.00  0.00     0.217 HD
ENDBRANCH  24  26
ENDBRANCH   3  24
TORSDOF 3
ENDMDL
MODEL 3
REMARK VINA RESULT: -8.090819124      1.532      2.576
REMARK  3 active torsions:
REMARK  status: ('A' for Active; 'I' for Inactive)
REMARK    1  A    between atoms: C3_3  and  C4_4 
REMARK    2  A    between atoms: C4_4  and  O1_6 
REMARK    3  A    between atoms: C7_17  and  N5_18 
ROOT
HETATM    1  C1  UNL     1      89.993  68.551  17.776  1.00  0.00     0.055 C 
HETATM    2  C2  UNL     1      89.407  67.175  17.944  1.00  0.00     0.015 A 
HETATM    3  C3  UNL     1      88.138  66.960  17.442  1.00  0.00     0.087 A 
HETATM    4  N1  UNL     1      87.601  65.743  17.708  1.00  0.00    -0.187 N 
ATOM      5  H1  UNL     1      86.664  65.533  17.363  1.00  0.00     0.184 HD
HETATM    6  C6  UNL     1      88.274  64.783  18.424  1.00  0.00     0.700 A 
HETATM    7  N2  UNL     1      87.761  63.620  18.601  1.00  0.00    -0.233 N 
ATOM      8  H21 UNL     1      88.260  62.907  19.133  1.00  0.00     0.174 HD
ATOM      9  H22 UNL     1      86.825  63.430  18.243  1.00  0.00     0.174 HD
HETATM   10  N3  UNL     1      89.508  65.033  18.896  1.00  0.00    -0.055 N 
HETATM   11  N4  UNL     1      90.372  64.348  19.615  1.00  0.00    -0.109 N 
ATOM     12  H4  UNL     1      90.217  63.395  19.942  1.00  0.00     0.207 HD
HETATM   13  C7  UNL     1      91.465  65.049  19.860  1.00  0.00     0.699 A 
HETATM   14  N7  UNL     1      91.273  66.267  19.248  1.00  0.00    -0.172 N 
ATOM     15  H7  UNL     1      91.922  67.055  19.242  1.00  0.00     0.186 HD
HETATM   16  C11 UNL     1      90.074  66.221  18.661  1.00  0.00     0.169 A 
ENDROOT
BRANCH  13  17
HETATM   17  N5  UNL     1      92.664  64.751  20.603  1.00  0.00    -0.190 N 
HETATM   18  C8  UNL     1      93.470  65.630  21.400  1.00  0.00     0.170 C 
HETATM   19  C9  UNL     1      94.131  64.661  22.377  1.00  0.00     0.254 C 
HETATM   20  N6  UNL     1      94.279  63.480  21.592  1.00  0.00    -0.057 N 
HETATM   21  C10 UNL     1      93.255  63.444  20.602  1.00  0.00     0.374 C 
ATOM     22  H62 UNL     1      95.212  63.398  21.188  1.00  0.00     0.279 HD
ATOM     23  H61 UNL     1      94.295  62.635  22.164  1.00  0.00     0.279 HD
ENDBRANCH  13  17
BRANCH   3  24
HETATM   24  C4  UNL     1      87.511  67.891  16.507  1.00  0.00     0.067 C 
HETATM   25  C5  UNL     1      87.523  67.488  15.037  1.00  0.00     0.078 C 
BRANCH  24  26
HETATM   26  O1  UNL     1      86.478  68.688  16.929  1.00  0.00    -0.363 OA
ATOM     27  H1  UNL     1      85.742  68.852  16.352  1.00  0.00     0.217 HD
ENDBRANCH  24  26
ENDBRANCH   3  24
TORSDOF 3
ENDMDL
MODEL 4
REMARK VINA RESULT: -7.744226258      3.275      4.660
REMARK  3 active torsions:
REMARK  status: ('A' for Active; 'I' for Inactive)
REMARK    1  A    between atoms: C3_3  and  C4_4 
REMARK    2  A    between atoms: C4_4  and  O1_6 
REMARK    3  A    between atoms: C7_17  and  N5_18 
ROOT
HETATM    1  C1  UNL     1      87.201  61.964  17.206  1.00  0.00     0.055 C 
HETATM    2  C2  UNL     1      86.834  63.406  16.982  1.00  0.00     0.015 A 
HETATM    3  C3  UNL     1      85.797  63.668  16.107  1.00  0.00     0.087 A 
HETATM    4  N1  UNL     1      85.567  64.979  15.847  1.00  0.00    -0.187 N 
ATOM      5  H1  UNL     1      84.815  65.229  15.205  1.00  0.00     0.184 HD
HETATM    6  C6  UNL     1      86.311  65.984  16.419  1.00  0.00     0.700 A 
HETATM    7  N2  UNL     1      86.023  67.215  16.201  1.00  0.00    -0.233 N 
ATOM      8  H21 UNL     1      86.575  67.961  16.624  1.00  0.00     0.174 HD
ATOM      9  H22 UNL     1      85.263  67.442  15.558  1.00  0.00     0.174 HD
HETATM   10  N3  UNL     1      87.312  65.685  17.265  1.00  0.00    -0.055 N 
HETATM   11  N4  UNL     1      88.193  66.399  17.934  1.00  0.00    -0.109 N 
ATOM     12  H4  UNL     1      88.234  67.418  17.920  1.00  0.00     0.207 HD
HETATM   13  C7  UNL     1      89.017  65.633  18.624  1.00  0.00     0.699 A 
HETATM   14  N7  UNL     1      88.625  64.337  18.371  1.00  0.00    -0.172 N 
ATOM     15  H7  UNL     1      89.052  63.488  18.742  1.00  0.00     0.186 HD
HETATM   16  C11 UNL     1      87.576  64.405  17.547  1.00  0.00     0.169 A 
ENDROOT
BRANCH  13  17
HETATM   17  N5  UNL     1      90.139  65.935  19.478  1.00  0.00    -0.190 N 
HETATM   18  C8  UNL     1      90.863  65.061  20.356  1.00  0.00     0.170 C 
HETATM   19  C9  UNL     1      92.223  65.748  20.443  1.00  0.00     0.254 C 
HETATM   20  N6  UNL     1      91.882  67.128  20.339  1.00  0.00    -0.057 N 
HETATM   21  C10 UNL     1      90.681  67.259  19.583  1.00  0.00     0.374 C 
ATOM     22  H62 UNL     1      91.817  67.580  21.251  1.00  0.00     0.279 HD
ATOM     23  H61 UNL     1      92.644  67.687  19.955  1.00  0.00     0.279 HD
ENDBRANCH  13  17
BRANCH   3  24
HETATM   24  C4  UNL     1      84.876  62.623  15.668  1.00  0.00     0.067 C 
HETATM   25  C5  UNL     1      83.719  62.300  16.606  1.00  0.00     0.078 C 
BRANCH  24  26
HETATM   26  O1  UNL     1      84.673  62.413  14.328  1.00  0.00    -0.363 OA
ATOM     27  H1  UNL     1      83.857  62.030  14.029  1.00  0.00     0.217 HD
ENDBRANCH  24  26
ENDBRANCH   3  24
TORSDOF 3
ENDMDL
MODEL 5
REMARK VINA RESULT: -7.693673079      1.253      1.493
REMARK  3 active torsions:
REMARK  status: ('A' for Active; 'I' for Inactive)
REMARK    1  A    between atoms: C3_3  and  C4_4 
REMARK    2  A    between atoms: C4_4  and  O1_6 
REMARK    3  A    between atoms: C7_17  and  N5_18 
ROOT
HETATM    1  C1  UNL     1      88.590  64.042  18.313  1.00  0.00     0.055 C 
HETATM    2  C2  UNL     1      88.965  65.491  18.465  1.00  0.00     0.015 A 
HETATM    3  C3  UNL     1      88.246  66.413  17.728  1.00  0.00     0.087 A 
HETATM    4  N1  UNL     1      88.683  67.694  17.807  1.00  0.00    -0.187 N 
ATOM      5  H1  UNL     1      88.190  68.416  17.280  1.00  0.00     0.184 HD
HETATM    6  C6  UNL     1      89.765  68.057  18.572  1.00  0.00     0.700 A 
HETATM    7  N2  UNL     1      90.110  69.289  18.675  1.00  0.00    -0.233 N 
ATOM      8  H21 UNL     1      90.914  69.558  19.242  1.00  0.00     0.174 HD
ATOM      9  H22 UNL     1      89.600  69.994  18.143  1.00  0.00     0.174 HD
HETATM   10  N3  UNL     1      90.438  67.128  19.274  1.00  0.00    -0.055 N 
HETATM   11  N4  UNL     1      91.497  67.156  20.055  1.00  0.00    -0.109 N 
ATOM     12  H4  UNL     1      92.015  68.003  20.289  1.00  0.00     0.207 HD
HETATM   13  C7  UNL     1      91.806  65.951  20.500  1.00  0.00     0.699 A 
HETATM   14  N7  UNL     1      90.870  65.100  19.956  1.00  0.00    -0.172 N 
ATOM     15  H7  UNL     1      90.816  64.090  20.089  1.00  0.00     0.186 HD
HETATM   16  C11 UNL     1      90.045  65.851  19.222  1.00  0.00     0.169 A 
ENDROOT
BRANCH  13  17
HETATM   17  N5  UNL     1      92.867  65.472  21.349  1.00  0.00    -0.190 N 
HETATM   18  C8  UNL     1      93.439  64.158  21.422  1.00  0.00     0.170 C 
HETATM   19  C9  UNL     1      94.836  64.445  21.965  1.00  0.00     0.254 C 
HETATM   20  N6  UNL     1      94.616  65.571  22.811  1.00  0.00    -0.057 N 
HETATM   21  C10 UNL     1      93.501  66.313  22.323  1.00  0.00     0.374 C 
ATOM     22  H62 UNL     1      94.506  65.304  23.790  1.00  0.00     0.279 HD
ATOM     23  H61 UNL     1      95.451  66.148  22.913  1.00  0.00     0.279 HD
ENDBRANCH  13  17
BRANCH   3  24
HETATM   24  C4  UNL     1      86.978  66.070  17.089  1.00  0.00     0.067 C 
HETATM   25  C5  UNL     1      85.839  67.068  17.263  1.00  0.00     0.078 C 
BRANCH  24  26
HETATM   26  O1  UNL     1      86.974  65.306  15.951  1.00  0.00    -0.363 OA
ATOM     27  H1  UNL     1      86.492  65.600  15.187  1.00  0.00     0.217 HD
ENDBRANCH  24  26
ENDBRANCH   3  24
TORSDOF 3
ENDMDL
