MODEL 1
REMARK VINA RESULT: -8.986476741      0.000      0.000
REMARK  2 active torsions:
REMARK  status: ('A' for Active; 'I' for Inactive)
REMARK    1  A    between atoms: C5_11  and  C6_12 
REMARK    2  A    between atoms: C7_17  and  C8_18 
ROOT
HETATM    1  C6  UNL     1      90.376  66.627  19.222  1.00  0.00     0.182 A 
HETATM    2  N3  UNL     1      90.905  67.484  20.089  1.00  0.00    -0.277 N 
ATOM      3  H3  UNL     1      90.642  68.463  20.200  1.00  0.00     0.189 HD
HETATM    4  N4  UNL     1      91.826  66.847  20.776  1.00  0.00    -0.274 N 
ATOM      5  H4  UNL     1      92.398  67.256  21.515  1.00  0.00     0.189 HD
HETATM    6  C7  UNL     1      91.898  65.575  20.356  1.00  0.00     0.212 A 
HETATM    7  O3  UNL     1      90.999  65.488  19.411  1.00  0.00    -0.269 OA
ENDROOT
BRANCH   1   8
HETATM    8  C5  UNL     1      89.304  66.881  18.233  1.00  0.00     0.107 A 
HETATM    9  C2  UNL     1      88.385  65.932  17.904  1.00  0.00     0.030 A 
HETATM   10  C1  UNL     1      88.404  64.579  18.519  1.00  0.00     0.069 C 
HETATM   11  N1  UNL     1      87.449  66.277  16.985  1.00  0.00    -0.312 N 
HETATM   12  C3  UNL     1      87.407  67.494  16.411  1.00  0.00     0.327 A 
ATOM     13  H1  UNL     1      86.748  65.587  16.718  1.00  0.00     0.170 HD
HETATM   14  O1  UNL     1      86.488  67.731  15.555  1.00  0.00    -0.247 OA
HETATM   15  N2  UNL     1      88.299  68.433  16.723  1.00  0.00    -0.275 N 
HETATM   16  C4  UNL     1      89.243  68.117  17.633  1.00  0.00     0.265 A 
ATOM     17  H2  UNL     1      88.270  69.356  16.289  1.00  0.00     0.173 HD
HETATM   18  O2  UNL     1      90.074  69.024  17.911  1.00  0.00    -0.267 OA
ENDBRANCH   1   8
BRANCH   6  19
HETATM   19  C8  UNL     1      92.797  64.547  20.868  1.00  0.00     0.191 A 
HETATM   20  N5  UNL     1      92.879  63.289  20.430  1.00  0.00    -0.265 N 
HETATM   21  N6  UNL     1      93.798  62.677  21.136  1.00  0.00    -0.226 N 
ATOM     22  H5  UNL     1      92.324  62.877  19.680  1.00  0.00     0.190 HD
HETATM   23  N7  UNL     1      94.332  63.486  22.030  1.00  0.00    -0.226 N 
ATOM     24  H6  UNL     1      94.065  61.701  21.009  1.00  0.00     0.210 HD
HETATM   25  N8  UNL     1      93.705  64.647  21.857  1.00  0.00    -0.265 N 
ATOM     26  H7  UNL     1      95.065  63.270  22.705  1.00  0.00     0.210 HD
ATOM     27  H8  UNL     1      93.886  65.492  22.397  1.00  0.00     0.190 HD
ENDBRANCH   6  19
TORSDOF 2
ENDMDL
MODEL 2
REMARK VINA RESULT: -8.856224420      1.046      1.239
REMARK  2 active torsions:
REMARK  status: ('A' for Active; 'I' for Inactive)
REMARK    1  A    between atoms: C5_11  and  C6_12 
REMARK    2  A    between atoms: C7_17  and  C8_18 
ROOT
HETATM    1  C6  UNL     1      89.497  66.112  18.915  1.00  0.00     0.182 A 
HETATM    2  N3  UNL     1      89.486  66.641  20.134  1.00  0.00    -0.277 N 
ATOM      3  H3  UNL     1      88.802  67.306  20.494  1.00  0.00     0.189 HD
HETATM    4  N4  UNL     1      90.513  66.154  20.794  1.00  0.00    -0.274 N 
ATOM      5  H4  UNL     1      90.756  66.383  21.758  1.00  0.00     0.189 HD
HETATM    6  C7  UNL     1      91.194  65.311  20.004  1.00  0.00     0.212 A 
HETATM    7  O3  UNL     1      90.539  65.317  18.873  1.00  0.00    -0.269 OA
ENDROOT
BRANCH   1   8
HETATM    8  C5  UNL     1      88.540  66.357  17.812  1.00  0.00     0.107 A 
HETATM    9  C2  UNL     1      87.701  65.387  17.356  1.00  0.00     0.030 A 
HETATM   10  C1  UNL     1      87.694  64.021  17.940  1.00  0.00     0.069 C 
HETATM   11  N1  UNL     1      86.868  65.725  16.340  1.00  0.00    -0.312 N 
HETATM   12  C3  UNL     1      86.851  66.954  15.791  1.00  0.00     0.327 A 
ATOM     13  H1  UNL     1      86.228  65.018  15.977  1.00  0.00     0.170 HD
HETATM   14  O1  UNL     1      86.032  67.181  14.837  1.00  0.00    -0.247 OA
HETATM   15  N2  UNL     1      87.667  67.912  16.225  1.00  0.00    -0.275 N 
HETATM   16  C4  UNL     1      88.507  67.605  17.235  1.00  0.00     0.265 A 
ATOM     17  H2  UNL     1      87.657  68.844  15.811  1.00  0.00     0.173 HD
HETATM   18  O2  UNL     1      89.267  68.531  17.628  1.00  0.00    -0.267 OA
ENDBRANCH   1   8
BRANCH   6  19
HETATM   19  C8  UNL     1      92.396  64.568  20.367  1.00  0.00     0.191 A 
HETATM   20  N5  UNL     1      93.642  65.045  20.361  1.00  0.00    -0.265 N 
HETATM   21  N6  UNL     1      94.443  64.082  20.747  1.00  0.00    -0.226 N 
ATOM     22  H5  UNL     1      93.922  65.990  20.102  1.00  0.00     0.190 HD
HETATM   23  N7  UNL     1      93.770  62.978  21.010  1.00  0.00    -0.226 N 
ATOM     24  H6  UNL     1      95.455  64.174  20.833  1.00  0.00     0.210 HD
HETATM   25  N8  UNL     1      92.499  63.289  20.772  1.00  0.00    -0.265 N 
ATOM     26  H7  UNL     1      94.143  62.083  21.327  1.00  0.00     0.210 HD
ATOM     27  H8  UNL     1      91.713  62.648  20.880  1.00  0.00     0.190 HD
ENDBRANCH   6  19
TORSDOF 2
ENDMDL
MODEL 3
REMARK VINA RESULT: -8.707465069      3.137      6.964
REMARK  2 active torsions:
REMARK  status: ('A' for Active; 'I' for Inactive)
REMARK    1  A    between atoms: C5_11  and  C6_12 
REMARK    2  A    between atoms: C7_17  and  C8_18 
ROOT
HETATM    1  C6  UNL     1      92.259  66.783  20.022  1.00  0.00     0.182 A 
HETATM    2  N3  UNL     1      90.981  67.029  20.292  1.00  0.00    -0.277 N 
ATOM      3  H3  UNL     1      90.398  66.517  20.953  1.00  0.00     0.189 HD
HETATM    4  N4  UNL     1      90.603  68.050  19.556  1.00  0.00    -0.274 N 
ATOM      5  H4  UNL     1      89.670  68.462  19.556  1.00  0.00     0.189 HD
HETATM    6  C7  UNL     1      91.634  68.468  18.807  1.00  0.00     0.212 A 
HETATM    7  O3  UNL     1      92.618  67.668  19.124  1.00  0.00    -0.269 OA
ENDROOT
BRANCH   1   8
HETATM    8  C5  UNL     1      93.122  65.729  20.603  1.00  0.00     0.107 A 
HETATM    9  C2  UNL     1      93.387  64.568  19.943  1.00  0.00     0.030 A 
HETATM   10  C1  UNL     1      92.825  64.288  18.596  1.00  0.00     0.069 C 
HETATM   11  N1  UNL     1      94.190  63.674  20.573  1.00  0.00    -0.312 N 
HETATM   12  C3  UNL     1      94.714  63.900  21.792  1.00  0.00     0.327 A 
ATOM     13  H1  UNL     1      94.405  62.795  20.103  1.00  0.00     0.170 HD
HETATM   14  O1  UNL     1      95.460  63.000  22.308  1.00  0.00    -0.247 OA
HETATM   15  N2  UNL     1      94.463  65.030  22.450  1.00  0.00    -0.275 N 
HETATM   16  C4  UNL     1      93.667  65.938  21.848  1.00  0.00     0.265 A 
ATOM     17  H2  UNL     1      94.858  65.204  23.374  1.00  0.00     0.173 HD
HETATM   18  O2  UNL     1      93.447  66.999  22.492  1.00  0.00    -0.267 OA
ENDBRANCH   1   8
BRANCH   6  19
HETATM   19  C8  UNL     1      91.618  69.576  17.858  1.00  0.00     0.191 A 
HETATM   20  N5  UNL     1      92.585  70.481  17.694  1.00  0.00    -0.265 N 
HETATM   21  N6  UNL     1      92.204  71.310  16.753  1.00  0.00    -0.226 N 
ATOM     22  H5  UNL     1      93.464  70.520  18.209  1.00  0.00     0.190 HD
HETATM   23  N7  UNL     1      91.014  70.987  16.285  1.00  0.00    -0.226 N 
ATOM     24  H6  UNL     1      92.756  72.102  16.426  1.00  0.00     0.210 HD
HETATM   25  N8  UNL     1      90.657  69.908  16.976  1.00  0.00    -0.265 N 
ATOM     26  H7  UNL     1      90.484  71.461  15.553  1.00  0.00     0.210 HD
ATOM     27  H8  UNL     1      89.778  69.405  16.856  1.00  0.00     0.190 HD
ENDBRANCH   6  19
TORSDOF 2
ENDMDL
MODEL 4
REMARK VINA RESULT: -8.612610669      1.515      2.467
REMARK  2 active torsions:
REMARK  status: ('A' for Active; 'I' for Inactive)
REMARK    1  A    between atoms: C5_11  and  C6_12 
REMARK    2  A    between atoms: C7_17  and  C8_18 
ROOT
HETATM    1  C6  UNL     1      89.418  65.731  18.991  1.00  0.00     0.182 A 
HETATM    2  N3  UNL     1      89.453  66.520  20.060  1.00  0.00    -0.277 N 
ATOM      3  H3  UNL     1      88.816  67.291  20.257  1.00  0.00     0.189 HD
HETATM    4  N4  UNL     1      90.454  66.129  20.817  1.00  0.00    -0.274 N 
ATOM      5  H4  UNL     1      90.720  66.552  21.706  1.00  0.00     0.189 HD
HETATM    6  C7  UNL     1      91.071  65.087  20.240  1.00  0.00     0.212 A 
HETATM    7  O3  UNL     1      90.407  64.881  19.133  1.00  0.00    -0.269 OA
ENDROOT
BRANCH   1   8
HETATM    8  C5  UNL     1      88.468  65.782  17.856  1.00  0.00     0.107 A 
HETATM    9  C2  UNL     1      88.394  66.857  17.024  1.00  0.00     0.030 A 
HETATM   10  C1  UNL     1      89.266  68.047  17.206  1.00  0.00     0.069 C 
HETATM   11  N1  UNL     1      87.485  66.794  16.019  1.00  0.00    -0.312 N 
HETATM   12  C3  UNL     1      86.683  65.730  15.830  1.00  0.00     0.327 A 
ATOM     13  H1  UNL     1      87.407  67.585  15.381  1.00  0.00     0.170 HD
HETATM   14  O1  UNL     1      85.856  65.758  14.856  1.00  0.00    -0.247 OA
HETATM   15  N2  UNL     1      86.743  64.671  16.636  1.00  0.00    -0.275 N 
HETATM   16  C4  UNL     1      87.638  64.706  17.645  1.00  0.00     0.265 A 
ATOM     17  H2  UNL     1      86.136  63.863  16.495  1.00  0.00     0.173 HD
HETATM   18  O2  UNL     1      87.675  63.691  18.392  1.00  0.00    -0.267 OA
ENDBRANCH   1   8
BRANCH   6  19
HETATM   19  C8  UNL     1      92.227  64.370  20.767  1.00  0.00     0.191 A 
HETATM   20  N5  UNL     1      93.002  64.768  21.777  1.00  0.00    -0.265 N 
HETATM   21  N6  UNL     1      93.931  63.860  21.952  1.00  0.00    -0.226 N 
ATOM     22  H5  UNL     1      92.892  65.626  22.316  1.00  0.00     0.190 HD
HETATM   23  N7  UNL     1      93.800  62.870  21.091  1.00  0.00    -0.226 N 
ATOM     24  H6  UNL     1      94.661  63.914  22.663  1.00  0.00     0.210 HD
HETATM   25  N8  UNL     1      92.739  63.194  20.358  1.00  0.00    -0.265 N 
ATOM     26  H7  UNL     1      94.384  62.038  21.007  1.00  0.00     0.210 HD
ATOM     27  H8  UNL     1      92.366  62.631  19.594  1.00  0.00     0.190 HD
ENDBRANCH   6  19
TORSDOF 2
ENDMDL
MODEL 5
REMARK VINA RESULT: -8.567885785      2.038      6.689
REMARK  2 active torsions:
REMARK  status: ('A' for Active; 'I' for Inactive)
REMARK    1  A    between atoms: C5_11  and  C6_12 
REMARK    2  A    between atoms: C7_17  and  C8_18 
ROOT
HETATM    1  C6  UNL     1      91.990  66.573  19.588  1.00  0.00     0.182 A 
HETATM    2  N3  UNL     1      92.236  67.846  19.295  1.00  0.00    -0.277 N 
ATOM      3  H3  UNL     1      93.098  68.353  19.497  1.00  0.00     0.189 HD
HETATM    4  N4  UNL     1      91.172  68.336  18.699  1.00  0.00    -0.274 N 
ATOM      5  H4  UNL     1      91.075  69.293  18.360  1.00  0.00     0.189 HD
HETATM    6  C7  UNL     1      90.233  67.382  18.606  1.00  0.00     0.212 A 
HETATM    7  O3  UNL     1      90.775  66.330  19.159  1.00  0.00    -0.269 OA
ENDROOT
BRANCH   1   8
HETATM    8  C5  UNL     1      92.888  65.608  20.263  1.00  0.00     0.107 A 
HETATM    9  C2  UNL     1      93.296  64.459  19.659  1.00  0.00     0.030 A 
HETATM   10  C1  UNL     1      92.865  64.103  18.282  1.00  0.00     0.069 C 
HETATM   11  N1  UNL     1      94.118  63.649  20.374  1.00  0.00    -0.312 N 
HETATM   12  C3  UNL     1      94.525  63.945  21.622  1.00  0.00     0.327 A 
ATOM     13  H1  UNL     1      94.440  62.781  19.947  1.00  0.00     0.170 HD
HETATM   14  O1  UNL     1      95.300  63.123  22.219  1.00  0.00    -0.247 OA
HETATM   15  N2  UNL     1      94.134  65.066  22.226  1.00  0.00    -0.275 N 
HETATM   16  C4  UNL     1      93.315  65.890  21.539  1.00  0.00     0.265 A 
ATOM     17  H2  UNL     1      94.440  65.292  23.172  1.00  0.00     0.173 HD
HETATM   18  O2  UNL     1      92.961  66.944  22.134  1.00  0.00    -0.267 OA
ENDBRANCH   1   8
BRANCH   6  19
HETATM   19  C8  UNL     1      88.909  67.530  18.010  1.00  0.00     0.191 A 
HETATM   20  N5  UNL     1      87.864  66.727  18.215  1.00  0.00    -0.265 N 
HETATM   21  N6  UNL     1      86.860  67.186  17.508  1.00  0.00    -0.226 N 
ATOM     22  H5  UNL     1      87.849  65.903  18.815  1.00  0.00     0.190 HD
HETATM   23  N7  UNL     1      87.203  68.269  16.838  1.00  0.00    -0.226 N 
ATOM     24  H6  UNL     1      85.934  66.759  17.480  1.00  0.00     0.210 HD
HETATM   25  N8  UNL     1      88.478  68.476  17.155  1.00  0.00    -0.265 N 
ATOM     26  H7  UNL     1      86.619  68.825  16.214  1.00  0.00     0.210 HD
ATOM     27  H8  UNL     1      89.048  69.244  16.801  1.00  0.00     0.190 HD
ENDBRANCH   6  19
TORSDOF 2
ENDMDL
