MODEL 1
REMARK VINA RESULT: -7.322886257      0.000      0.000
REMARK  3 active torsions:
REMARK  status: ('A' for Active; 'I' for Inactive)
REMARK    1  A    between atoms: N1_2  and  C2_4 
REMARK    2  A    between atoms: N4_10  and  N5_12 
REMARK    3  A    between atoms: N5_12  and  N6_14 
ROOT
HETATM    1  C2  UNL     1      92.785  67.806  17.047  1.00  0.00     0.689 C 
HETATM    2  N2  UNL     1      93.592  68.120  18.005  1.00  0.00    -0.131 N 
ATOM      3  H2  UNL     1      94.459  68.608  17.783  1.00  0.00     0.205 HD
HETATM    4  N3  UNL     1      93.309  67.809  19.333  1.00  0.00    -0.271 N 
ATOM      5  H3  UNL     1      93.964  68.068  20.071  1.00  0.00     0.189 HD
HETATM    6  C3  UNL     1      92.103  67.130  19.653  1.00  0.00     0.149 C 
HETATM    7  N4  UNL     1      91.977  66.561  20.798  1.00  0.00    -0.266 N 
ATOM      8  H4  UNL     1      91.110  66.073  21.027  1.00  0.00     0.190 HD
HETATM    9  C4  UNL     1      91.032  67.106  18.647  1.00  0.00     0.168 C 
HETATM   10  C5  UNL     1      90.109  65.896  18.833  1.00  0.00     0.048 C 
HETATM   11  C6  UNL     1      88.777  66.297  18.260  1.00  0.00     0.011 C 
HETATM   12  C7  UNL     1      88.829  67.803  18.106  1.00  0.00     0.081 C 
HETATM   13  C8  UNL     1      90.069  68.220  18.801  1.00  0.00     0.163 C 
HETATM   14  O3  UNL     1      90.279  69.266  19.388  1.00  0.00    -0.295 OA
HETATM   15  N7  UNL     1      91.550  67.119  17.299  1.00  0.00    -0.202 N 
ATOM     16  H7  UNL     1      91.050  66.650  16.543  1.00  0.00     0.179 HD
ENDROOT
BRANCH   7  17
HETATM   17  N5  UNL     1      93.017  66.604  21.732  1.00  0.00    -0.181 N 
ATOM     18  H5  UNL     1      93.106  67.423  22.334  1.00  0.00     0.214 HD
BRANCH  17  19
HETATM   19  N6  UNL     1      93.935  65.568  21.866  1.00  0.00    -0.024 N 
HETATM   20  O1  UNL     1      94.745  65.385  20.930  1.00  0.00    -0.515 OA
HETATM   21  O2  UNL     1      93.979  64.753  22.971  1.00  0.00    -0.515 OA
ENDBRANCH  17  19
ENDBRANCH   7  17
BRANCH   1  22
HETATM   22  N1  UNL     1      93.075  68.124  15.691  1.00  0.00    -0.229 N 
HETATM   23  C1  UNL     1      94.250  68.844  15.270  1.00  0.00     0.165 C 
ATOM     24  H1  UNL     1      92.413  67.824  14.976  1.00  0.00     0.177 HD
ENDBRANCH   1  22
TORSDOF 3
ENDMDL
MODEL 2
REMARK VINA RESULT: -7.040289007      2.249      3.707
REMARK  3 active torsions:
REMARK  status: ('A' for Active; 'I' for Inactive)
REMARK    1  A    between atoms: N1_2  and  C2_4 
REMARK    2  A    between atoms: N4_10  and  N5_12 
REMARK    3  A    between atoms: N5_12  and  N6_14 
ROOT
HETATM    1  C2  UNL     1      89.858  65.112  18.882  1.00  0.00     0.689 C 
HETATM    2  N2  UNL     1      90.447  64.462  19.829  1.00  0.00    -0.131 N 
ATOM      3  H2  UNL     1      90.132  63.519  20.055  1.00  0.00     0.205 HD
HETATM    4  N3  UNL     1      91.502  65.016  20.550  1.00  0.00    -0.271 N 
ATOM      5  H3  UNL     1      91.951  64.482  21.295  1.00  0.00     0.189 HD
HETATM    6  C3  UNL     1      91.949  66.329  20.243  1.00  0.00     0.149 C 
HETATM    7  N4  UNL     1      92.682  66.966  21.084  1.00  0.00    -0.266 N 
ATOM      8  H4  UNL     1      93.004  67.909  20.863  1.00  0.00     0.190 HD
HETATM    9  C4  UNL     1      91.550  66.915  18.956  1.00  0.00     0.168 C 
HETATM   10  C5  UNL     1      91.547  68.447  19.010  1.00  0.00     0.048 C 
HETATM   11  C6  UNL     1      91.785  68.913  17.599  1.00  0.00     0.011 C 
HETATM   12  C7  UNL     1      92.288  67.700  16.842  1.00  0.00     0.081 C 
HETATM   13  C8  UNL     1      92.537  66.673  17.879  1.00  0.00     0.163 C 
HETATM   14  O3  UNL     1      93.379  65.793  17.870  1.00  0.00    -0.295 OA
HETATM   15  N7  UNL     1      90.257  66.442  18.520  1.00  0.00    -0.202 N 
ATOM     16  H7  UNL     1      89.642  67.040  17.968  1.00  0.00     0.179 HD
ENDROOT
BRANCH   7  17
HETATM   17  N5  UNL     1      93.044  66.377  22.301  1.00  0.00    -0.181 N 
ATOM     18  H5  UNL     1      92.313  66.145  22.974  1.00  0.00     0.214 HD
BRANCH  17  19
HETATM   19  N6  UNL     1      94.368  66.097  22.623  1.00  0.00    -0.024 N 
HETATM   20  O1  UNL     1      94.702  66.179  23.825  1.00  0.00    -0.515 OA
HETATM   21  O2  UNL     1      95.301  65.740  21.681  1.00  0.00    -0.515 OA
ENDBRANCH  17  19
ENDBRANCH   7  17
BRANCH   1  22
HETATM   22  N1  UNL     1      88.780  64.545  18.146  1.00  0.00    -0.229 N 
HETATM   23  C1  UNL     1      87.762  65.323  17.485  1.00  0.00     0.165 C 
ATOM     24  H1  UNL     1      88.724  63.529  18.083  1.00  0.00     0.177 HD
ENDBRANCH   1  22
TORSDOF 3
ENDMDL
MODEL 3
REMARK VINA RESULT: -6.862683942      3.597      4.513
REMARK  3 active torsions:
REMARK  status: ('A' for Active; 'I' for Inactive)
REMARK    1  A    between atoms: N1_2  and  C2_4 
REMARK    2  A    between atoms: N4_10  and  N5_12 
REMARK    3  A    between atoms: N5_12  and  N6_14 
ROOT
HETATM    1  C2  UNL     1      88.236  68.048  15.350  1.00  0.00     0.689 C 
HETATM    2  N2  UNL     1      88.766  68.562  16.409  1.00  0.00    -0.131 N 
ATOM      3  H2  UNL     1      89.143  69.509  16.366  1.00  0.00     0.205 HD
HETATM    4  N3  UNL     1      88.835  67.859  17.610  1.00  0.00    -0.271 N 
ATOM      5  H3  UNL     1      89.259  68.288  18.432  1.00  0.00     0.189 HD
HETATM    6  C3  UNL     1      88.311  66.541  17.681  1.00  0.00     0.149 C 
HETATM    7  N4  UNL     1      88.645  65.774  18.656  1.00  0.00    -0.266 N 
ATOM      8  H4  UNL     1      88.269  64.826  18.707  1.00  0.00     0.190 HD
HETATM    9  C4  UNL     1      87.394  66.099  16.621  1.00  0.00     0.168 C 
HETATM   10  C5  UNL     1      87.405  64.574  16.463  1.00  0.00     0.048 C 
HETATM   11  C6  UNL     1      86.059  64.205  15.901  1.00  0.00     0.011 C 
HETATM   12  C7  UNL     1      85.181  65.425  16.093  1.00  0.00     0.081 C 
HETATM   13  C8  UNL     1      85.970  66.338  16.951  1.00  0.00     0.163 C 
HETATM   14  O3  UNL     1      85.555  67.136  17.772  1.00  0.00    -0.295 OA
HETATM   15  N7  UNL     1      87.690  66.721  15.351  1.00  0.00    -0.202 N 
ATOM     16  H7  UNL     1      87.514  66.227  14.476  1.00  0.00     0.179 HD
ENDROOT
BRANCH   7  17
HETATM   17  N5  UNL     1      89.521  66.227  19.649  1.00  0.00    -0.181 N 
ATOM     18  H5  UNL     1      89.269  67.054  20.190  1.00  0.00     0.214 HD
BRANCH  17  19
HETATM   19  N6  UNL     1      90.725  65.586  19.922  1.00  0.00    -0.024 N 
HETATM   20  O1  UNL     1      91.781  66.223  19.714  1.00  0.00    -0.515 OA
HETATM   21  O2  UNL     1      90.790  64.302  20.403  1.00  0.00    -0.515 OA
ENDBRANCH  17  19
ENDBRANCH   7  17
BRANCH   1  22
HETATM   22  N1  UNL     1      88.167  68.767  14.125  1.00  0.00    -0.229 N 
HETATM   23  C1  UNL     1      89.318  69.305  13.444  1.00  0.00     0.165 C 
ATOM     24  H1  UNL     1      87.249  68.911  13.704  1.00  0.00     0.177 HD
ENDBRANCH   1  22
TORSDOF 3
ENDMDL
MODEL 4
REMARK VINA RESULT: -6.814050375      2.804      5.029
REMARK  3 active torsions:
REMARK  status: ('A' for Active; 'I' for Inactive)
REMARK    1  A    between atoms: N1_2  and  C2_4 
REMARK    2  A    between atoms: N4_10  and  N5_12 
REMARK    3  A    between atoms: N5_12  and  N6_14 
ROOT
HETATM    1  C2  UNL     1      89.007  65.460  18.790  1.00  0.00     0.689 C 
HETATM    2  N2  UNL     1      88.857  66.721  19.019  1.00  0.00    -0.131 N 
ATOM      3  H2  UNL     1      87.914  67.100  19.115  1.00  0.00     0.205 HD
HETATM    4  N3  UNL     1      89.948  67.579  19.141  1.00  0.00    -0.271 N 
ATOM      5  H3  UNL     1      89.802  68.572  19.322  1.00  0.00     0.189 HD
HETATM    6  C3  UNL     1      91.264  67.062  19.010  1.00  0.00     0.149 C 
HETATM    7  N4  UNL     1      92.246  67.863  18.800  1.00  0.00    -0.266 N 
ATOM      8  H4  UNL     1      93.192  67.491  18.706  1.00  0.00     0.190 HD
HETATM    9  C4  UNL     1      91.454  65.609  19.123  1.00  0.00     0.168 C 
HETATM   10  C5  UNL     1      92.712  65.143  18.380  1.00  0.00     0.048 C 
HETATM   11  C6  UNL     1      93.160  63.883  19.070  1.00  0.00     0.011 C 
HETATM   12  C7  UNL     1      92.413  63.845  20.388  1.00  0.00     0.081 C 
HETATM   13  C8  UNL     1      91.764  65.171  20.503  1.00  0.00     0.163 C 
HETATM   14  O3  UNL     1      91.521  65.797  21.519  1.00  0.00    -0.295 OA
HETATM   15  N7  UNL     1      90.308  64.871  18.646  1.00  0.00    -0.202 N 
ATOM     16  H7  UNL     1      90.421  63.953  18.215  1.00  0.00     0.179 HD
ENDROOT
BRANCH   7  17
HETATM   17  N5  UNL     1      92.029  69.241  18.698  1.00  0.00    -0.181 N 
ATOM     18  H5  UNL     1      91.141  69.626  19.021  1.00  0.00     0.214 HD
BRANCH  17  19
HETATM   19  N6  UNL     1      92.984  70.104  18.170  1.00  0.00    -0.024 N 
HETATM   20  O1  UNL     1      93.398  71.029  18.902  1.00  0.00    -0.515 OA
HETATM   21  O2  UNL     1      93.477  69.975  16.894  1.00  0.00    -0.515 OA
ENDBRANCH  17  19
ENDBRANCH   7  17
BRANCH   1  22
HETATM   22  N1  UNL     1      87.892  64.585  18.666  1.00  0.00    -0.229 N 
HETATM   23  C1  UNL     1      87.711  63.665  17.572  1.00  0.00     0.165 C 
ATOM     24  H1  UNL     1      87.178  64.612  19.394  1.00  0.00     0.177 HD
ENDBRANCH   1  22
TORSDOF 3
ENDMDL
MODEL 5
REMARK VINA RESULT: -6.781622245      2.066      3.718
REMARK  3 active torsions:
REMARK  status: ('A' for Active; 'I' for Inactive)
REMARK    1  A    between atoms: N1_2  and  C2_4 
REMARK    2  A    between atoms: N4_10  and  N5_12 
REMARK    3  A    between atoms: N5_12  and  N6_14 
ROOT
HETATM    1  C2  UNL     1      89.985  66.882  19.236  1.00  0.00     0.689 C 
HETATM    2  N2  UNL     1      90.254  66.106  20.231  1.00  0.00    -0.131 N 
ATOM      3  H2  UNL     1      89.507  65.542  20.637  1.00  0.00     0.205 HD
HETATM    4  N3  UNL     1      91.538  66.017  20.765  1.00  0.00    -0.271 N 
ATOM      5  H3  UNL     1      91.724  65.396  21.552  1.00  0.00     0.189 HD
HETATM    6  C3  UNL     1      92.585  66.797  20.206  1.00  0.00     0.149 C 
HETATM    7  N4  UNL     1      93.672  66.972  20.868  1.00  0.00    -0.266 N 
ATOM      8  H4  UNL     1      94.425  67.533  20.467  1.00  0.00     0.190 HD
HETATM    9  C4  UNL     1      92.382  67.380  18.873  1.00  0.00     0.168 C 
HETATM   10  C5  UNL     1      93.243  68.632  18.666  1.00  0.00     0.048 C 
HETATM   11  C6  UNL     1      93.471  68.738  17.183  1.00  0.00     0.011 C 
HETATM   12  C7  UNL     1      93.082  67.393  16.606  1.00  0.00     0.081 C 
HETATM   13  C8  UNL     1      92.877  66.513  17.780  1.00  0.00     0.163 C 
HETATM   14  O3  UNL     1      93.071  65.313  17.856  1.00  0.00    -0.295 OA
HETATM   15  N7  UNL     1      90.995  67.699  18.624  1.00  0.00    -0.202 N 
ATOM     16  H7  UNL     1      90.739  68.486  18.027  1.00  0.00     0.179 HD
ENDROOT
BRANCH   7  17
HETATM   17  N5  UNL     1      93.833  66.402  22.136  1.00  0.00    -0.181 N 
ATOM     18  H5  UNL     1      93.025  65.975  22.591  1.00  0.00     0.214 HD
BRANCH  17  19
HETATM   19  N6  UNL     1      95.057  66.397  22.796  1.00  0.00    -0.024 N 
HETATM   20  O1  UNL     1      95.049  66.197  24.030  1.00  0.00    -0.515 OA
HETATM   21  O2  UNL     1      96.250  66.601  22.148  1.00  0.00    -0.515 OA
ENDBRANCH  17  19
ENDBRANCH   7  17
BRANCH   1  22
HETATM   22  N1  UNL     1      88.674  66.972  18.692  1.00  0.00    -0.229 N 
HETATM   23  C1  UNL     1      88.347  67.720  17.505  1.00  0.00     0.165 C 
ATOM     24  H1  UNL     1      87.921  66.478  19.171  1.00  0.00     0.177 HD
ENDBRANCH   1  22
TORSDOF 3
ENDMDL
