MODEL 1
REMARK VINA RESULT: -8.487123567      0.000      0.000
REMARK  6 active torsions:
REMARK  status: ('A' for Active; 'I' for Inactive)
REMARK    1  A    between atoms: N1_1  and  C1_5 
REMARK    2  A    between atoms: C1_5  and  O1_6 
REMARK    3  A    between atoms: C1_5  and  C2_8 
REMARK       I    between atoms: C2_8  and  N2_10 
REMARK       I    between atoms: N3_12  and  C3_14 
REMARK    4  A    between atoms: C3_14  and  C4_16 
REMARK    5  A    between atoms: C7_25  and  N6_26 
REMARK    6  A    between atoms: N6_26  and  O6_28 
ROOT
HETATM    1  C2  UNL     1      89.977  67.337  19.143  1.00  0.00     0.292 C 
HETATM    2  O2  UNL     1      91.062  67.958  19.081  1.00  0.00    -0.267 OA
HETATM    3  N2  UNL     1      89.698  66.495  20.247  1.00  0.00    -0.263 N 
ATOM      4  H2  UNL     1      88.792  66.599  20.704  1.00  0.00     0.190 HD
HETATM    5  N3  UNL     1      90.479  65.635  20.704  1.00  0.00    -0.262 N 
ATOM      6  H3  UNL     1      90.196  65.070  21.504  1.00  0.00     0.190 HD
HETATM    7  C3  UNL     1      91.753  65.436  20.121  1.00  0.00     0.289 C 
HETATM    8  O3  UNL     1      91.816  65.174  18.901  1.00  0.00    -0.264 OA
ENDROOT
BRANCH   7   9
HETATM    9  C4  UNL     1      92.938  65.542  20.951  1.00  0.00     0.140 A 
HETATM   10  N4  UNL     1      93.241  66.643  21.660  1.00  0.00    -0.302 N 
HETATM   11  C5  UNL     1      94.348  66.712  22.421  1.00  0.00     0.327 A 
ATOM     12  H4  UNL     1      92.615  67.448  21.620  1.00  0.00     0.171 HD
HETATM   13  O4  UNL     1      94.562  67.784  23.057  1.00  0.00    -0.247 OA
HETATM   14  N5  UNL     1      95.187  65.664  22.490  1.00  0.00    -0.273 N 
HETATM   15  C6  UNL     1      94.929  64.542  21.803  1.00  0.00     0.280 A 
ATOM     16  H5  UNL     1      96.024  65.722  23.069  1.00  0.00     0.173 HD
HETATM   17  O5  UNL     1      95.690  63.540  21.841  1.00  0.00    -0.265 OA
HETATM   18  C7  UNL     1      93.803  64.443  21.014  1.00  0.00     0.154 A 
BRANCH  18  19
HETATM   19  N6  UNL     1      93.478  63.283  20.264  1.00  0.00    -0.262 N 
ATOM     20  H6  UNL     1      93.466  63.358  19.247  1.00  0.00     0.194 HD
BRANCH  19  21
HETATM   21  O6  UNL     1      93.210  62.192  20.769  1.00  0.00    -0.289 OA
ATOM     22  H6  UNL     1      92.443  62.032  21.306  1.00  0.00     0.244 HD
ENDBRANCH  19  21
ENDBRANCH  18  19
ENDBRANCH   7   9
BRANCH   1  23
HETATM   23  C1  UNL     1      88.976  67.483  18.055  1.00  0.00     0.411 C 
BRANCH  23  24
HETATM   24  N1  UNL     1      87.835  66.633  18.238  1.00  0.00    -0.044 N 
ATOM     25  H13 UNL     1      87.163  67.012  18.904  1.00  0.00     0.278 HD
ATOM     26  H12 UNL     1      87.222  66.612  17.424  1.00  0.00     0.278 HD
ATOM     27  H11 UNL     1      88.176  65.708  18.501  1.00  0.00     0.278 HD
ENDBRANCH  23  24
BRANCH  23  28
HETATM   28  O1  UNL     1      88.520  68.801  18.002  1.00  0.00    -0.363 OA
ATOM     29  H1  UNL     1      89.273  69.362  17.855  1.00  0.00     0.212 HD
ENDBRANCH  23  28
ENDBRANCH   1  23
TORSDOF 6
ENDMDL
MODEL 2
REMARK VINA RESULT: -8.111438234      1.657      6.479
REMARK  6 active torsions:
REMARK  status: ('A' for Active; 'I' for Inactive)
REMARK    1  A    between atoms: N1_1  and  C1_5 
REMARK    2  A    between atoms: C1_5  and  O1_6 
REMARK    3  A    between atoms: C1_5  and  C2_8 
REMARK       I    between atoms: C2_8  and  N2_10 
REMARK       I    between atoms: N3_12  and  C3_14 
REMARK    4  A    between atoms: C3_14  and  C4_16 
REMARK    5  A    between atoms: C7_25  and  N6_26 
REMARK    6  A    between atoms: N6_26  and  O6_28 
ROOT
HETATM    1  C2  UNL     1      93.510  64.298  20.992  1.00  0.00     0.292 C 
HETATM    2  O2  UNL     1      93.252  64.006  19.803  1.00  0.00    -0.267 OA
HETATM    3  N2  UNL     1      92.474  64.704  21.869  1.00  0.00    -0.263 N 
ATOM      4  H2  UNL     1      92.428  64.258  22.785  1.00  0.00     0.190 HD
HETATM    5  N3  UNL     1      91.613  65.569  21.604  1.00  0.00    -0.262 N 
ATOM      6  H3  UNL     1      90.902  65.802  22.297  1.00  0.00     0.190 HD
HETATM    7  C3  UNL     1      91.617  66.229  20.353  1.00  0.00     0.289 C 
HETATM    8  O3  UNL     1      92.655  66.827  19.997  1.00  0.00    -0.264 OA
ENDROOT
BRANCH   7   9
HETATM    9  C4  UNL     1      90.423  66.193  19.528  1.00  0.00     0.140 A 
HETATM   10  N4  UNL     1      89.791  65.052  19.203  1.00  0.00    -0.302 N 
HETATM   11  C5  UNL     1      88.687  65.049  18.436  1.00  0.00     0.327 A 
ATOM     12  H4  UNL     1      90.158  64.164  19.548  1.00  0.00     0.171 HD
HETATM   13  O4  UNL     1      88.151  63.933  18.175  1.00  0.00    -0.247 OA
HETATM   14  N5  UNL     1      88.184  66.206  17.971  1.00  0.00    -0.273 N 
HETATM   15  C6  UNL     1      88.777  67.371  18.267  1.00  0.00     0.280 A 
ATOM     16  H5  UNL     1      87.346  66.197  17.390  1.00  0.00     0.173 HD
HETATM   17  O5  UNL     1      88.337  68.475  17.851  1.00  0.00    -0.265 OA
HETATM   18  C7  UNL     1      89.910  67.405  19.051  1.00  0.00     0.154 A 
BRANCH  18  19
HETATM   19  N6  UNL     1      90.582  68.605  19.397  1.00  0.00    -0.262 N 
ATOM     20  H6  UNL     1      90.461  68.967  20.342  1.00  0.00     0.194 HD
BRANCH  19  21
HETATM   21  O6  UNL     1      91.304  69.236  18.622  1.00  0.00    -0.289 OA
ATOM     22  H6  UNL     1      92.072  68.870  18.199  1.00  0.00     0.244 HD
ENDBRANCH  19  21
ENDBRANCH  18  19
ENDBRANCH   7   9
BRANCH   1  23
HETATM   23  C1  UNL     1      94.908  64.218  21.488  1.00  0.00     0.411 C 
BRANCH  23  24
HETATM   24  N1  UNL     1      95.249  65.311  22.352  1.00  0.00    -0.044 N 
ATOM     25  H13 UNL     1      96.126  65.164  22.850  1.00  0.00     0.278 HD
ATOM     26  H12 UNL     1      95.523  66.150  21.840  1.00  0.00     0.278 HD
ATOM     27  H11 UNL     1      94.459  65.470  22.979  1.00  0.00     0.278 HD
ENDBRANCH  23  24
BRANCH  23  28
HETATM   28  O1  UNL     1      95.091  63.035  22.207  1.00  0.00    -0.363 OA
ATOM     29  H1  UNL     1      94.285  62.535  22.151  1.00  0.00     0.212 HD
ENDBRANCH  23  28
ENDBRANCH   1  23
TORSDOF 6
ENDMDL
MODEL 3
REMARK VINA RESULT: -8.061665243      1.009      1.009
REMARK  6 active torsions:
REMARK  status: ('A' for Active; 'I' for Inactive)
REMARK    1  A    between atoms: N1_1  and  C1_5 
REMARK    2  A    between atoms: C1_5  and  O1_6 
REMARK    3  A    between atoms: C1_5  and  C2_8 
REMARK       I    between atoms: C2_8  and  N2_10 
REMARK       I    between atoms: N3_12  and  C3_14 
REMARK    4  A    between atoms: C3_14  and  C4_16 
REMARK    5  A    between atoms: C7_25  and  N6_26 
REMARK    6  A    between atoms: N6_26  and  O6_28 
ROOT
HETATM    1  C2  UNL     1      90.853  68.155  18.741  1.00  0.00     0.292 C 
HETATM    2  O2  UNL     1      92.020  68.591  18.870  1.00  0.00    -0.267 OA
HETATM    3  N2  UNL     1      90.281  67.337  19.745  1.00  0.00    -0.263 N 
ATOM      4  H2  UNL     1      89.344  67.575  20.071  1.00  0.00     0.190 HD
HETATM    5  N3  UNL     1      90.838  66.347  20.263  1.00  0.00    -0.262 N 
ATOM      6  H3  UNL     1      90.351  65.812  20.982  1.00  0.00     0.190 HD
HETATM    7  C3  UNL     1      92.138  65.960  19.860  1.00  0.00     0.289 C 
HETATM    8  O3  UNL     1      92.343  65.728  18.650  1.00  0.00    -0.264 OA
ENDROOT
BRANCH   7   9
HETATM    9  C4  UNL     1      93.185  65.845  20.858  1.00  0.00     0.140 A 
HETATM   10  N4  UNL     1      93.595  66.878  21.613  1.00  0.00    -0.302 N 
HETATM   11  C5  UNL     1      94.569  66.741  22.531  1.00  0.00     0.327 A 
ATOM     12  H4  UNL     1      93.157  67.791  21.488  1.00  0.00     0.171 HD
HETATM   13  O4  UNL     1      94.898  67.762  23.201  1.00  0.00    -0.247 OA
HETATM   14  N5  UNL     1      95.162  65.548  22.715  1.00  0.00    -0.273 N 
HETATM   15  C6  UNL     1      94.788  64.486  21.987  1.00  0.00     0.280 A 
ATOM     16  H5  UNL     1      95.899  65.450  23.412  1.00  0.00     0.173 HD
HETATM   17  O5  UNL     1      95.318  63.353  22.130  1.00  0.00    -0.265 OA
HETATM   18  C7  UNL     1      93.793  64.597  21.040  1.00  0.00     0.154 A 
BRANCH  18  19
HETATM   19  N6  UNL     1      93.356  63.510  20.239  1.00  0.00    -0.262 N 
ATOM     20  H6  UNL     1      93.251  63.664  19.237  1.00  0.00     0.194 HD
BRANCH  19  21
HETATM   21  O6  UNL     1      93.096  62.391  20.685  1.00  0.00    -0.289 OA
ATOM     22  H6  UNL     1      92.312  62.188  21.181  1.00  0.00     0.244 HD
ENDBRANCH  19  21
ENDBRANCH  18  19
ENDBRANCH   7   9
BRANCH   1  23
HETATM   23  C1  UNL     1      90.065  68.496  17.529  1.00  0.00     0.411 C 
BRANCH  23  24
HETATM   24  N1  UNL     1      88.651  68.464  17.764  1.00  0.00    -0.044 N 
ATOM     25  H13 UNL     1      88.180  69.318  17.468  1.00  0.00     0.278 HD
ATOM     26  H12 UNL     1      88.161  67.818  17.145  1.00  0.00     0.278 HD
ATOM     27  H11 UNL     1      88.505  68.253  18.752  1.00  0.00     0.278 HD
ENDBRANCH  23  24
BRANCH  23  28
HETATM   28  O1  UNL     1      90.395  69.781  17.093  1.00  0.00    -0.363 OA
ATOM     29  H1  UNL     1      91.155  70.067  17.585  1.00  0.00     0.212 HD
ENDBRANCH  23  28
ENDBRANCH   1  23
TORSDOF 6
ENDMDL
MODEL 4
REMARK VINA RESULT: -7.994817734      2.445      5.915
REMARK  6 active torsions:
REMARK  status: ('A' for Active; 'I' for Inactive)
REMARK    1  A    between atoms: N1_1  and  C1_5 
REMARK    2  A    between atoms: C1_5  and  O1_6 
REMARK    3  A    between atoms: C1_5  and  C2_8 
REMARK       I    between atoms: C2_8  and  N2_10 
REMARK       I    between atoms: N3_12  and  C3_14 
REMARK    4  A    between atoms: C3_14  and  C4_16 
REMARK    5  A    between atoms: C7_25  and  N6_26 
REMARK    6  A    between atoms: N6_26  and  O6_28 
ROOT
HETATM    1  C2  UNL     1      96.140  68.806  23.201  1.00  0.00     0.292 C 
HETATM    2  O2  UNL     1      95.092  69.164  22.617  1.00  0.00    -0.267 OA
HETATM    3  N2  UNL     1      96.825  67.638  22.788  1.00  0.00    -0.263 N 
ATOM      4  H2  UNL     1      97.832  67.707  22.644  1.00  0.00     0.190 HD
HETATM    5  N3  UNL     1      96.287  66.529  22.585  1.00  0.00    -0.262 N 
ATOM      6  H3  UNL     1      96.858  65.738  22.289  1.00  0.00     0.190 HD
HETATM    7  C3  UNL     1      94.894  66.361  22.764  1.00  0.00     0.289 C 
HETATM    8  O3  UNL     1      94.395  66.656  23.871  1.00  0.00    -0.264 OA
ENDROOT
BRANCH   7   9
HETATM    9  C4  UNL     1      94.093  65.855  21.665  1.00  0.00     0.140 A 
HETATM   10  N4  UNL     1      93.511  66.653  20.754  1.00  0.00    -0.302 N 
HETATM   11  C5  UNL     1      92.774  66.155  19.745  1.00  0.00     0.327 A 
ATOM     12  H4  UNL     1      93.632  67.663  20.828  1.00  0.00     0.171 HD
HETATM   13  O4  UNL     1      92.260  66.973  18.928  1.00  0.00    -0.247 OA
HETATM   14  N5  UNL     1      92.601  64.827  19.626  1.00  0.00    -0.273 N 
HETATM   15  C6  UNL     1      93.161  63.988  20.510  1.00  0.00     0.280 A 
ATOM     16  H5  UNL     1      92.040  64.455  18.860  1.00  0.00     0.173 HD
HETATM   17  O5  UNL     1      93.022  62.739  20.433  1.00  0.00    -0.265 OA
HETATM   18  C7  UNL     1      93.921  64.470  21.553  1.00  0.00     0.154 A 
BRANCH  18  19
HETATM   19  N6  UNL     1      94.538  63.633  22.519  1.00  0.00    -0.262 N 
ATOM     20  H6  UNL     1      94.241  63.722  23.490  1.00  0.00     0.194 HD
BRANCH  19  21
HETATM   21  O6  UNL     1      95.410  62.804  22.252  1.00  0.00    -0.289 OA
ATOM     22  H6  UNL     1      95.626  62.067  22.811  1.00  0.00     0.244 HD
ENDBRANCH  19  21
ENDBRANCH  18  19
ENDBRANCH   7   9
BRANCH   1  23
HETATM   23  C1  UNL     1      96.668  69.610  24.334  1.00  0.00     0.411 C 
BRANCH  23  24
HETATM   24  N1  UNL     1      95.764  70.645  24.744  1.00  0.00    -0.044 N 
ATOM     25  H13 UNL     1      96.166  71.578  24.660  1.00  0.00     0.278 HD
ATOM     26  H12 UNL     1      94.988  70.773  24.094  1.00  0.00     0.278 HD
ATOM     27  H11 UNL     1      95.455  70.430  25.692  1.00  0.00     0.278 HD
ENDBRANCH  23  24
BRANCH  23  28
HETATM   28  O1  UNL     1      96.897  68.784  25.436  1.00  0.00    -0.363 OA
ATOM     29  H1  UNL     1      97.690  68.288  25.267  1.00  0.00     0.212 HD
ENDBRANCH  23  28
ENDBRANCH   1  23
TORSDOF 6
ENDMDL
MODEL 5
REMARK VINA RESULT: -7.961676809      1.935      6.597
REMARK  6 active torsions:
REMARK  status: ('A' for Active; 'I' for Inactive)
REMARK    1  A    between atoms: N1_1  and  C1_5 
REMARK    2  A    between atoms: C1_5  and  O1_6 
REMARK    3  A    between atoms: C1_5  and  C2_8 
REMARK       I    between atoms: C2_8  and  N2_10 
REMARK       I    between atoms: N3_12  and  C3_14 
REMARK    4  A    between atoms: C3_14  and  C4_16 
REMARK    5  A    between atoms: C7_25  and  N6_26 
REMARK    6  A    between atoms: N6_26  and  O6_28 
ROOT
HETATM    1  C2  UNL     1      92.775  65.220  21.274  1.00  0.00     0.292 C 
HETATM    2  O2  UNL     1      92.067  64.246  20.931  1.00  0.00    -0.267 OA
HETATM    3  N2  UNL     1      92.240  66.531  21.267  1.00  0.00    -0.263 N 
ATOM      4  H2  UNL     1      92.386  67.105  22.098  1.00  0.00     0.190 HD
HETATM    5  N3  UNL     1      91.602  67.036  20.320  1.00  0.00    -0.262 N 
ATOM      6  H3  UNL     1      91.252  67.991  20.400  1.00  0.00     0.190 HD
HETATM    7  C3  UNL     1      91.362  66.298  19.138  1.00  0.00     0.289 C 
HETATM    8  O3  UNL     1      92.340  65.821  18.523  1.00  0.00    -0.264 OA
ENDROOT
BRANCH   7   9
HETATM    9  C4  UNL     1      89.997  66.117  18.679  1.00  0.00     0.140 A 
HETATM   10  N4  UNL     1      89.350  64.941  18.747  1.00  0.00    -0.302 N 
HETATM   11  C5  UNL     1      88.085  64.805  18.312  1.00  0.00     0.327 A 
ATOM     12  H4  UNL     1      89.831  64.131  19.138  1.00  0.00     0.171 HD
HETATM   13  O4  UNL     1      87.546  63.664  18.411  1.00  0.00    -0.247 OA
HETATM   14  N5  UNL     1      87.430  65.858  17.793  1.00  0.00    -0.273 N 
HETATM   15  C6  UNL     1      88.032  67.053  17.704  1.00  0.00     0.280 A 
ATOM     16  H5  UNL     1      86.471  65.748  17.465  1.00  0.00     0.173 HD
HETATM   17  O5  UNL     1      87.453  68.063  17.223  1.00  0.00    -0.265 OA
HETATM   18  C7  UNL     1      89.328  67.223  18.140  1.00  0.00     0.154 A 
BRANCH  18  19
HETATM   19  N6  UNL     1      90.017  68.461  18.071  1.00  0.00    -0.262 N 
ATOM     20  H6  UNL     1      90.717  68.580  17.339  1.00  0.00     0.194 HD
BRANCH  19  21
HETATM   21  O6  UNL     1      89.818  69.401  18.842  1.00  0.00    -0.289 OA
ATOM     22  H6  UNL     1      90.222  70.256  18.749  1.00  0.00     0.244 HD
ENDBRANCH  19  21
ENDBRANCH  18  19
ENDBRANCH   7   9
BRANCH   1  23
HETATM   23  C1  UNL     1      94.184  65.000  21.691  1.00  0.00     0.411 C 
BRANCH  23  24
HETATM   24  N1  UNL     1      94.314  63.954  22.664  1.00  0.00    -0.044 N 
ATOM     25  H13 UNL     1      95.132  63.366  22.505  1.00  0.00     0.278 HD
ATOM     26  H12 UNL     1      94.575  64.302  23.586  1.00  0.00     0.278 HD
ATOM     27  H11 UNL     1      93.441  63.426  22.671  1.00  0.00     0.278 HD
ENDBRANCH  23  24
BRANCH  23  28
HETATM   28  O1  UNL     1      94.958  64.649  20.583  1.00  0.00    -0.363 OA
ATOM     29  H1  UNL     1      94.374  64.293  19.923  1.00  0.00     0.212 HD
ENDBRANCH  23  28
ENDBRANCH   1  23
TORSDOF 6
ENDMDL
