MODEL 1
REMARK VINA RESULT: -9.280798935      0.000      0.000
REMARK  14 active torsions:
REMARK  status: ('A' for Active; 'I' for Inactive)
REMARK    1  A    between atoms: C6_6  and  C7_7 
REMARK    2  A    between atoms: C7_7  and  C9_9 
REMARK    3  A    between atoms: C7_7  and  O4_45 
REMARK    4  A    between atoms: C9_9  and  N1_10 
REMARK    5  A    between atoms: N1_10  and  C10_12 
REMARK    6  A    between atoms: C10_12  and  O1_13 
REMARK    7  A    between atoms: C11_15  and  N2_16 
REMARK    8  A    between atoms: C11_15  and  C17_27 
REMARK       I    between atoms: N2_16  and  C12_18 
REMARK    9  A    between atoms: C12_18  and  C13_20 
REMARK   10  A    between atoms: C17_27  and  C18_28 
REMARK   11  A    between atoms: C17_27  and  C25_39 
REMARK   12  A    between atoms: C18_28  and  O3_29 
REMARK   13  A    between atoms: N4_31  and  C19_33 
REMARK   14  A    between atoms: O4_45  and  C31_46 
ROOT
HETATM    1  C10 UNL     1     -10.841  17.466  28.529  1.00  0.00     0.163 C 
HETATM    2  C11 UNL     1      -9.534  17.029  28.172  1.00  0.00     0.075 C 
ENDROOT
BRANCH   2   3
HETATM    3  N2  UNL     1      -9.550  16.076  27.066  1.00  0.00    -0.324 N 
HETATM    4  C12 UNL     1      -9.588  16.494  25.724  1.00  0.00     0.253 C 
HETATM    5  O2  UNL     1      -9.608  17.682  25.325  1.00  0.00    -0.271 OA
ATOM      6  H2  UNL     1      -9.534  15.078  27.273  1.00  0.00     0.169 HD
BRANCH   4   7
HETATM    7  C13 UNL     1      -9.602  15.436  24.630  1.00  0.00     0.277 C 
HETATM    8  C14 UNL     1     -10.296  16.086  23.426  1.00  0.00     0.044 C 
HETATM    9  C15 UNL     1      -9.110  16.578  22.580  1.00  0.00     0.030 C 
HETATM   10  C16 UNL     1      -8.088  15.463  22.845  1.00  0.00     0.233 C 
HETATM   11  N3  UNL     1      -8.327  15.057  24.168  1.00  0.00    -0.062 N 
ATOM     12  H32 UNL     1      -7.595  15.396  24.793  1.00  0.00     0.278 HD
ATOM     13  H31 UNL     1      -8.182  14.053  24.275  1.00  0.00     0.278 HD
ENDBRANCH   4   7
ENDBRANCH   2   3
BRANCH   2  14
HETATM   14  C17 UNL     1      -8.548  16.703  29.198  1.00  0.00     0.118 C 
BRANCH  14  15
HETATM   15  C18 UNL     1      -8.842  16.864  30.575  1.00  0.00     0.122 C 
HETATM   16  N4  UNL     1      -8.855  16.228  31.765  1.00  0.00    -0.369 N 
ATOM     17  H4  UNL     1      -8.540  15.257  31.797  1.00  0.00     0.161 HD
BRANCH  15  18
HETATM   18  O3  UNL     1      -9.302  18.178  30.760  1.00  0.00    -0.349 OA
ATOM     19  H3  UNL     1     -10.193  18.218  30.435  1.00  0.00     0.219 HD
ENDBRANCH  15  18
BRANCH  16  20
HETATM   20  C19 UNL     1      -9.302  16.866  33.035  1.00  0.00     0.083 C 
HETATM   21  C20 UNL     1      -8.291  16.948  34.065  1.00  0.00     0.025 C 
HETATM   22  C21 UNL     1      -8.589  16.474  35.448  1.00  0.00     0.002 C 
HETATM   23  C22 UNL     1      -9.728  15.547  35.617  1.00  0.00     0.000 C 
HETATM   24  C23 UNL     1     -10.167  14.931  34.279  1.00  0.00     0.002 C 
HETATM   25  C24 UNL     1     -10.570  16.114  33.442  1.00  0.00     0.025 C 
ENDBRANCH  16  20
ENDBRANCH  14  15
BRANCH  14  26
HETATM   26  C25 UNL     1      -7.194  17.448  28.838  1.00  0.00     0.003 C 
HETATM   27  C26 UNL     1      -6.354  16.405  28.166  1.00  0.00     0.006 C 
HETATM   28  C27 UNL     1      -5.033  16.966  27.659  1.00  0.00     0.000 C 
HETATM   29  C28 UNL     1      -5.339  18.035  26.648  1.00  0.00     0.000 C 
HETATM   30  C29 UNL     1      -6.212  19.090  27.290  1.00  0.00     0.000 C 
HETATM   31  C30 UNL     1      -7.495  18.537  27.866  1.00  0.00     0.006 C 
ENDBRANCH  14  26
ENDBRANCH   2  14
BRANCH   1  32
HETATM   32  N1  UNL     1     -11.923  16.757  29.155  1.00  0.00    -0.346 N 
ATOM     33  H1  UNL     1     -12.569  17.238  29.780  1.00  0.00     0.167 HD
BRANCH  32  34
HETATM   34  C9  UNL     1     -12.073  15.339  28.878  1.00  0.00     0.101 C 
BRANCH  34  35
HETATM   35  C7  UNL     1     -13.376  14.761  28.738  1.00  0.00     0.098 C 
HETATM   36  C8  UNL     1     -14.409  15.662  28.109  1.00  0.00     0.053 C 
BRANCH  35  37
HETATM   37  C6  UNL     1     -13.984  14.476  30.139  1.00  0.00     0.003 A 
HETATM   38  C2  UNL     1     -13.211  14.208  31.334  1.00  0.00    -0.006 A 
HETATM   39  C1  UNL     1     -13.736  15.130  32.481  1.00  0.00     0.011 C 
HETATM   40  C3  UNL     1     -13.934  12.869  31.494  1.00  0.00     0.010 A 
HETATM   41  C4  UNL     1     -14.751  13.221  30.309  1.00  0.00    -0.001 A 
HETATM   42  C5  UNL     1     -15.472  14.524  30.322  1.00  0.00     0.019 A 
ENDBRANCH  35  37
BRANCH  35  43
HETATM   43  O4  UNL     1     -13.530  13.558  28.134  1.00  0.00    -0.364 OA
BRANCH  43  44
HETATM   44  C31 UNL     1     -12.671  12.724  27.637  1.00  0.00     0.051 C 
HETATM   45  C32 UNL     1     -12.148  11.635  28.580  1.00  0.00     0.045 C 
HETATM   46  C33 UNL     1     -13.346  11.972  26.494  1.00  0.00     0.045 C 
HETATM   47  C34 UNL     1     -11.406  13.299  26.978  1.00  0.00     0.045 C 
ENDBRANCH  43  44
ENDBRANCH  35  43
ENDBRANCH  34  35
ENDBRANCH  32  34
ENDBRANCH   1  32
BRANCH   1  48
HETATM   48  O1  UNL     1     -11.191  18.716  28.243  1.00  0.00    -0.345 OA
ATOM     49  H1  UNL     1     -11.962  18.737  27.688  1.00  0.00     0.219 HD
ENDBRANCH   1  48
TORSDOF 14
ENDMDL
MODEL 2
REMARK VINA RESULT: -8.979490238      1.737      7.188
REMARK  14 active torsions:
REMARK  status: ('A' for Active; 'I' for Inactive)
REMARK    1  A    between atoms: C6_6  and  C7_7 
REMARK    2  A    between atoms: C7_7  and  C9_9 
REMARK    3  A    between atoms: C7_7  and  O4_45 
REMARK    4  A    between atoms: C9_9  and  N1_10 
REMARK    5  A    between atoms: N1_10  and  C10_12 
REMARK    6  A    between atoms: C10_12  and  O1_13 
REMARK    7  A    between atoms: C11_15  and  N2_16 
REMARK    8  A    between atoms: C11_15  and  C17_27 
REMARK       I    between atoms: N2_16  and  C12_18 
REMARK    9  A    between atoms: C12_18  and  C13_20 
REMARK   10  A    between atoms: C17_27  and  C18_28 
REMARK   11  A    between atoms: C17_27  and  C25_39 
REMARK   12  A    between atoms: C18_28  and  O3_29 
REMARK   13  A    between atoms: N4_31  and  C19_33 
REMARK   14  A    between atoms: O4_45  and  C31_46 
ROOT
HETATM    1  C10 UNL     1     -11.524  16.909  28.592  1.00  0.00     0.163 C 
HETATM    2  C11 UNL     1     -11.992  16.188  29.726  1.00  0.00     0.075 C 
ENDROOT
BRANCH   2   3
HETATM    3  N2  UNL     1     -10.902  15.609  30.505  1.00  0.00    -0.324 N 
HETATM    4  C12 UNL     1      -9.788  16.369  30.906  1.00  0.00     0.253 C 
HETATM    5  O2  UNL     1      -9.601  17.583  30.660  1.00  0.00    -0.271 OA
ATOM      6  H2  UNL     1     -10.948  14.624  30.765  1.00  0.00     0.169 HD
BRANCH   4   7
HETATM    7  C13 UNL     1      -8.694  15.689  31.716  1.00  0.00     0.277 C 
HETATM    8  C14 UNL     1      -8.552  16.512  33.004  1.00  0.00     0.044 C 
HETATM    9  C15 UNL     1      -9.422  15.729  34.000  1.00  0.00     0.030 C 
HETATM   10  C16 UNL     1      -9.170  14.290  33.531  1.00  0.00     0.233 C 
HETATM   11  N3  UNL     1      -9.007  14.383  32.140  1.00  0.00    -0.062 N 
ATOM     12  H32 UNL     1      -9.828  14.026  31.650  1.00  0.00     0.278 HD
ATOM     13  H31 UNL     1      -8.313  13.713  31.806  1.00  0.00     0.278 HD
ENDBRANCH   4   7
ENDBRANCH   2   3
BRANCH   2  14
HETATM   14  C17 UNL     1     -13.157  15.313  29.629  1.00  0.00     0.118 C 
BRANCH  14  15
HETATM   15  C18 UNL     1     -13.489  14.414  30.673  1.00  0.00     0.122 C 
HETATM   16  N4  UNL     1     -13.096  13.288  31.303  1.00  0.00    -0.369 N 
ATOM     17  H4  UNL     1     -12.237  12.835  30.991  1.00  0.00     0.161 HD
BRANCH  15  18
HETATM   18  O3  UNL     1     -14.679  14.870  31.262  1.00  0.00    -0.349 OA
ATOM     19  H3  UNL     1     -14.654  14.633  32.181  1.00  0.00     0.219 HD
ENDBRANCH  15  18
BRANCH  16  20
HETATM   20  C19 UNL     1     -13.850  12.669  32.430  1.00  0.00     0.083 C 
HETATM   21  C20 UNL     1     -13.090  12.491  33.647  1.00  0.00     0.025 C 
HETATM   22  C21 UNL     1     -13.078  11.169  34.337  1.00  0.00     0.002 C 
HETATM   23  C22 UNL     1     -13.471   9.985  33.543  1.00  0.00     0.000 C 
HETATM   24  C23 UNL     1     -13.451  10.277  32.034  1.00  0.00     0.002 C 
HETATM   25  C24 UNL     1     -14.453  11.385  31.858  1.00  0.00     0.025 C 
ENDBRANCH  16  20
ENDBRANCH  14  15
BRANCH  14  26
HETATM   26  C25 UNL     1     -13.081  14.539  28.245  1.00  0.00     0.003 C 
HETATM   27  C26 UNL     1     -11.944  13.576  28.411  1.00  0.00     0.006 C 
HETATM   28  C27 UNL     1     -11.775  12.669  27.202  1.00  0.00     0.000 C 
HETATM   29  C28 UNL     1     -13.037  11.869  27.041  1.00  0.00     0.000 C 
HETATM   30  C29 UNL     1     -14.210  12.815  26.900  1.00  0.00     0.000 C 
HETATM   31  C30 UNL     1     -14.347  13.774  28.059  1.00  0.00     0.006 C 
ENDBRANCH  14  26
ENDBRANCH   2  14
BRANCH   1  32
HETATM   32  N1  UNL     1     -10.906  16.442  27.381  1.00  0.00    -0.346 N 
ATOM     33  H1  UNL     1     -11.329  15.690  26.837  1.00  0.00     0.167 HD
BRANCH  32  34
HETATM   34  C9  UNL     1      -9.668  17.067  26.951  1.00  0.00     0.101 C 
BRANCH  34  35
HETATM   35  C7  UNL     1      -8.485  16.281  26.764  1.00  0.00     0.098 C 
HETATM   36  C8  UNL     1      -8.346  15.106  27.700  1.00  0.00     0.053 C 
BRANCH  35  37
HETATM   37  C6  UNL     1      -7.226  17.129  27.099  1.00  0.00     0.003 A 
HETATM   38  C2  UNL     1      -5.894  16.858  26.600  1.00  0.00    -0.006 A 
HETATM   39  C1  UNL     1      -5.307  18.181  26.012  1.00  0.00     0.011 C 
HETATM   40  C3  UNL     1      -5.381  16.762  28.039  1.00  0.00     0.010 A 
HETATM   41  C4  UNL     1      -6.745  17.114  28.499  1.00  0.00    -0.001 A 
HETATM   42  C5  UNL     1      -7.366  18.353  27.954  1.00  0.00     0.019 A 
ENDBRANCH  35  37
BRANCH  35  43
HETATM   43  O4  UNL     1      -8.164  15.806  25.537  1.00  0.00    -0.364 OA
BRANCH  43  44
HETATM   44  C31 UNL     1      -8.590  16.116  24.352  1.00  0.00     0.051 C 
HETATM   45  C32 UNL     1      -8.300  17.541  23.870  1.00  0.00     0.045 C 
HETATM   46  C33 UNL     1      -7.895  15.204  23.345  1.00  0.00     0.045 C 
HETATM   47  C34 UNL     1     -10.081  15.903  24.044  1.00  0.00     0.045 C 
ENDBRANCH  43  44
ENDBRANCH  35  43
ENDBRANCH  34  35
ENDBRANCH  32  34
ENDBRANCH   1  32
BRANCH   1  48
HETATM   48  O1  UNL     1     -11.623  18.234  28.599  1.00  0.00    -0.345 OA
ATOM     49  H1  UNL     1     -12.524  18.511  28.479  1.00  0.00     0.219 HD
ENDBRANCH   1  48
TORSDOF 14
ENDMDL
MODEL 3
REMARK VINA RESULT: -8.968167001      3.624      8.598
REMARK  14 active torsions:
REMARK  status: ('A' for Active; 'I' for Inactive)
REMARK    1  A    between atoms: C6_6  and  C7_7 
REMARK    2  A    between atoms: C7_7  and  C9_9 
REMARK    3  A    between atoms: C7_7  and  O4_45 
REMARK    4  A    between atoms: C9_9  and  N1_10 
REMARK    5  A    between atoms: N1_10  and  C10_12 
REMARK    6  A    between atoms: C10_12  and  O1_13 
REMARK    7  A    between atoms: C11_15  and  N2_16 
REMARK    8  A    between atoms: C11_15  and  C17_27 
REMARK       I    between atoms: N2_16  and  C12_18 
REMARK    9  A    between atoms: C12_18  and  C13_20 
REMARK   10  A    between atoms: C17_27  and  C18_28 
REMARK   11  A    between atoms: C17_27  and  C25_39 
REMARK   12  A    between atoms: C18_28  and  O3_29 
REMARK   13  A    between atoms: N4_31  and  C19_33 
REMARK   14  A    between atoms: O4_45  and  C31_46 
ROOT
HETATM    1  C10 UNL     1     -13.319  14.464  32.986  1.00  0.00     0.163 C 
HETATM    2  C11 UNL     1     -12.659  13.959  34.141  1.00  0.00     0.075 C 
ENDROOT
BRANCH   2   3
HETATM    3  N2  UNL     1     -11.244  14.318  34.173  1.00  0.00    -0.324 N 
HETATM    4  C12 UNL     1     -10.788  15.490  34.803  1.00  0.00     0.253 C 
HETATM    5  O2  UNL     1     -11.504  16.334  35.392  1.00  0.00    -0.271 OA
ATOM      6  H2  UNL     1     -10.567  13.701  33.726  1.00  0.00     0.169 HD
BRANCH   4   7
HETATM    7  C13 UNL     1      -9.297  15.790  34.793  1.00  0.00     0.277 C 
HETATM    8  C14 UNL     1      -8.805  15.427  33.386  1.00  0.00     0.044 C 
HETATM    9  C15 UNL     1      -8.823  16.784  32.664  1.00  0.00     0.030 C 
HETATM   10  C16 UNL     1      -8.417  17.723  33.808  1.00  0.00     0.233 C 
HETATM   11  N3  UNL     1      -8.973  17.150  34.964  1.00  0.00    -0.062 N 
ATOM     12  H32 UNL     1      -9.783  17.682  35.283  1.00  0.00     0.278 HD
ATOM     13  H31 UNL     1      -8.362  17.283  35.770  1.00  0.00     0.278 HD
ENDBRANCH   4   7
ENDBRANCH   2   3
BRANCH   2  14
HETATM   14  C17 UNL     1     -12.920  12.605  34.619  1.00  0.00     0.118 C 
BRANCH  14  15
HETATM   15  C18 UNL     1     -13.350  11.584  33.735  1.00  0.00     0.122 C 
HETATM   16  N4  UNL     1     -13.012  10.390  33.207  1.00  0.00    -0.369 N 
ATOM     17  H4  UNL     1     -12.131   9.965  33.499  1.00  0.00     0.161 HD
BRANCH  15  18
HETATM   18  O3  UNL     1     -14.591  11.977  33.207  1.00  0.00    -0.349 OA
ATOM     19  H3  UNL     1     -15.069  11.188  32.981  1.00  0.00     0.219 HD
ENDBRANCH  15  18
BRANCH  16  20
HETATM   20  C19 UNL     1     -13.856   9.657  32.220  1.00  0.00     0.083 C 
HETATM   21  C20 UNL     1     -14.739   8.666  32.792  1.00  0.00     0.025 C 
HETATM   22  C21 UNL     1     -14.770   7.281  32.238  1.00  0.00     0.002 C 
HETATM   23  C22 UNL     1     -13.608   6.845  31.433  1.00  0.00     0.000 C 
HETATM   24  C23 UNL     1     -12.396   7.769  31.633  1.00  0.00     0.002 C 
HETATM   25  C24 UNL     1     -12.880   9.118  31.174  1.00  0.00     0.025 C 
ENDBRANCH  16  20
ENDBRANCH  14  15
BRANCH  14  26
HETATM   26  C25 UNL     1     -13.901  12.699  35.864  1.00  0.00     0.003 C 
HETATM   27  C26 UNL     1     -14.023  11.289  36.358  1.00  0.00     0.006 C 
HETATM   28  C27 UNL     1     -14.864  11.193  37.623  1.00  0.00     0.000 C 
HETATM   29  C28 UNL     1     -14.188  12.001  38.694  1.00  0.00     0.000 C 
HETATM   30  C29 UNL     1     -14.023  13.425  38.212  1.00  0.00     0.000 C 
HETATM   31  C30 UNL     1     -13.254  13.533  36.916  1.00  0.00     0.006 C 
ENDBRANCH  14  26
ENDBRANCH   2  14
BRANCH   1  32
HETATM   32  N1  UNL     1     -13.192  14.093  31.603  1.00  0.00    -0.346 N 
ATOM     33  H1  UNL     1     -13.611  13.231  31.254  1.00  0.00     0.167 HD
BRANCH  32  34
HETATM   34  C9  UNL     1     -12.455  14.974  30.715  1.00  0.00     0.101 C 
BRANCH  34  35
HETATM   35  C7  UNL     1     -11.468  14.444  29.821  1.00  0.00     0.098 C 
HETATM   36  C8  UNL     1     -10.166  14.049  30.471  1.00  0.00     0.053 C 
BRANCH  35  37
HETATM   37  C6  UNL     1     -11.023  15.539  28.812  1.00  0.00     0.003 A 
HETATM   38  C2  UNL     1     -10.072  15.333  27.739  1.00  0.00    -0.006 A 
HETATM   39  C1  UNL     1     -10.691  15.885  26.416  1.00  0.00     0.011 C 
HETATM   40  C3  UNL     1      -9.199  16.455  28.306  1.00  0.00     0.010 A 
HETATM   41  C4  UNL     1     -10.237  16.677  29.341  1.00  0.00    -0.001 A 
HETATM   42  C5  UNL     1     -11.637  16.906  28.886  1.00  0.00     0.019 A 
ENDBRANCH  35  37
BRANCH  35  43
HETATM   43  O4  UNL     1     -11.780  13.425  28.984  1.00  0.00    -0.364 OA
BRANCH  43  44
HETATM   44  C31 UNL     1     -12.899  13.066  28.440  1.00  0.00     0.051 C 
HETATM   45  C32 UNL     1     -13.862  14.190  28.043  1.00  0.00     0.045 C 
HETATM   46  C33 UNL     1     -12.581  12.335  27.139  1.00  0.00     0.045 C 
HETATM   47  C34 UNL     1     -13.780  12.059  29.199  1.00  0.00     0.045 C 
ENDBRANCH  43  44
ENDBRANCH  35  43
ENDBRANCH  34  35
ENDBRANCH  32  34
ENDBRANCH   1  32
BRANCH   1  48
HETATM   48  O1  UNL     1     -14.189  15.457  33.137  1.00  0.00    -0.345 OA
ATOM     49  H1  UNL     1     -14.059  15.903  33.966  1.00  0.00     0.219 HD
ENDBRANCH   1  48
TORSDOF 14
ENDMDL
MODEL 4
REMARK VINA RESULT: -8.961339634      0.939      2.378
REMARK  14 active torsions:
REMARK  status: ('A' for Active; 'I' for Inactive)
REMARK    1  A    between atoms: C6_6  and  C7_7 
REMARK    2  A    between atoms: C7_7  and  C9_9 
REMARK    3  A    between atoms: C7_7  and  O4_45 
REMARK    4  A    between atoms: C9_9  and  N1_10 
REMARK    5  A    between atoms: N1_10  and  C10_12 
REMARK    6  A    between atoms: C10_12  and  O1_13 
REMARK    7  A    between atoms: C11_15  and  N2_16 
REMARK    8  A    between atoms: C11_15  and  C17_27 
REMARK       I    between atoms: N2_16  and  C12_18 
REMARK    9  A    between atoms: C12_18  and  C13_20 
REMARK   10  A    between atoms: C17_27  and  C18_28 
REMARK   11  A    between atoms: C17_27  and  C25_39 
REMARK   12  A    between atoms: C18_28  and  O3_29 
REMARK   13  A    between atoms: N4_31  and  C19_33 
REMARK   14  A    between atoms: O4_45  and  C31_46 
ROOT
HETATM    1  C10 UNL     1     -10.988  17.325  28.622  1.00  0.00     0.163 C 
HETATM    2  C11 UNL     1      -9.647  17.003  28.271  1.00  0.00     0.075 C 
ENDROOT
BRANCH   2   3
HETATM    3  N2  UNL     1      -9.574  16.114  27.116  1.00  0.00    -0.324 N 
HETATM    4  C12 UNL     1      -9.808  16.574  25.807  1.00  0.00     0.253 C 
HETATM    5  O2  UNL     1     -10.093  17.750  25.481  1.00  0.00    -0.271 OA
ATOM      6  H2  UNL     1      -9.346  15.131  27.261  1.00  0.00     0.169 HD
BRANCH   4   7
HETATM    7  C13 UNL     1      -9.711  15.582  24.657  1.00  0.00     0.277 C 
HETATM    8  C14 UNL     1     -10.085  16.366  23.393  1.00  0.00     0.044 C 
HETATM    9  C15 UNL     1      -8.712  16.764  22.828  1.00  0.00     0.030 C 
HETATM   10  C16 UNL     1      -7.879  15.530  23.202  1.00  0.00     0.233 C 
HETATM   11  N3  UNL     1      -8.415  15.086  24.421  1.00  0.00    -0.062 N 
ATOM     12  H32 UNL     1      -7.791  15.308  25.198  1.00  0.00     0.278 HD
ATOM     13  H31 UNL     1      -8.395  14.067  24.481  1.00  0.00     0.278 HD
ENDBRANCH   4   7
ENDBRANCH   2   3
BRANCH   2  14
HETATM   14  C17 UNL     1      -8.658  16.693  29.299  1.00  0.00     0.118 C 
BRANCH  14  15
HETATM   15  C18 UNL     1      -8.939  16.899  30.673  1.00  0.00     0.122 C 
HETATM   16  N4  UNL     1      -8.975  16.293  31.878  1.00  0.00    -0.369 N 
ATOM     17  H4  UNL     1      -8.705  15.310  31.931  1.00  0.00     0.161 HD
BRANCH  15  18
HETATM   18  O3  UNL     1      -9.338  18.237  30.828  1.00  0.00    -0.349 OA
ATOM     19  H3  UNL     1     -10.248  18.297  30.562  1.00  0.00     0.219 HD
ENDBRANCH  15  18
BRANCH  16  20
HETATM   20  C19 UNL     1      -9.389  16.980  33.134  1.00  0.00     0.083 C 
HETATM   21  C20 UNL     1      -8.316  17.238  34.069  1.00  0.00     0.025 C 
HETATM   22  C21 UNL     1      -8.460  16.844  35.500  1.00  0.00     0.002 C 
HETATM   23  C22 UNL     1      -9.483  15.827  35.827  1.00  0.00     0.000 C 
HETATM   24  C23 UNL     1      -9.956  15.072  34.575  1.00  0.00     0.002 C 
HETATM   25  C24 UNL     1     -10.540  16.143  33.694  1.00  0.00     0.025 C 
ENDBRANCH  16  20
ENDBRANCH  14  15
BRANCH  14  26
HETATM   26  C25 UNL     1      -7.295  17.407  28.908  1.00  0.00     0.003 C 
HETATM   27  C26 UNL     1      -6.489  16.339  28.231  1.00  0.00     0.006 C 
HETATM   28  C27 UNL     1      -5.167  16.868  27.696  1.00  0.00     0.000 C 
HETATM   29  C28 UNL     1      -5.469  17.932  26.679  1.00  0.00     0.000 C 
HETATM   30  C29 UNL     1      -6.308  19.012  27.325  1.00  0.00     0.000 C 
HETATM   31  C30 UNL     1      -7.592  18.491  27.929  1.00  0.00     0.006 C 
ENDBRANCH  14  26
ENDBRANCH   2  14
BRANCH   1  32
HETATM   32  N1  UNL     1     -12.026  16.505  29.186  1.00  0.00    -0.346 N 
ATOM     33  H1  UNL     1     -12.987  16.577  28.851  1.00  0.00     0.167 HD
BRANCH  32  34
HETATM   34  C9  UNL     1     -11.675  15.574  30.243  1.00  0.00     0.101 C 
BRANCH  34  35
HETATM   35  C7  UNL     1     -11.648  14.165  29.990  1.00  0.00     0.098 C 
HETATM   36  C8  UNL     1     -10.286  13.599  29.675  1.00  0.00     0.053 C 
BRANCH  35  37
HETATM   37  C6  UNL     1     -12.454  13.841  28.701  1.00  0.00     0.003 A 
HETATM   38  C2  UNL     1     -13.891  13.670  28.649  1.00  0.00    -0.006 A 
HETATM   39  C1  UNL     1     -14.453  14.551  27.488  1.00  0.00     0.011 C 
HETATM   40  C3  UNL     1     -13.697  12.267  28.069  1.00  0.00     0.010 A 
HETATM   41  C4  UNL     1     -12.237  12.518  28.073  1.00  0.00    -0.001 A 
HETATM   42  C5  UNL     1     -11.737  13.741  27.387  1.00  0.00     0.019 A 
ENDBRANCH  35  37
BRANCH  35  43
HETATM   43  O4  UNL     1     -12.203  13.300  30.872  1.00  0.00    -0.364 OA
BRANCH  43  44
HETATM   44  C31 UNL     1     -13.098  13.463  31.796  1.00  0.00     0.051 C 
HETATM   45  C32 UNL     1     -13.998  14.696  31.669  1.00  0.00     0.045 C 
HETATM   46  C33 UNL     1     -14.047  12.269  31.754  1.00  0.00     0.045 C 
HETATM   47  C34 UNL     1     -12.626  13.483  33.260  1.00  0.00     0.045 C 
ENDBRANCH  43  44
ENDBRANCH  35  43
ENDBRANCH  34  35
ENDBRANCH  32  34
ENDBRANCH   1  32
BRANCH   1  48
HETATM   48  O1  UNL     1     -11.424  18.560  28.397  1.00  0.00    -0.345 OA
ATOM     49  H1  UNL     1     -11.913  18.608  27.584  1.00  0.00     0.219 HD
ENDBRANCH   1  48
TORSDOF 14
ENDMDL
MODEL 5
REMARK VINA RESULT: -8.860427123      2.072      5.700
REMARK  14 active torsions:
REMARK  status: ('A' for Active; 'I' for Inactive)
REMARK    1  A    between atoms: C6_6  and  C7_7 
REMARK    2  A    between atoms: C7_7  and  C9_9 
REMARK    3  A    between atoms: C7_7  and  O4_45 
REMARK    4  A    between atoms: C9_9  and  N1_10 
REMARK    5  A    between atoms: N1_10  and  C10_12 
REMARK    6  A    between atoms: C10_12  and  O1_13 
REMARK    7  A    between atoms: C11_15  and  N2_16 
REMARK    8  A    between atoms: C11_15  and  C17_27 
REMARK       I    between atoms: N2_16  and  C12_18 
REMARK    9  A    between atoms: C12_18  and  C13_20 
REMARK   10  A    between atoms: C17_27  and  C18_28 
REMARK   11  A    between atoms: C17_27  and  C25_39 
REMARK   12  A    between atoms: C18_28  and  O3_29 
REMARK   13  A    between atoms: N4_31  and  C19_33 
REMARK   14  A    between atoms: O4_45  and  C31_46 
ROOT
HETATM    1  C10 UNL     1      -9.083  15.131  28.790  1.00  0.00     0.163 C 
HETATM    2  C11 UNL     1      -9.088  15.742  27.504  1.00  0.00     0.075 C 
ENDROOT
BRANCH   2   3
HETATM    3  N2  UNL     1      -8.337  16.993  27.482  1.00  0.00    -0.324 N 
HETATM    4  C12 UNL     1      -6.946  17.031  27.693  1.00  0.00     0.253 C 
HETATM    5  O2  UNL     1      -6.210  16.041  27.914  1.00  0.00    -0.271 OA
ATOM      6  H2  UNL     1      -8.834  17.866  27.308  1.00  0.00     0.169 HD
BRANCH   4   7
HETATM    7  C13 UNL     1      -6.238  18.377  27.653  1.00  0.00     0.277 C 
HETATM    8  C14 UNL     1      -4.795  18.080  27.225  1.00  0.00     0.044 C 
HETATM    9  C15 UNL     1      -4.834  18.343  25.711  1.00  0.00     0.030 C 
HETATM   10  C16 UNL     1      -5.825  19.513  25.648  1.00  0.00     0.233 C 
HETATM   11  N3  UNL     1      -6.739  19.272  26.687  1.00  0.00    -0.062 N 
ATOM     12  H32 UNL     1      -7.635  18.951  26.320  1.00  0.00     0.278 HD
ATOM     13  H31 UNL     1      -7.042  20.145  27.119  1.00  0.00     0.278 HD
ENDBRANCH   4   7
ENDBRANCH   2   3
BRANCH   2  14
HETATM   14  C17 UNL     1     -10.306  15.788  26.702  1.00  0.00     0.118 C 
BRANCH  14  15
HETATM   15  C18 UNL     1     -11.505  15.180  27.153  1.00  0.00     0.122 C 
HETATM   16  N4  UNL     1     -12.038  14.021  27.589  1.00  0.00    -0.369 N 
ATOM     17  H4  UNL     1     -11.424  13.209  27.673  1.00  0.00     0.161 HD
BRANCH  15  18
HETATM   18  O3  UNL     1     -12.513  16.158  27.122  1.00  0.00    -0.349 OA
ATOM     19  H3  UNL     1     -12.292  16.774  26.434  1.00  0.00     0.219 HD
ENDBRANCH  15  18
BRANCH  16  20
HETATM   20  C19 UNL     1     -13.473  13.860  27.956  1.00  0.00     0.083 C 
HETATM   21  C20 UNL     1     -13.920  14.697  29.047  1.00  0.00     0.025 C 
HETATM   22  C21 UNL     1     -14.667  14.099  30.192  1.00  0.00     0.002 C 
HETATM   23  C22 UNL     1     -14.545  12.639  30.395  1.00  0.00     0.000 C 
HETATM   24  C23 UNL     1     -13.358  12.051  29.616  1.00  0.00     0.002 C 
HETATM   25  C24 UNL     1     -13.670  12.360  28.177  1.00  0.00     0.025 C 
ENDBRANCH  16  20
ENDBRANCH  14  15
BRANCH  14  26
HETATM   26  C25 UNL     1      -9.955  15.284  25.238  1.00  0.00     0.003 C 
HETATM   27  C26 UNL     1     -10.500  16.345  24.330  1.00  0.00     0.006 C 
HETATM   28  C27 UNL     1     -10.173  16.078  22.869  1.00  0.00     0.000 C 
HETATM   29  C28 UNL     1      -8.678  16.067  22.722  1.00  0.00     0.000 C 
HETATM   30  C29 UNL     1      -8.094  15.024  23.649  1.00  0.00     0.000 C 
HETATM   31  C30 UNL     1      -8.472  15.232  25.097  1.00  0.00     0.006 C 
ENDBRANCH  14  26
ENDBRANCH   2  14
BRANCH   1  32
HETATM   32  N1  UNL     1      -9.717  15.534  30.016  1.00  0.00    -0.346 N 
ATOM     33  H1  UNL     1      -9.726  16.514  30.300  1.00  0.00     0.167 HD
BRANCH  32  34
HETATM   34  C9  UNL     1     -10.344  14.515  30.838  1.00  0.00     0.101 C 
BRANCH  34  35
HETATM   35  C7  UNL     1     -10.914  14.856  32.107  1.00  0.00     0.098 C 
HETATM   36  C8  UNL     1     -11.815  16.065  32.097  1.00  0.00     0.053 C 
BRANCH  35  37
HETATM   37  C6  UNL     1      -9.793  15.278  33.097  1.00  0.00     0.003 A 
HETATM   38  C2  UNL     1      -9.767  16.528  33.829  1.00  0.00    -0.006 A 
HETATM   39  C1  UNL     1      -9.495  16.215  35.335  1.00  0.00     0.011 C 
HETATM   40  C3  UNL     1      -8.410  16.858  33.205  1.00  0.00     0.010 A 
HETATM   41  C4  UNL     1      -8.447  15.537  32.536  1.00  0.00    -0.001 A 
HETATM   42  C5  UNL     1      -8.665  14.332  33.384  1.00  0.00     0.019 A 
ENDBRANCH  35  37
BRANCH  35  43
HETATM   43  O4  UNL     1     -11.570  13.921  32.836  1.00  0.00    -0.364 OA
BRANCH  43  44
HETATM   44  C31 UNL     1     -12.595  14.003  33.625  1.00  0.00     0.051 C 
HETATM   45  C32 UNL     1     -13.661  15.042  33.259  1.00  0.00     0.045 C 
HETATM   46  C33 UNL     1     -13.321  12.661  33.601  1.00  0.00     0.045 C 
HETATM   47  C34 UNL     1     -12.336  14.233  35.122  1.00  0.00     0.045 C 
ENDBRANCH  43  44
ENDBRANCH  35  43
ENDBRANCH  34  35
ENDBRANCH  32  34
ENDBRANCH   1  32
BRANCH   1  48
HETATM   48  O1  UNL     1      -8.379  14.017  28.959  1.00  0.00    -0.345 OA
ATOM     49  H1  UNL     1      -7.821  13.847  28.209  1.00  0.00     0.219 HD
ENDBRANCH   1  48
TORSDOF 14
ENDMDL
