MODEL 1
REMARK VINA RESULT: -8.906122482      0.000      0.000
REMARK  15 active torsions:
REMARK  status: ('A' for Active; 'I' for Inactive)
REMARK    1  A    between atoms: O1_2  and  C2_3 
REMARK       I    between atoms: C2_3  and  N1_5 
REMARK    2  A    between atoms: N1_5  and  C3_7 
REMARK    3  A    between atoms: C3_7  and  C5_9 
REMARK    4  A    between atoms: C3_7  and  C15_25 
REMARK    5  A    between atoms: C5_9  and  O3_10 
REMARK    6  A    between atoms: C5_9  and  N2_12 
REMARK    7  A    between atoms: C9_16  and  C10_17 
REMARK       I    between atoms: C10_17  and  N3_19 
REMARK    8  A    between atoms: N3_19  and  C11_21 
REMARK    9  A    between atoms: C15_25  and  N4_27 
REMARK   10  A    between atoms: N4_27  and  C17_29 
REMARK   11  A    between atoms: C17_29  and  C18_30 
REMARK   12  A    between atoms: C17_29  and  C22_34 
REMARK   13  A    between atoms: C18_30  and  C19_31 
REMARK       I    between atoms: C22_34  and  N5_36 
REMARK   14  A    between atoms: N5_36  and  C23_38 
REMARK   15  A    between atoms: C23_38  and  C26_41 
ROOT
HETATM    1  C3  UNL     1      -9.013  17.438  26.361  1.00  0.00     0.116 C 
HETATM    2  C4  UNL     1     -10.136  18.388  26.256  1.00  0.00     0.050 C 
ENDROOT
BRANCH   1   3
HETATM    3  N1  UNL     1      -8.813  16.759  25.049  1.00  0.00    -0.318 N 
HETATM    4  C2  UNL     1      -9.918  16.417  24.215  1.00  0.00     0.361 C 
HETATM    5  O2  UNL     1     -11.074  16.696  24.582  1.00  0.00    -0.238 OA
ATOM      6  H1  UNL     1      -7.867  16.533  24.741  1.00  0.00     0.166 HD
BRANCH   4   7
HETATM    7  O1  UNL     1      -9.734  15.779  23.002  1.00  0.00    -0.309 OA
HETATM    8  C1  UNL     1     -10.074  16.401  21.774  1.00  0.00     0.215 C 
ENDBRANCH   4   7
ENDBRANCH   1   3
BRANCH   1   9
HETATM    9  C5  UNL     1      -7.740  17.975  26.751  1.00  0.00     0.145 C 
BRANCH   9  10
HETATM   10  O3  UNL     1      -7.771  19.242  27.062  1.00  0.00    -0.347 OA
ATOM     11  H3  UNL     1      -7.046  19.744  26.710  1.00  0.00     0.219 HD
ENDBRANCH   9  10
BRANCH   9  12
HETATM   12  N2  UNL     1      -6.454  17.408  26.864  1.00  0.00    -0.350 N 
HETATM   13  C6  UNL     1      -5.875  16.986  28.154  1.00  0.00     0.126 C 
HETATM   14  C7  UNL     1      -4.394  16.665  27.872  1.00  0.00     0.022 C 
HETATM   15  C8  UNL     1      -4.157  17.403  26.587  1.00  0.00     0.037 C 
HETATM   16  C9  UNL     1      -5.498  17.041  25.879  1.00  0.00     0.178 C 
BRANCH  16  17
HETATM   17  C10 UNL     1      -5.462  17.668  24.574  1.00  0.00     0.241 C 
HETATM   18  O4  UNL     1      -5.080  18.833  24.386  1.00  0.00    -0.271 OA
HETATM   19  N3  UNL     1      -5.871  16.971  23.377  1.00  0.00    -0.351 N 
ATOM     20  H3  UNL     1      -6.192  16.009  23.477  1.00  0.00     0.163 HD
BRANCH  19  21
HETATM   21  C11 UNL     1      -5.860  17.529  22.067  1.00  0.00     0.022 C 
HETATM   22  C12 UNL     1      -4.511  17.986  21.578  1.00  0.00     0.037 C 
HETATM   23  C13 UNL     1      -6.805  18.716  22.018  1.00  0.00     0.037 C 
HETATM   24  C14 UNL     1      -6.448  16.477  21.115  1.00  0.00     0.037 C 
ENDBRANCH  19  21
ENDBRANCH  16  17
ENDBRANCH   9  12
ENDBRANCH   1   9
BRANCH   1  25
HETATM   25  C15 UNL     1      -9.416  16.248  27.335  1.00  0.00     0.113 C 
HETATM   26  C16 UNL     1      -8.898  14.972  26.808  1.00  0.00     0.035 C 
BRANCH  25  27
HETATM   27  N4  UNL     1     -10.754  16.376  27.638  1.00  0.00    -0.382 N 
ATOM     28  H4  UNL     1     -11.231  17.243  27.390  1.00  0.00     0.160 HD
BRANCH  27  29
HETATM   29  C17 UNL     1     -11.513  15.326  28.296  1.00  0.00     0.074 C 
BRANCH  29  30
HETATM   30  C18 UNL     1     -12.962  15.547  28.168  1.00  0.00     0.066 C 
BRANCH  30  31
HETATM   31  C19 UNL     1     -13.918  14.417  28.237  1.00  0.00    -0.017 C 
HETATM   32  C20 UNL     1     -13.459  13.120  27.658  1.00  0.00     0.010 C 
HETATM   33  C21 UNL     1     -14.577  14.221  29.590  1.00  0.00     0.010 C 
ENDBRANCH  30  31
ENDBRANCH  29  30
BRANCH  29  34
HETATM   34  C22 UNL     1     -10.946  14.854  29.566  1.00  0.00     0.264 C 
HETATM   35  O5  UNL     1     -10.821  13.642  29.872  1.00  0.00    -0.266 OA
HETATM   36  N5  UNL     1     -10.499  15.771  30.565  1.00  0.00    -0.347 N 
ATOM     37  H5  UNL     1     -10.576  16.762  30.334  1.00  0.00     0.163 HD
BRANCH  36  38
HETATM   38  C23 UNL     1      -9.953  15.460  31.859  1.00  0.00     0.029 C 
HETATM   39  C24 UNL     1      -8.783  14.520  31.842  1.00  0.00     0.038 C 
HETATM   40  C25 UNL     1      -9.308  16.798  32.407  1.00  0.00     0.038 C 
BRANCH  38  41
HETATM   41  C26 UNL     1     -10.968  15.124  32.886  1.00  0.00     0.013 C 
HETATM   42  C27 UNL     1     -10.630  15.893  34.185  1.00  0.00     0.007 C 
HETATM   43  C28 UNL     1     -11.480  15.413  35.318  1.00  0.00     0.000 C 
HETATM   44  C29 UNL     1     -12.503  14.408  34.919  1.00  0.00     0.000 C 
HETATM   45  C30 UNL     1     -13.258  14.772  33.687  1.00  0.00     0.000 C 
HETATM   46  C31 UNL     1     -12.393  15.386  32.594  1.00  0.00     0.007 C 
ENDBRANCH  38  41
ENDBRANCH  36  38
ENDBRANCH  29  34
ENDBRANCH  27  29
ENDBRANCH  25  27
ENDBRANCH   1  25
TORSDOF 15
ENDMDL
MODEL 2
REMARK VINA RESULT: -8.751131233      1.024      1.436
REMARK  15 active torsions:
REMARK  status: ('A' for Active; 'I' for Inactive)
REMARK    1  A    between atoms: O1_2  and  C2_3 
REMARK       I    between atoms: C2_3  and  N1_5 
REMARK    2  A    between atoms: N1_5  and  C3_7 
REMARK    3  A    between atoms: C3_7  and  C5_9 
REMARK    4  A    between atoms: C3_7  and  C15_25 
REMARK    5  A    between atoms: C5_9  and  O3_10 
REMARK    6  A    between atoms: C5_9  and  N2_12 
REMARK    7  A    between atoms: C9_16  and  C10_17 
REMARK       I    between atoms: C10_17  and  N3_19 
REMARK    8  A    between atoms: N3_19  and  C11_21 
REMARK    9  A    between atoms: C15_25  and  N4_27 
REMARK   10  A    between atoms: N4_27  and  C17_29 
REMARK   11  A    between atoms: C17_29  and  C18_30 
REMARK   12  A    between atoms: C17_29  and  C22_34 
REMARK   13  A    between atoms: C18_30  and  C19_31 
REMARK       I    between atoms: C22_34  and  N5_36 
REMARK   14  A    between atoms: N5_36  and  C23_38 
REMARK   15  A    between atoms: C23_38  and  C26_41 
ROOT
HETATM    1  C3  UNL     1      -9.635  16.961  26.151  1.00  0.00     0.116 C 
HETATM    2  C4  UNL     1      -9.507  18.421  25.987  1.00  0.00     0.050 C 
ENDROOT
BRANCH   1   3
HETATM    3  N1  UNL     1     -10.433  16.403  25.022  1.00  0.00    -0.318 N 
HETATM    4  C2  UNL     1      -9.995  16.530  23.671  1.00  0.00     0.361 C 
HETATM    5  O2  UNL     1      -8.923  17.111  23.425  1.00  0.00    -0.238 OA
ATOM      6  H1  UNL     1     -11.310  15.920  25.219  1.00  0.00     0.166 HD
BRANCH   4   7
HETATM    7  O1  UNL     1     -10.739  16.021  22.622  1.00  0.00    -0.309 OA
HETATM    8  C1  UNL     1     -10.434  16.331  21.273  1.00  0.00     0.215 C 
ENDBRANCH   4   7
ENDBRANCH   1   3
BRANCH   1   9
HETATM    9  C5  UNL     1      -8.417  16.203  26.215  1.00  0.00     0.145 C 
BRANCH   9  10
HETATM   10  O3  UNL     1      -8.501  15.017  25.680  1.00  0.00    -0.347 OA
ATOM     11  H3  UNL     1      -8.514  14.308  26.312  1.00  0.00     0.219 HD
ENDBRANCH   9  10
BRANCH   9  12
HETATM   12  N2  UNL     1      -7.141  16.484  26.747  1.00  0.00    -0.350 N 
HETATM   13  C6  UNL     1      -6.803  16.282  28.168  1.00  0.00     0.126 C 
HETATM   14  C7  UNL     1      -5.422  16.934  28.375  1.00  0.00     0.022 C 
HETATM   15  C8  UNL     1      -5.339  17.862  27.200  1.00  0.00     0.037 C 
HETATM   16  C9  UNL     1      -5.935  16.903  26.124  1.00  0.00     0.178 C 
BRANCH  16  17
HETATM   17  C10 UNL     1      -5.930  17.629  24.871  1.00  0.00     0.241 C 
HETATM   18  O4  UNL     1      -6.054  18.862  24.795  1.00  0.00    -0.271 OA
HETATM   19  N3  UNL     1      -5.776  16.964  23.599  1.00  0.00    -0.351 N 
ATOM     20  H3  UNL     1      -5.668  15.950  23.607  1.00  0.00     0.163 HD
BRANCH  19  21
HETATM   21  C11 UNL     1      -5.764  17.618  22.334  1.00  0.00     0.022 C 
HETATM   22  C12 UNL     1      -6.502  18.930  22.286  1.00  0.00     0.037 C 
HETATM   23  C13 UNL     1      -6.368  16.700  21.288  1.00  0.00     0.037 C 
HETATM   24  C14 UNL     1      -4.295  17.813  21.933  1.00  0.00     0.037 C 
ENDBRANCH  19  21
ENDBRANCH  16  17
ENDBRANCH   9  12
ENDBRANCH   1   9
BRANCH   1  25
HETATM   25  C15 UNL     1     -10.531  16.649  27.426  1.00  0.00     0.113 C 
HETATM   26  C16 UNL     1     -10.309  17.679  28.458  1.00  0.00     0.035 C 
BRANCH  25  27
HETATM   27  N4  UNL     1     -10.382  15.315  27.740  1.00  0.00    -0.382 N 
ATOM     28  H4  UNL     1      -9.523  14.841  27.461  1.00  0.00     0.160 HD
BRANCH  27  29
HETATM   29  C17 UNL     1     -11.399  14.559  28.451  1.00  0.00     0.074 C 
BRANCH  29  30
HETATM   30  C18 UNL     1     -12.754  14.997  28.079  1.00  0.00     0.066 C 
BRANCH  30  31
HETATM   31  C19 UNL     1     -13.896  14.054  28.102  1.00  0.00    -0.017 C 
HETATM   32  C20 UNL     1     -13.616  12.657  27.660  1.00  0.00     0.010 C 
HETATM   33  C21 UNL     1     -14.719  14.081  29.377  1.00  0.00     0.010 C 
ENDBRANCH  30  31
ENDBRANCH  29  30
BRANCH  29  34
HETATM   34  C22 UNL     1     -11.079  14.253  29.851  1.00  0.00     0.264 C 
HETATM   35  O5  UNL     1     -11.433  13.200  30.438  1.00  0.00    -0.266 OA
HETATM   36  N5  UNL     1     -10.334  15.166  30.657  1.00  0.00    -0.347 N 
ATOM     37  H5  UNL     1     -10.022  16.021  30.199  1.00  0.00     0.163 HD
BRANCH  36  38
HETATM   38  C23 UNL     1      -9.972  15.017  32.042  1.00  0.00     0.029 C 
HETATM   39  C24 UNL     1      -8.719  14.228  32.287  1.00  0.00     0.038 C 
HETATM   40  C25 UNL     1      -9.574  16.460  32.559  1.00  0.00     0.038 C 
BRANCH  38  41
HETATM   41  C26 UNL     1     -11.096  14.633  32.930  1.00  0.00     0.013 C 
HETATM   42  C27 UNL     1     -10.596  14.650  34.394  1.00  0.00     0.007 C 
HETATM   43  C28 UNL     1     -11.618  14.047  35.306  1.00  0.00     0.000 C 
HETATM   44  C29 UNL     1     -12.889  13.680  34.625  1.00  0.00     0.000 C 
HETATM   45  C30 UNL     1     -13.416  14.737  33.717  1.00  0.00     0.000 C 
HETATM   46  C31 UNL     1     -12.338  15.433  32.895  1.00  0.00     0.007 C 
ENDBRANCH  38  41
ENDBRANCH  36  38
ENDBRANCH  29  34
ENDBRANCH  27  29
ENDBRANCH  25  27
ENDBRANCH   1  25
TORSDOF 15
ENDMDL
MODEL 3
REMARK VINA RESULT: -8.678388677      2.054      4.197
REMARK  15 active torsions:
REMARK  status: ('A' for Active; 'I' for Inactive)
REMARK    1  A    between atoms: O1_2  and  C2_3 
REMARK       I    between atoms: C2_3  and  N1_5 
REMARK    2  A    between atoms: N1_5  and  C3_7 
REMARK    3  A    between atoms: C3_7  and  C5_9 
REMARK    4  A    between atoms: C3_7  and  C15_25 
REMARK    5  A    between atoms: C5_9  and  O3_10 
REMARK    6  A    between atoms: C5_9  and  N2_12 
REMARK    7  A    between atoms: C9_16  and  C10_17 
REMARK       I    between atoms: C10_17  and  N3_19 
REMARK    8  A    between atoms: N3_19  and  C11_21 
REMARK    9  A    between atoms: C15_25  and  N4_27 
REMARK   10  A    between atoms: N4_27  and  C17_29 
REMARK   11  A    between atoms: C17_29  and  C18_30 
REMARK   12  A    between atoms: C17_29  and  C22_34 
REMARK   13  A    between atoms: C18_30  and  C19_31 
REMARK       I    between atoms: C22_34  and  N5_36 
REMARK   14  A    between atoms: N5_36  and  C23_38 
REMARK   15  A    between atoms: C23_38  and  C26_41 
ROOT
HETATM    1  C3  UNL     1      -9.939  15.429  27.252  1.00  0.00     0.116 C 
HETATM    2  C4  UNL     1     -10.509  16.277  26.188  1.00  0.00     0.050 C 
ENDROOT
BRANCH   1   3
HETATM    3  N1  UNL     1     -10.489  14.049  27.135  1.00  0.00    -0.318 N 
HETATM    4  C2  UNL     1     -11.820  13.745  27.545  1.00  0.00     0.361 C 
HETATM    5  O2  UNL     1     -12.544  14.648  28.004  1.00  0.00    -0.238 OA
ATOM      6  H1  UNL     1      -9.902  13.307  26.755  1.00  0.00     0.166 HD
BRANCH   4   7
HETATM    7  O1  UNL     1     -12.329  12.463  27.446  1.00  0.00    -0.309 OA
HETATM    8  C1  UNL     1     -13.685  12.222  27.110  1.00  0.00     0.215 C 
ENDBRANCH   4   7
ENDBRANCH   1   3
BRANCH   1   9
HETATM    9  C5  UNL     1      -8.509  15.307  27.291  1.00  0.00     0.145 C 
BRANCH   9  10
HETATM   10  O3  UNL     1      -8.086  14.102  27.556  1.00  0.00    -0.347 OA
ATOM     11  H3  UNL     1      -7.728  14.003  28.430  1.00  0.00     0.219 HD
ENDBRANCH   9  10
BRANCH   9  12
HETATM   12  N2  UNL     1      -7.462  16.233  27.101  1.00  0.00    -0.350 N 
HETATM   13  C6  UNL     1      -6.894  17.036  28.201  1.00  0.00     0.126 C 
HETATM   14  C7  UNL     1      -5.972  18.077  27.536  1.00  0.00     0.022 C 
HETATM   15  C8  UNL     1      -6.485  18.090  26.127  1.00  0.00     0.037 C 
HETATM   16  C9  UNL     1      -6.686  16.553  25.955  1.00  0.00     0.178 C 
BRANCH  16  17
HETATM   17  C10 UNL     1      -7.182  16.345  24.610  1.00  0.00     0.241 C 
HETATM   18  O4  UNL     1      -7.776  15.316  24.252  1.00  0.00    -0.271 OA
HETATM   19  N3  UNL     1      -7.022  17.336  23.572  1.00  0.00    -0.351 N 
ATOM     20  H3  UNL     1      -6.542  18.202  23.816  1.00  0.00     0.163 HD
BRANCH  19  21
HETATM   21  C11 UNL     1      -7.484  17.194  22.233  1.00  0.00     0.022 C 
HETATM   22  C12 UNL     1      -8.964  16.950  22.090  1.00  0.00     0.037 C 
HETATM   23  C13 UNL     1      -6.752  16.044  21.568  1.00  0.00     0.037 C 
HETATM   24  C14 UNL     1      -7.073  18.460  21.468  1.00  0.00     0.037 C 
ENDBRANCH  19  21
ENDBRANCH  16  17
ENDBRANCH   9  12
ENDBRANCH   1   9
BRANCH   1  25
HETATM   25  C15 UNL     1     -10.475  15.922  28.665  1.00  0.00     0.113 C 
HETATM   26  C16 UNL     1     -10.506  17.397  28.702  1.00  0.00     0.035 C 
BRANCH  25  27
HETATM   27  N4  UNL     1      -9.807  15.222  29.646  1.00  0.00    -0.382 N 
ATOM     28  H4  UNL     1      -9.009  14.647  29.378  1.00  0.00     0.160 HD
BRANCH  27  29
HETATM   29  C17 UNL     1     -10.196  15.271  31.045  1.00  0.00     0.074 C 
BRANCH  29  30
HETATM   30  C18 UNL     1      -9.097  14.837  31.924  1.00  0.00     0.066 C 
BRANCH  30  31
HETATM   31  C19 UNL     1      -8.770  15.580  33.164  1.00  0.00    -0.017 C 
HETATM   32  C20 UNL     1      -8.576  17.053  33.026  1.00  0.00     0.010 C 
HETATM   33  C21 UNL     1      -9.642  15.240  34.359  1.00  0.00     0.010 C 
ENDBRANCH  30  31
ENDBRANCH  29  30
BRANCH  29  34
HETATM   34  C22 UNL     1     -11.575  14.849  31.321  1.00  0.00     0.264 C 
HETATM   35  O5  UNL     1     -12.465  15.614  31.771  1.00  0.00    -0.266 OA
HETATM   36  N5  UNL     1     -11.997  13.504  31.101  1.00  0.00    -0.347 N 
ATOM     37  H5  UNL     1     -11.295  12.868  30.722  1.00  0.00     0.163 HD
BRANCH  36  38
HETATM   38  C23 UNL     1     -13.297  12.942  31.351  1.00  0.00     0.029 C 
HETATM   39  C24 UNL     1     -14.428  13.617  30.630  1.00  0.00     0.038 C 
HETATM   40  C25 UNL     1     -13.294  11.497  30.703  1.00  0.00     0.038 C 
BRANCH  38  41
HETATM   41  C26 UNL     1     -13.583  12.674  32.781  1.00  0.00     0.013 C 
HETATM   42  C27 UNL     1     -13.936  11.177  32.942  1.00  0.00     0.007 C 
HETATM   43  C28 UNL     1     -14.458  10.903  34.317  1.00  0.00     0.000 C 
HETATM   44  C29 UNL     1     -14.417  12.085  35.222  1.00  0.00     0.000 C 
HETATM   45  C30 UNL     1     -13.127  12.829  35.185  1.00  0.00     0.000 C 
HETATM   46  C31 UNL     1     -12.543  12.978  33.786  1.00  0.00     0.007 C 
ENDBRANCH  38  41
ENDBRANCH  36  38
ENDBRANCH  29  34
ENDBRANCH  27  29
ENDBRANCH  25  27
ENDBRANCH   1  25
TORSDOF 15
ENDMDL
MODEL 4
REMARK VINA RESULT: -8.669988918      1.747      3.652
REMARK  15 active torsions:
REMARK  status: ('A' for Active; 'I' for Inactive)
REMARK    1  A    between atoms: O1_2  and  C2_3 
REMARK       I    between atoms: C2_3  and  N1_5 
REMARK    2  A    between atoms: N1_5  and  C3_7 
REMARK    3  A    between atoms: C3_7  and  C5_9 
REMARK    4  A    between atoms: C3_7  and  C15_25 
REMARK    5  A    between atoms: C5_9  and  O3_10 
REMARK    6  A    between atoms: C5_9  and  N2_12 
REMARK    7  A    between atoms: C9_16  and  C10_17 
REMARK       I    between atoms: C10_17  and  N3_19 
REMARK    8  A    between atoms: N3_19  and  C11_21 
REMARK    9  A    between atoms: C15_25  and  N4_27 
REMARK   10  A    between atoms: N4_27  and  C17_29 
REMARK   11  A    between atoms: C17_29  and  C18_30 
REMARK   12  A    between atoms: C17_29  and  C22_34 
REMARK   13  A    between atoms: C18_30  and  C19_31 
REMARK       I    between atoms: C22_34  and  N5_36 
REMARK   14  A    between atoms: N5_36  and  C23_38 
REMARK   15  A    between atoms: C23_38  and  C26_41 
ROOT
HETATM    1  C3  UNL     1      -9.050  17.129  27.474  1.00  0.00     0.116 C 
HETATM    2  C4  UNL     1     -10.248  17.983  27.586  1.00  0.00     0.050 C 
ENDROOT
BRANCH   1   3
HETATM    3  N1  UNL     1      -9.240  16.150  26.365  1.00  0.00    -0.318 N 
HETATM    4  C2  UNL     1      -9.360  16.579  25.011  1.00  0.00     0.361 C 
HETATM    5  O2  UNL     1      -9.298  17.793  24.742  1.00  0.00    -0.238 OA
ATOM      6  H1  UNL     1      -9.286  15.154  26.580  1.00  0.00     0.166 HD
BRANCH   4   7
HETATM    7  O1  UNL     1      -9.546  15.673  23.983  1.00  0.00    -0.309 OA
HETATM    8  C1  UNL     1     -10.149  16.049  22.756  1.00  0.00     0.215 C 
ENDBRANCH   4   7
ENDBRANCH   1   3
BRANCH   1   9
HETATM    9  C5  UNL     1      -7.798  17.791  27.235  1.00  0.00     0.145 C 
BRANCH   9  10
HETATM   10  O3  UNL     1      -7.901  19.083  27.086  1.00  0.00    -0.347 OA
ATOM     11  H3  UNL     1      -7.603  19.583  27.836  1.00  0.00     0.219 HD
ENDBRANCH   9  10
BRANCH   9  12
HETATM   12  N2  UNL     1      -6.472  17.324  27.126  1.00  0.00    -0.350 N 
HETATM   13  C6  UNL     1      -5.653  16.957  28.297  1.00  0.00     0.126 C 
HETATM   14  C7  UNL     1      -4.221  16.747  27.767  1.00  0.00     0.022 C 
HETATM   15  C8  UNL     1      -4.262  17.490  26.465  1.00  0.00     0.037 C 
HETATM   16  C9  UNL     1      -5.672  17.023  25.991  1.00  0.00     0.178 C 
BRANCH  16  17
HETATM   17  C10 UNL     1      -5.905  17.640  24.702  1.00  0.00     0.241 C 
HETATM   18  O4  UNL     1      -6.067  18.861  24.549  1.00  0.00    -0.271 OA
HETATM   19  N3  UNL     1      -5.963  16.870  23.482  1.00  0.00    -0.351 N 
ATOM     20  H3  UNL     1      -5.832  15.861  23.554  1.00  0.00     0.163 HD
BRANCH  19  21
HETATM   21  C11 UNL     1      -6.188  17.415  22.186  1.00  0.00     0.022 C 
HETATM   22  C12 UNL     1      -7.254  18.477  22.116  1.00  0.00     0.037 C 
HETATM   23  C13 UNL     1      -6.572  16.299  21.232  1.00  0.00     0.037 C 
HETATM   24  C14 UNL     1      -4.847  17.966  21.681  1.00  0.00     0.037 C 
ENDBRANCH  19  21
ENDBRANCH  16  17
ENDBRANCH   9  12
ENDBRANCH   1   9
BRANCH   1  25
HETATM   25  C15 UNL     1      -8.935  16.209  28.764  1.00  0.00     0.113 C 
HETATM   26  C16 UNL     1      -8.666  14.815  28.363  1.00  0.00     0.035 C 
BRANCH  25  27
HETATM   27  N4  UNL     1      -9.998  16.495  29.592  1.00  0.00    -0.382 N 
ATOM     28  H4  UNL     1     -10.559  17.324  29.399  1.00  0.00     0.160 HD
BRANCH  27  29
HETATM   29  C17 UNL     1     -10.352  15.662  30.730  1.00  0.00     0.074 C 
BRANCH  29  30
HETATM   30  C18 UNL     1      -9.158  15.081  31.363  1.00  0.00     0.066 C 
BRANCH  30  31
HETATM   31  C19 UNL     1      -8.822  15.374  32.776  1.00  0.00    -0.017 C 
HETATM   32  C20 UNL     1      -8.631  16.811  33.132  1.00  0.00     0.010 C 
HETATM   33  C21 UNL     1      -9.685  14.656  33.798  1.00  0.00     0.010 C 
ENDBRANCH  30  31
ENDBRANCH  29  30
BRANCH  29  34
HETATM   34  C22 UNL     1     -11.564  14.852  30.552  1.00  0.00     0.264 C 
HETATM   35  O5  UNL     1     -12.504  14.805  31.385  1.00  0.00    -0.266 OA
HETATM   36  N5  UNL     1     -11.748  14.036  29.396  1.00  0.00    -0.347 N 
ATOM     37  H5  UNL     1     -11.005  14.070  28.698  1.00  0.00     0.163 HD
BRANCH  36  38
HETATM   38  C23 UNL     1     -12.860  13.173  29.101  1.00  0.00     0.029 C 
HETATM   39  C24 UNL     1     -14.084  13.873  28.583  1.00  0.00     0.038 C 
HETATM   40  C25 UNL     1     -12.424  12.288  27.862  1.00  0.00     0.038 C 
BRANCH  38  41
HETATM   41  C26 UNL     1     -13.152  12.170  30.153  1.00  0.00     0.013 C 
HETATM   42  C27 UNL     1     -14.680  12.135  30.390  1.00  0.00     0.007 C 
HETATM   43  C28 UNL     1     -15.007  11.315  31.598  1.00  0.00     0.000 C 
HETATM   44  C29 UNL     1     -13.824  10.652  32.213  1.00  0.00     0.000 C 
HETATM   45  C30 UNL     1     -12.930   9.979  31.228  1.00  0.00     0.000 C 
HETATM   46  C31 UNL     1     -12.721  10.772  29.945  1.00  0.00     0.007 C 
ENDBRANCH  38  41
ENDBRANCH  36  38
ENDBRANCH  29  34
ENDBRANCH  27  29
ENDBRANCH  25  27
ENDBRANCH   1  25
TORSDOF 15
ENDMDL
MODEL 5
REMARK VINA RESULT: -8.654920638      2.357      4.151
REMARK  15 active torsions:
REMARK  status: ('A' for Active; 'I' for Inactive)
REMARK    1  A    between atoms: O1_2  and  C2_3 
REMARK       I    between atoms: C2_3  and  N1_5 
REMARK    2  A    between atoms: N1_5  and  C3_7 
REMARK    3  A    between atoms: C3_7  and  C5_9 
REMARK    4  A    between atoms: C3_7  and  C15_25 
REMARK    5  A    between atoms: C5_9  and  O3_10 
REMARK    6  A    between atoms: C5_9  and  N2_12 
REMARK    7  A    between atoms: C9_16  and  C10_17 
REMARK       I    between atoms: C10_17  and  N3_19 
REMARK    8  A    between atoms: N3_19  and  C11_21 
REMARK    9  A    between atoms: C15_25  and  N4_27 
REMARK   10  A    between atoms: N4_27  and  C17_29 
REMARK   11  A    between atoms: C17_29  and  C18_30 
REMARK   12  A    between atoms: C17_29  and  C22_34 
REMARK   13  A    between atoms: C18_30  and  C19_31 
REMARK       I    between atoms: C22_34  and  N5_36 
REMARK   14  A    between atoms: N5_36  and  C23_38 
REMARK   15  A    between atoms: C23_38  and  C26_41 
ROOT
HETATM    1  C3  UNL     1     -11.290  14.730  28.062  1.00  0.00     0.116 C 
HETATM    2  C4  UNL     1     -12.259  15.842  28.085  1.00  0.00     0.050 C 
ENDROOT
BRANCH   1   3
HETATM    3  N1  UNL     1     -10.921  14.421  26.651  1.00  0.00    -0.318 N 
HETATM    4  C2  UNL     1     -10.317  15.403  25.812  1.00  0.00     0.361 C 
HETATM    5  O2  UNL     1     -10.084  16.538  26.263  1.00  0.00    -0.238 OA
ATOM      6  H1  UNL     1     -11.105  13.489  26.279  1.00  0.00     0.166 HD
BRANCH   4   7
HETATM    7  O1  UNL     1      -9.984  15.120  24.500  1.00  0.00    -0.309 OA
HETATM    8  C1  UNL     1     -10.070  16.101  23.480  1.00  0.00     0.215 C 
ENDBRANCH   4   7
ENDBRANCH   1   3
BRANCH   1   9
HETATM    9  C5  UNL     1     -10.062  14.922  28.782  1.00  0.00     0.145 C 
BRANCH   9  10
HETATM   10  O3  UNL     1      -9.277  13.880  28.780  1.00  0.00    -0.347 OA
ATOM     11  H3  UNL     1      -9.708  13.072  29.029  1.00  0.00     0.219 HD
ENDBRANCH   9  10
BRANCH   9  12
HETATM   12  N2  UNL     1      -9.531  16.015  29.498  1.00  0.00    -0.350 N 
HETATM   13  C6  UNL     1     -10.290  16.737  30.537  1.00  0.00     0.126 C 
HETATM   14  C7  UNL     1      -9.459  17.989  30.879  1.00  0.00     0.022 C 
HETATM   15  C8  UNL     1      -8.580  18.117  29.671  1.00  0.00     0.037 C 
HETATM   16  C9  UNL     1      -8.239  16.606  29.489  1.00  0.00     0.178 C 
BRANCH  16  17
HETATM   17  C10 UNL     1      -7.360  16.513  28.342  1.00  0.00     0.241 C 
HETATM   18  O4  UNL     1      -7.019  15.436  27.828  1.00  0.00    -0.271 OA
HETATM   19  N3  UNL     1      -6.810  17.683  27.700  1.00  0.00    -0.351 N 
ATOM     20  H3  UNL     1      -7.062  18.594  28.082  1.00  0.00     0.163 HD
BRANCH  19  21
HETATM   21  C11 UNL     1      -5.941  17.660  26.572  1.00  0.00     0.022 C 
HETATM   22  C12 UNL     1      -4.587  17.049  26.820  1.00  0.00     0.037 C 
HETATM   23  C13 UNL     1      -5.733  19.076  26.068  1.00  0.00     0.037 C 
HETATM   24  C14 UNL     1      -6.670  16.910  25.447  1.00  0.00     0.037 C 
ENDBRANCH  19  21
ENDBRANCH  16  17
ENDBRANCH   9  12
ENDBRANCH   1   9
BRANCH   1  25
HETATM   25  C15 UNL     1     -12.001  13.399  28.559  1.00  0.00     0.113 C 
HETATM   26  C16 UNL     1     -12.318  12.539  27.403  1.00  0.00     0.035 C 
BRANCH  25  27
HETATM   27  N4  UNL     1     -12.992  13.748  29.450  1.00  0.00    -0.382 N 
ATOM     28  H4  UNL     1     -13.605  14.529  29.218  1.00  0.00     0.160 HD
BRANCH  27  29
HETATM   29  C17 UNL     1     -13.199  13.048  30.707  1.00  0.00     0.074 C 
BRANCH  29  30
HETATM   30  C18 UNL     1     -14.409  12.211  30.664  1.00  0.00     0.066 C 
BRANCH  30  31
HETATM   31  C19 UNL     1     -14.377  10.797  31.106  1.00  0.00    -0.017 C 
HETATM   32  C20 UNL     1     -13.069  10.090  30.985  1.00  0.00     0.010 C 
HETATM   33  C21 UNL     1     -15.031  10.535  32.451  1.00  0.00     0.010 C 
ENDBRANCH  30  31
ENDBRANCH  29  30
BRANCH  29  34
HETATM   34  C22 UNL     1     -12.879  13.826  31.910  1.00  0.00     0.264 C 
HETATM   35  O5  UNL     1     -13.127  15.051  32.040  1.00  0.00    -0.266 OA
HETATM   36  N5  UNL     1     -12.236  13.223  33.034  1.00  0.00    -0.347 N 
ATOM     37  H5  UNL     1     -12.038  12.226  32.958  1.00  0.00     0.163 HD
BRANCH  36  38
HETATM   38  C23 UNL     1     -11.837  13.860  34.260  1.00  0.00     0.029 C 
HETATM   39  C24 UNL     1     -12.964  14.432  35.072  1.00  0.00     0.038 C 
HETATM   40  C25 UNL     1     -11.285  12.713  35.203  1.00  0.00     0.038 C 
BRANCH  38  41
HETATM   41  C26 UNL     1     -10.681  14.778  34.125  1.00  0.00     0.013 C 
HETATM   42  C27 UNL     1     -10.261  15.255  35.535  1.00  0.00     0.007 C 
HETATM   43  C28 UNL     1      -9.255  16.359  35.441  1.00  0.00     0.000 C 
HETATM   44  C29 UNL     1      -8.822  16.660  34.048  1.00  0.00     0.000 C 
HETATM   45  C30 UNL     1      -8.494  15.449  33.243  1.00  0.00     0.000 C 
HETATM   46  C31 UNL     1      -9.455  14.288  33.459  1.00  0.00     0.007 C 
ENDBRANCH  38  41
ENDBRANCH  36  38
ENDBRANCH  29  34
ENDBRANCH  27  29
ENDBRANCH  25  27
ENDBRANCH   1  25
TORSDOF 15
ENDMDL
