MODEL 1
REMARK VINA RESULT: -9.428562191      0.000      0.000
REMARK  12 active torsions:
REMARK  status: ('A' for Active; 'I' for Inactive)
REMARK    1  A    between atoms: C2_2  and  N1_3 
REMARK    2  A    between atoms: C2_2  and  C30_42 
REMARK       I    between atoms: N1_3  and  C3_5 
REMARK    3  A    between atoms: C3_5  and  C4_7 
REMARK       I    between atoms: N2_12  and  C9_13 
REMARK    4  A    between atoms: C9_13  and  C10_15 
REMARK    5  A    between atoms: C10_15  and  C11_16 
REMARK    6  A    between atoms: C10_15  and  N3_23 
REMARK    7  A    between atoms: C11_16  and  C12_17 
REMARK       I    between atoms: N3_23  and  C18_25 
REMARK    8  A    between atoms: C18_25  and  C19_27 
REMARK    9  A    between atoms: C19_27  and  N4_28 
REMARK   10  A    between atoms: C19_27  and  C25_37 
REMARK       I    between atoms: N4_28  and  C20_30 
REMARK   11  A    between atoms: C20_30  and  O5_32 
REMARK   12  A    between atoms: O5_32  and  C21_33 
ROOT
HETATM    1  C10 UNL     1      -9.962  16.221  30.712  1.00  0.00     0.177 C 
ENDROOT
BRANCH   1   2
HETATM    2  C9  UNL     1      -9.924  16.895  29.415  1.00  0.00     0.242 C 
HETATM    3  N2  UNL     1      -8.786  16.896  28.524  1.00  0.00    -0.349 N 
HETATM    4  C8  UNL     1      -7.571  16.256  28.912  1.00  0.00     0.126 C 
HETATM    5  C29 UNL     1      -8.987  17.533  27.227  1.00  0.00     0.144 C 
HETATM    6  C7  UNL     1      -6.409  16.345  27.998  1.00  0.00     0.021 C 
HETATM    7  C6  UNL     1      -6.585  17.116  26.740  1.00  0.00     0.022 C 
HETATM    8  C4  UNL     1      -8.016  16.952  26.208  1.00  0.00     0.053 C 
HETATM    9  C5  UNL     1      -8.200  15.465  26.020  1.00  0.00     0.027 C 
HETATM   10  O2  UNL     1     -10.960  17.506  29.037  1.00  0.00    -0.271 OA
BRANCH   8  11
HETATM   11  C3  UNL     1      -8.086  17.623  24.902  1.00  0.00     0.228 C 
HETATM   12  N1  UNL     1      -6.948  17.830  24.051  1.00  0.00    -0.346 N 
ATOM     13  H1  UNL     1      -6.032  17.501  24.358  1.00  0.00     0.163 HD
HETATM   14  O1  UNL     1      -9.210  18.046  24.498  1.00  0.00    -0.273 OA
BRANCH  12  15
HETATM   15  C2  UNL     1      -7.064  18.485  22.782  1.00  0.00     0.181 C 
HETATM   16  C1  UNL     1      -5.766  18.973  22.206  1.00  0.00     0.043 C 
BRANCH  15  17
HETATM   17  C30 UNL     1      -7.650  17.524  21.782  1.00  0.00     0.196 C 
HETATM   18  O6  UNL     1      -7.288  16.331  21.728  1.00  0.00    -0.646 OA
HETATM   19  O7  UNL     1      -8.610  17.996  20.914  1.00  0.00    -0.646 OA
ENDBRANCH  15  17
ENDBRANCH  12  15
ENDBRANCH   8  11
ENDBRANCH   1   2
BRANCH   1  20
HETATM   20  C11 UNL     1      -9.528  16.916  31.911  1.00  0.00     0.039 C 
BRANCH  20  21
HETATM   21  C12 UNL     1      -9.397  16.289  33.235  1.00  0.00    -0.012 C 
HETATM   22  C13 UNL     1     -10.706  16.554  34.044  1.00  0.00     0.005 C 
HETATM   23  C14 UNL     1     -10.756  15.609  35.228  1.00  0.00     0.000 C 
HETATM   24  C15 UNL     1      -9.313  15.486  35.771  1.00  0.00     0.000 C 
HETATM   25  C16 UNL     1      -8.629  16.828  35.556  1.00  0.00     0.000 C 
HETATM   26  C17 UNL     1      -8.322  16.949  34.066  1.00  0.00     0.005 C 
ENDBRANCH  20  21
ENDBRANCH   1  20
BRANCH   1  27
HETATM   27  N3  UNL     1     -11.405  15.858  30.978  1.00  0.00    -0.346 N 
HETATM   28  C18 UNL     1     -11.817  14.577  30.643  1.00  0.00     0.242 C 
HETATM   29  O3  UNL     1     -10.929  13.795  30.112  1.00  0.00    -0.271 OA
ATOM     30  H3  UNL     1     -12.052  16.530  31.389  1.00  0.00     0.163 HD
BRANCH  28  31
HETATM   31  C19 UNL     1     -13.134  13.940  30.793  1.00  0.00     0.186 C 
BRANCH  31  32
HETATM   32  N4  UNL     1     -13.036  12.644  31.426  1.00  0.00    -0.323 N 
HETATM   33  C20 UNL     1     -13.524  12.331  32.705  1.00  0.00     0.362 C 
HETATM   34  O4  UNL     1     -14.111  13.165  33.448  1.00  0.00    -0.238 OA
ATOM     35  H4  UNL     1     -12.575  11.899  30.903  1.00  0.00     0.165 HD
BRANCH  33  36
HETATM   36  O5  UNL     1     -13.367  11.060  33.193  1.00  0.00    -0.294 OA
BRANCH  36  37
HETATM   37  C21 UNL     1     -13.985   9.908  32.714  1.00  0.00     0.061 C 
HETATM   38  C22 UNL     1     -15.308  10.218  32.022  1.00  0.00     0.046 C 
HETATM   39  C23 UNL     1     -14.323   9.082  33.960  1.00  0.00     0.046 C 
HETATM   40  C24 UNL     1     -13.119   9.053  31.838  1.00  0.00     0.046 C 
ENDBRANCH  36  37
ENDBRANCH  33  36
ENDBRANCH  31  32
BRANCH  31  41
HETATM   41  C25 UNL     1     -13.974  14.020  29.576  1.00  0.00    -0.022 C 
HETATM   42  C26 UNL     1     -13.573  15.070  28.586  1.00  0.00     0.017 C 
HETATM   43  C27 UNL     1     -15.415  14.139  30.008  1.00  0.00     0.017 C 
HETATM   44  C28 UNL     1     -13.909  12.693  28.789  1.00  0.00     0.017 C 
ENDBRANCH  31  41
ENDBRANCH  28  31
ENDBRANCH   1  27
TORSDOF 12
ENDMDL
MODEL 2
REMARK VINA RESULT: -9.392258852      1.220      1.576
REMARK  12 active torsions:
REMARK  status: ('A' for Active; 'I' for Inactive)
REMARK    1  A    between atoms: C2_2  and  N1_3 
REMARK    2  A    between atoms: C2_2  and  C30_42 
REMARK       I    between atoms: N1_3  and  C3_5 
REMARK    3  A    between atoms: C3_5  and  C4_7 
REMARK       I    between atoms: N2_12  and  C9_13 
REMARK    4  A    between atoms: C9_13  and  C10_15 
REMARK    5  A    between atoms: C10_15  and  C11_16 
REMARK    6  A    between atoms: C10_15  and  N3_23 
REMARK    7  A    between atoms: C11_16  and  C12_17 
REMARK       I    between atoms: N3_23  and  C18_25 
REMARK    8  A    between atoms: C18_25  and  C19_27 
REMARK    9  A    between atoms: C19_27  and  N4_28 
REMARK   10  A    between atoms: C19_27  and  C25_37 
REMARK       I    between atoms: N4_28  and  C20_30 
REMARK   11  A    between atoms: C20_30  and  O5_32 
REMARK   12  A    between atoms: O5_32  and  C21_33 
ROOT
HETATM    1  C10 UNL     1      -9.989  16.198  30.563  1.00  0.00     0.177 C 
ENDROOT
BRANCH   1   2
HETATM    2  C9  UNL     1      -9.890  16.795  29.232  1.00  0.00     0.242 C 
HETATM    3  N2  UNL     1      -8.698  16.785  28.415  1.00  0.00    -0.349 N 
HETATM    4  C8  UNL     1      -7.490  16.215  28.917  1.00  0.00     0.126 C 
HETATM    5  C29 UNL     1      -8.837  17.337  27.072  1.00  0.00     0.144 C 
HETATM    6  C7  UNL     1      -6.276  16.292  28.073  1.00  0.00     0.021 C 
HETATM    7  C6  UNL     1      -6.396  16.980  26.762  1.00  0.00     0.022 C 
HETATM    8  C4  UNL     1      -7.783  16.732  26.153  1.00  0.00     0.053 C 
HETATM    9  C5  UNL     1      -7.906  15.230  26.046  1.00  0.00     0.027 C 
HETATM   10  O2  UNL     1     -10.920  17.344  28.753  1.00  0.00    -0.271 OA
BRANCH   8  11
HETATM   11  C3  UNL     1      -7.791  17.321  24.806  1.00  0.00     0.228 C 
HETATM   12  N1  UNL     1      -7.665  16.553  23.600  1.00  0.00    -0.346 N 
ATOM     13  H1  UNL     1      -7.560  15.540  23.665  1.00  0.00     0.163 HD
HETATM   14  O1  UNL     1      -7.915  18.577  24.695  1.00  0.00    -0.273 OA
BRANCH  12  15
HETATM   15  C2  UNL     1      -7.684  17.170  22.306  1.00  0.00     0.181 C 
HETATM   16  C1  UNL     1      -6.715  16.587  21.318  1.00  0.00     0.043 C 
BRANCH  15  17
HETATM   17  C30 UNL     1      -9.058  17.023  21.709  1.00  0.00     0.196 C 
HETATM   18  O6  UNL     1      -9.435  17.725  20.749  1.00  0.00    -0.646 OA
HETATM   19  O7  UNL     1      -9.904  16.080  22.251  1.00  0.00    -0.646 OA
ENDBRANCH  15  17
ENDBRANCH  12  15
ENDBRANCH   8  11
ENDBRANCH   1   2
BRANCH   1  20
HETATM   20  C11 UNL     1      -9.559  16.944  31.733  1.00  0.00     0.039 C 
BRANCH  20  21
HETATM   21  C12 UNL     1      -9.381  16.362  33.071  1.00  0.00    -0.012 C 
HETATM   22  C13 UNL     1     -10.697  16.569  33.885  1.00  0.00     0.005 C 
HETATM   23  C14 UNL     1     -10.681  15.654  35.094  1.00  0.00     0.000 C 
HETATM   24  C15 UNL     1      -9.229  15.633  35.627  1.00  0.00     0.000 C 
HETATM   25  C16 UNL     1      -8.629  17.007  35.371  1.00  0.00     0.000 C 
HETATM   26  C17 UNL     1      -8.342  17.106  33.875  1.00  0.00     0.005 C 
ENDBRANCH  20  21
ENDBRANCH   1  20
BRANCH   1  27
HETATM   27  N3  UNL     1     -11.452  15.907  30.808  1.00  0.00    -0.346 N 
HETATM   28  C18 UNL     1     -11.878  14.596  30.664  1.00  0.00     0.242 C 
HETATM   29  O3  UNL     1     -10.985  13.723  30.315  1.00  0.00    -0.271 OA
ATOM     30  H3  UNL     1     -12.102  16.649  31.069  1.00  0.00     0.163 HD
BRANCH  28  31
HETATM   31  C19 UNL     1     -13.217  14.014  30.846  1.00  0.00     0.186 C 
BRANCH  31  32
HETATM   32  N4  UNL     1     -13.182  12.839  31.687  1.00  0.00    -0.323 N 
HETATM   33  C20 UNL     1     -13.528  12.809  33.049  1.00  0.00     0.362 C 
HETATM   34  O4  UNL     1     -13.911  13.826  33.690  1.00  0.00    -0.238 OA
ATOM     35  H4  UNL     1     -12.884  11.963  31.259  1.00  0.00     0.165 HD
BRANCH  33  36
HETATM   36  O5  UNL     1     -13.452  11.627  33.737  1.00  0.00    -0.294 OA
BRANCH  36  37
HETATM   37  C21 UNL     1     -13.091  11.470  35.072  1.00  0.00     0.061 C 
HETATM   38  C22 UNL     1     -11.796  12.206  35.402  1.00  0.00     0.046 C 
HETATM   39  C23 UNL     1     -12.801   9.974  35.241  1.00  0.00     0.046 C 
HETATM   40  C24 UNL     1     -14.164  11.827  36.057  1.00  0.00     0.046 C 
ENDBRANCH  36  37
ENDBRANCH  33  36
ENDBRANCH  31  32
BRANCH  31  41
HETATM   41  C25 UNL     1     -13.993  13.906  29.590  1.00  0.00    -0.022 C 
HETATM   42  C26 UNL     1     -13.529  14.785  28.469  1.00  0.00     0.017 C 
HETATM   43  C27 UNL     1     -15.453  14.098  29.922  1.00  0.00     0.017 C 
HETATM   44  C28 UNL     1     -13.905  12.471  29.024  1.00  0.00     0.017 C 
ENDBRANCH  31  41
ENDBRANCH  28  31
ENDBRANCH   1  27
TORSDOF 12
ENDMDL
MODEL 3
REMARK VINA RESULT: -9.214777975      1.658      2.300
REMARK  12 active torsions:
REMARK  status: ('A' for Active; 'I' for Inactive)
REMARK    1  A    between atoms: C2_2  and  N1_3 
REMARK    2  A    between atoms: C2_2  and  C30_42 
REMARK       I    between atoms: N1_3  and  C3_5 
REMARK    3  A    between atoms: C3_5  and  C4_7 
REMARK       I    between atoms: N2_12  and  C9_13 
REMARK    4  A    between atoms: C9_13  and  C10_15 
REMARK    5  A    between atoms: C10_15  and  C11_16 
REMARK    6  A    between atoms: C10_15  and  N3_23 
REMARK    7  A    between atoms: C11_16  and  C12_17 
REMARK       I    between atoms: N3_23  and  C18_25 
REMARK    8  A    between atoms: C18_25  and  C19_27 
REMARK    9  A    between atoms: C19_27  and  N4_28 
REMARK   10  A    between atoms: C19_27  and  C25_37 
REMARK       I    between atoms: N4_28  and  C20_30 
REMARK   11  A    between atoms: C20_30  and  O5_32 
REMARK   12  A    between atoms: O5_32  and  C21_33 
ROOT
HETATM    1  C10 UNL     1      -9.282  14.850  29.865  1.00  0.00     0.177 C 
ENDROOT
BRANCH   1   2
HETATM    2  C9  UNL     1      -8.835  15.025  28.484  1.00  0.00     0.242 C 
HETATM    3  N2  UNL     1      -8.228  16.228  27.964  1.00  0.00    -0.349 N 
HETATM    4  C8  UNL     1      -8.081  17.376  28.800  1.00  0.00     0.126 C 
HETATM    5  C29 UNL     1      -7.751  16.163  26.587  1.00  0.00     0.144 C 
HETATM    6  C7  UNL     1      -7.521  18.610  28.204  1.00  0.00     0.021 C 
HETATM    7  C6  UNL     1      -7.165  18.573  26.762  1.00  0.00     0.022 C 
HETATM    8  C4  UNL     1      -6.640  17.183  26.376  1.00  0.00     0.053 C 
HETATM    9  C5  UNL     1      -5.456  16.941  27.283  1.00  0.00     0.027 C 
HETATM   10  O2  UNL     1      -8.974  14.053  27.692  1.00  0.00    -0.271 OA
BRANCH   8  11
HETATM   11  C3  UNL     1      -6.182  17.251  24.980  1.00  0.00     0.228 C 
HETATM   12  N1  UNL     1      -7.048  17.074  23.849  1.00  0.00    -0.346 N 
ATOM     13  H1  UNL     1      -8.038  16.886  24.007  1.00  0.00     0.163 HD
HETATM   14  O1  UNL     1      -4.956  17.478  24.755  1.00  0.00    -0.273 OA
BRANCH  12  15
HETATM   15  C2  UNL     1      -6.559  17.154  22.504  1.00  0.00     0.181 C 
HETATM   16  C1  UNL     1      -6.969  16.014  21.617  1.00  0.00     0.043 C 
BRANCH  15  17
HETATM   17  C30 UNL     1      -7.080  18.413  21.864  1.00  0.00     0.196 C 
HETATM   18  O6  UNL     1      -6.752  19.544  22.277  1.00  0.00    -0.646 OA
HETATM   19  O7  UNL     1      -7.940  18.290  20.794  1.00  0.00    -0.646 OA
ENDBRANCH  15  17
ENDBRANCH  12  15
ENDBRANCH   8  11
ENDBRANCH   1   2
BRANCH   1  20
HETATM   20  C11 UNL     1      -8.598  15.535  30.948  1.00  0.00     0.039 C 
BRANCH  20  21
HETATM   21  C12 UNL     1      -9.226  15.908  32.224  1.00  0.00    -0.012 C 
HETATM   22  C13 UNL     1      -8.244  16.831  33.013  1.00  0.00     0.005 C 
HETATM   23  C14 UNL     1      -9.005  17.533  34.120  1.00  0.00     0.000 C 
HETATM   24  C15 UNL     1     -10.014  16.510  34.694  1.00  0.00     0.000 C 
HETATM   25  C16 UNL     1      -9.372  15.134  34.601  1.00  0.00     0.000 C 
HETATM   26  C17 UNL     1      -9.405  14.716  33.133  1.00  0.00     0.005 C 
ENDBRANCH  20  21
ENDBRANCH   1  20
BRANCH   1  27
HETATM   27  N3  UNL     1     -10.708  15.347  29.933  1.00  0.00    -0.346 N 
HETATM   28  C18 UNL     1     -11.691  14.433  30.280  1.00  0.00     0.242 C 
HETATM   29  O3  UNL     1     -11.307  13.215  30.503  1.00  0.00    -0.271 OA
ATOM     30  H3  UNL     1     -10.938  16.320  29.732  1.00  0.00     0.163 HD
BRANCH  28  31
HETATM   31  C19 UNL     1     -13.141  14.622  30.437  1.00  0.00     0.186 C 
BRANCH  31  32
HETATM   32  N4  UNL     1     -13.651  13.923  31.596  1.00  0.00    -0.323 N 
HETATM   33  C20 UNL     1     -13.566  14.385  32.920  1.00  0.00     0.362 C 
HETATM   34  O4  UNL     1     -13.025  15.479  33.240  1.00  0.00    -0.238 OA
ATOM     35  H4  UNL     1     -14.107  13.024  31.440  1.00  0.00     0.165 HD
BRANCH  33  36
HETATM   36  O5  UNL     1     -14.090  13.625  33.933  1.00  0.00    -0.294 OA
BRANCH  36  37
HETATM   37  C21 UNL     1     -13.494  12.516  34.527  1.00  0.00     0.061 C 
HETATM   38  C22 UNL     1     -13.588  11.277  33.643  1.00  0.00     0.046 C 
HETATM   39  C23 UNL     1     -14.331  12.228  35.779  1.00  0.00     0.046 C 
HETATM   40  C24 UNL     1     -12.081  12.734  34.981  1.00  0.00     0.046 C 
ENDBRANCH  36  37
ENDBRANCH  33  36
ENDBRANCH  31  32
BRANCH  31  41
HETATM   41  C25 UNL     1     -13.901  14.458  29.178  1.00  0.00    -0.022 C 
HETATM   42  C26 UNL     1     -13.583  15.447  28.100  1.00  0.00     0.017 C 
HETATM   43  C27 UNL     1     -15.371  14.413  29.520  1.00  0.00     0.017 C 
HETATM   44  C28 UNL     1     -13.605  13.080  28.545  1.00  0.00     0.017 C 
ENDBRANCH  31  41
ENDBRANCH  28  31
ENDBRANCH   1  27
TORSDOF 12
ENDMDL
MODEL 4
REMARK VINA RESULT: -8.976122377      1.764      2.361
REMARK  12 active torsions:
REMARK  status: ('A' for Active; 'I' for Inactive)
REMARK    1  A    between atoms: C2_2  and  N1_3 
REMARK    2  A    between atoms: C2_2  and  C30_42 
REMARK       I    between atoms: N1_3  and  C3_5 
REMARK    3  A    between atoms: C3_5  and  C4_7 
REMARK       I    between atoms: N2_12  and  C9_13 
REMARK    4  A    between atoms: C9_13  and  C10_15 
REMARK    5  A    between atoms: C10_15  and  C11_16 
REMARK    6  A    between atoms: C10_15  and  N3_23 
REMARK    7  A    between atoms: C11_16  and  C12_17 
REMARK       I    between atoms: N3_23  and  C18_25 
REMARK    8  A    between atoms: C18_25  and  C19_27 
REMARK    9  A    between atoms: C19_27  and  N4_28 
REMARK   10  A    between atoms: C19_27  and  C25_37 
REMARK       I    between atoms: N4_28  and  C20_30 
REMARK   11  A    between atoms: C20_30  and  O5_32 
REMARK   12  A    between atoms: O5_32  and  C21_33 
ROOT
HETATM    1  C10 UNL     1      -9.229  14.722  30.293  1.00  0.00     0.177 C 
ENDROOT
BRANCH   1   2
HETATM    2  C9  UNL     1      -8.495  15.540  29.329  1.00  0.00     0.242 C 
HETATM    3  N2  UNL     1      -8.753  15.563  27.907  1.00  0.00    -0.349 N 
HETATM    4  C8  UNL     1      -9.745  14.706  27.345  1.00  0.00     0.126 C 
HETATM    5  C29 UNL     1      -7.984  16.530  27.131  1.00  0.00     0.144 C 
HETATM    6  C7  UNL     1      -9.924  14.711  25.875  1.00  0.00     0.021 C 
HETATM    7  C6  UNL     1      -9.039  15.601  25.081  1.00  0.00     0.022 C 
HETATM    8  C4  UNL     1      -8.739  16.890  25.859  1.00  0.00     0.053 C 
HETATM    9  C5  UNL     1     -10.090  17.503  26.145  1.00  0.00     0.027 C 
HETATM   10  O2  UNL     1      -7.582  16.292  29.768  1.00  0.00    -0.271 OA
BRANCH   8  11
HETATM   11  C3  UNL     1      -7.975  17.780  24.971  1.00  0.00     0.228 C 
HETATM   12  N1  UNL     1      -7.840  17.569  23.557  1.00  0.00    -0.346 N 
ATOM     13  H1  UNL     1      -8.290  16.759  23.131  1.00  0.00     0.163 HD
HETATM   14  O1  UNL     1      -7.401  18.791  25.475  1.00  0.00    -0.273 OA
BRANCH  12  15
HETATM   15  C2  UNL     1      -7.090  18.466  22.729  1.00  0.00     0.181 C 
HETATM   16  C1  UNL     1      -5.607  18.449  22.966  1.00  0.00     0.043 C 
BRANCH  15  17
HETATM   17  C30 UNL     1      -7.304  18.099  21.285  1.00  0.00     0.196 C 
HETATM   18  O6  UNL     1      -6.349  17.850  20.521  1.00  0.00    -0.646 OA
HETATM   19  O7  UNL     1      -8.598  18.042  20.814  1.00  0.00    -0.646 OA
ENDBRANCH  15  17
ENDBRANCH  12  15
ENDBRANCH   8  11
ENDBRANCH   1   2
BRANCH   1  20
HETATM   20  C11 UNL     1      -8.786  14.644  31.674  1.00  0.00     0.039 C 
BRANCH  20  21
HETATM   21  C12 UNL     1      -9.393  15.393  32.785  1.00  0.00    -0.012 C 
HETATM   22  C13 UNL     1      -8.308  16.327  33.409  1.00  0.00     0.005 C 
HETATM   23  C14 UNL     1      -8.989  17.370  34.272  1.00  0.00     0.000 C 
HETATM   24  C15 UNL     1     -10.162  16.665  34.993  1.00  0.00     0.000 C 
HETATM   25  C16 UNL     1      -9.737  15.229  35.260  1.00  0.00     0.000 C 
HETATM   26  C17 UNL     1      -9.783  14.486  33.928  1.00  0.00     0.005 C 
ENDBRANCH  20  21
ENDBRANCH   1  20
BRANCH   1  27
HETATM   27  N3  UNL     1     -10.631  15.281  30.368  1.00  0.00    -0.346 N 
HETATM   28  C18 UNL     1     -11.678  14.378  30.463  1.00  0.00     0.242 C 
HETATM   29  O3  UNL     1     -11.369  13.119  30.464  1.00  0.00    -0.271 OA
ATOM     30  H3  UNL     1     -10.801  16.287  30.350  1.00  0.00     0.163 HD
BRANCH  28  31
HETATM   31  C19 UNL     1     -13.126  14.619  30.563  1.00  0.00     0.186 C 
BRANCH  31  32
HETATM   32  N4  UNL     1     -13.702  13.960  31.714  1.00  0.00    -0.323 N 
HETATM   33  C20 UNL     1     -13.603  14.414  33.039  1.00  0.00     0.362 C 
HETATM   34  O4  UNL     1     -12.987  15.465  33.368  1.00  0.00    -0.238 OA
ATOM     35  H4  UNL     1     -14.222  13.097  31.550  1.00  0.00     0.165 HD
BRANCH  33  36
HETATM   36  O5  UNL     1     -14.195  13.695  34.044  1.00  0.00    -0.294 OA
BRANCH  36  37
HETATM   37  C21 UNL     1     -13.544  12.930  35.007  1.00  0.00     0.061 C 
HETATM   38  C22 UNL     1     -12.530  11.975  34.385  1.00  0.00     0.046 C 
HETATM   39  C23 UNL     1     -14.636  12.060  35.640  1.00  0.00     0.046 C 
HETATM   40  C24 UNL     1     -12.912  13.722  36.113  1.00  0.00     0.046 C 
ENDBRANCH  36  37
ENDBRANCH  33  36
ENDBRANCH  31  32
BRANCH  31  41
HETATM   41  C25 UNL     1     -13.845  14.457  29.279  1.00  0.00    -0.022 C 
HETATM   42  C26 UNL     1     -13.496  15.453  28.216  1.00  0.00     0.017 C 
HETATM   43  C27 UNL     1     -15.324  14.405  29.573  1.00  0.00     0.017 C 
HETATM   44  C28 UNL     1     -13.522  13.084  28.650  1.00  0.00     0.017 C 
ENDBRANCH  31  41
ENDBRANCH  28  31
ENDBRANCH   1  27
TORSDOF 12
ENDMDL
MODEL 5
REMARK VINA RESULT: -8.927927413      2.725      8.710
REMARK  12 active torsions:
REMARK  status: ('A' for Active; 'I' for Inactive)
REMARK    1  A    between atoms: C2_2  and  N1_3 
REMARK    2  A    between atoms: C2_2  and  C30_42 
REMARK       I    between atoms: N1_3  and  C3_5 
REMARK    3  A    between atoms: C3_5  and  C4_7 
REMARK       I    between atoms: N2_12  and  C9_13 
REMARK    4  A    between atoms: C9_13  and  C10_15 
REMARK    5  A    between atoms: C10_15  and  C11_16 
REMARK    6  A    between atoms: C10_15  and  N3_23 
REMARK    7  A    between atoms: C11_16  and  C12_17 
REMARK       I    between atoms: N3_23  and  C18_25 
REMARK    8  A    between atoms: C18_25  and  C19_27 
REMARK    9  A    between atoms: C19_27  and  N4_28 
REMARK   10  A    between atoms: C19_27  and  C25_37 
REMARK       I    between atoms: N4_28  and  C20_30 
REMARK   11  A    between atoms: C20_30  and  O5_32 
REMARK   12  A    between atoms: O5_32  and  C21_33 
ROOT
HETATM    1  C10 UNL     1      -8.257  16.391  29.441  1.00  0.00     0.177 C 
ENDROOT
BRANCH   1   2
HETATM    2  C9  UNL     1      -8.634  15.474  30.515  1.00  0.00     0.242 C 
HETATM    3  N2  UNL     1      -8.843  15.863  31.891  1.00  0.00    -0.349 N 
HETATM    4  C8  UNL     1      -8.626  17.214  32.295  1.00  0.00     0.126 C 
HETATM    5  C29 UNL     1      -9.324  14.817  32.787  1.00  0.00     0.144 C 
HETATM    6  C7  UNL     1      -8.783  17.551  33.728  1.00  0.00     0.021 C 
HETATM    7  C6  UNL     1      -9.139  16.446  34.656  1.00  0.00     0.022 C 
HETATM    8  C4  UNL     1     -10.068  15.442  33.960  1.00  0.00     0.053 C 
HETATM    9  C5  UNL     1     -11.265  16.250  33.517  1.00  0.00     0.027 C 
HETATM   10  O2  UNL     1      -8.805  14.259  30.221  1.00  0.00    -0.271 OA
BRANCH   8  11
HETATM   11  C3  UNL     1     -10.489  14.453  34.964  1.00  0.00     0.228 C 
HETATM   12  N1  UNL     1     -11.297  13.306  34.662  1.00  0.00    -0.346 N 
ATOM     13  H1  UNL     1     -11.608  13.157  33.702  1.00  0.00     0.163 HD
HETATM   14  O1  UNL     1     -10.121  14.617  36.166  1.00  0.00    -0.273 OA
BRANCH  12  15
HETATM   15  C2  UNL     1     -11.679  12.364  35.672  1.00  0.00     0.181 C 
HETATM   16  C1  UNL     1     -12.555  12.925  36.755  1.00  0.00     0.043 C 
BRANCH  15  17
HETATM   17  C30 UNL     1     -12.445  11.237  35.032  1.00  0.00     0.196 C 
HETATM   18  O6  UNL     1     -13.192  11.425  34.051  1.00  0.00    -0.646 OA
HETATM   19  O7  UNL     1     -12.301   9.972  35.560  1.00  0.00    -0.646 OA
ENDBRANCH  15  17
ENDBRANCH  12  15
ENDBRANCH   8  11
ENDBRANCH   1   2
BRANCH   1  20
HETATM   20  C11 UNL     1      -6.860  16.560  29.080  1.00  0.00     0.039 C 
BRANCH  20  21
HETATM   21  C12 UNL     1      -6.390  17.007  27.760  1.00  0.00    -0.012 C 
HETATM   22  C13 UNL     1      -4.835  16.876  27.713  1.00  0.00     0.005 C 
HETATM   23  C14 UNL     1      -4.375  16.951  26.270  1.00  0.00     0.000 C 
HETATM   24  C15 UNL     1      -5.261  18.007  25.567  1.00  0.00     0.000 C 
HETATM   25  C16 UNL     1      -5.598  19.077  26.595  1.00  0.00     0.000 C 
HETATM   26  C17 UNL     1      -6.632  18.483  27.547  1.00  0.00     0.005 C 
ENDBRANCH  20  21
ENDBRANCH   1  20
BRANCH   1  27
HETATM   27  N3  UNL     1      -8.924  15.892  28.180  1.00  0.00    -0.346 N 
HETATM   28  C18 UNL     1      -9.754  16.772  27.502  1.00  0.00     0.242 C 
HETATM   29  O3  UNL     1      -9.904  17.952  28.016  1.00  0.00    -0.271 OA
ATOM     30  H3  UNL     1      -8.769  14.944  27.840  1.00  0.00     0.163 HD
BRANCH  28  31
HETATM   31  C19 UNL     1     -10.519  16.579  26.260  1.00  0.00     0.186 C 
BRANCH  31  32
HETATM   32  N4  UNL     1     -11.611  15.649  26.441  1.00  0.00    -0.323 N 
HETATM   33  C20 UNL     1     -12.349  15.490  27.625  1.00  0.00     0.362 C 
HETATM   34  O4  UNL     1     -12.130  16.156  28.674  1.00  0.00    -0.238 OA
ATOM     35  H4  UNL     1     -11.865  15.063  25.646  1.00  0.00     0.165 HD
BRANCH  33  36
HETATM   36  O5  UNL     1     -13.364  14.571  27.668  1.00  0.00    -0.294 OA
BRANCH  36  37
HETATM   37  C21 UNL     1     -13.283  13.274  28.166  1.00  0.00     0.061 C 
HETATM   38  C22 UNL     1     -13.786  12.245  27.159  1.00  0.00     0.046 C 
HETATM   39  C23 UNL     1     -14.251  13.235  29.355  1.00  0.00     0.046 C 
HETATM   40  C24 UNL     1     -11.930  12.885  28.685  1.00  0.00     0.046 C 
ENDBRANCH  36  37
ENDBRANCH  33  36
ENDBRANCH  31  32
BRANCH  31  41
HETATM   41  C25 UNL     1      -9.669  16.378  25.065  1.00  0.00    -0.022 C 
HETATM   42  C26 UNL     1      -8.772  15.179  25.108  1.00  0.00     0.017 C 
HETATM   43  C27 UNL     1      -8.921  17.662  24.799  1.00  0.00     0.017 C 
HETATM   44  C28 UNL     1     -10.544  16.167  23.810  1.00  0.00     0.017 C 
ENDBRANCH  31  41
ENDBRANCH  28  31
ENDBRANCH   1  27
TORSDOF 12
ENDMDL
