MODEL 1
REMARK VINA RESULT: -6.255867914      0.000      0.000
REMARK  5 active torsions:
REMARK  status: ('A' for Active; 'I' for Inactive)
REMARK       I    between atoms: N1_2  and  C2_4 
REMARK    1  A    between atoms: C2_4  and  C3_6 
REMARK    2  A    between atoms: C3_6  and  N2_7 
REMARK    3  A    between atoms: C4_13  and  N4_14 
REMARK    4  A    between atoms: N7_19  and  N8_20 
REMARK    5  A    between atoms: N8_20  and  O2_24 
ROOT
HETATM    1  C3  UNL     1      29.087  65.275  11.038  1.00  0.00     0.405 A 
HETATM    2  N3  UNL     1      30.295  65.119  10.306  1.00  0.00    -0.162 N 
ATOM      3  H3  UNL     1      31.056  64.441  10.332  1.00  0.00     0.182 HD
HETATM    4  C4  UNL     1      30.054  66.162   9.602  1.00  0.00     0.708 A 
HETATM    5  N7  UNL     1      28.825  66.433  10.250  1.00  0.00    -0.015 N 
ENDROOT
BRANCH   1   6
HETATM    6  C2  UNL     1      28.111  64.178  10.856  1.00  0.00     0.299 C 
HETATM    7  N1  UNL     1      26.739  64.401  11.100  1.00  0.00    -0.360 N 
HETATM    8  C1  UNL     1      25.752  63.354  10.933  1.00  0.00     0.149 C 
ATOM      9  H1  UNL     1      26.433  65.327  11.401  1.00  0.00     0.162 HD
HETATM   10  O1  UNL     1      28.534  63.069  10.487  1.00  0.00    -0.266 OA
ENDBRANCH   1   6
BRANCH   1  11
HETATM   11  N2  UNL     1      29.370  65.515  12.437  1.00  0.00    -0.021 N 
ATOM     12  H23 UNL     1      28.519  65.490  12.998  1.00  0.00     0.280 HD
ATOM     13  H22 UNL     1      29.861  64.726  12.859  1.00  0.00     0.280 HD
ATOM     14  H21 UNL     1      29.881  66.386  12.576  1.00  0.00     0.280 HD
ENDBRANCH   1  11
BRANCH   5  15
HETATM   15  N8  UNL     1      27.843  67.408  10.130  1.00  0.00    -0.080 N 
HETATM   16  N9  UNL     1      27.995  68.514  10.701  1.00  0.00    -0.303 N 
ATOM     17  H92 UNL     1      28.838  68.690  11.248  1.00  0.00     0.181 HD
ATOM     18  H91 UNL     1      27.274  69.230  10.613  1.00  0.00     0.181 HD
BRANCH  15  19
HETATM   19  O2  UNL     1      26.715  67.172   9.397  1.00  0.00    -0.253 OA
ATOM     20  H2  UNL     1      26.079  67.863   9.253  1.00  0.00     0.248 HD
ENDBRANCH  15  19
ENDBRANCH   5  15
BRANCH   4  21
HETATM   21  N4  UNL     1      30.768  66.819   8.540  1.00  0.00    -0.164 N 
HETATM   22  C5  UNL     1      30.589  66.467   7.313  1.00  0.00     0.215 C 
HETATM   23  N5  UNL     1      29.699  65.437   6.933  1.00  0.00    -0.066 NA
HETATM   24  N6  UNL     1      31.350  67.188   6.335  1.00  0.00    -0.066 NA
ATOM     25  H4  UNL     1      31.423  67.570   8.760  1.00  0.00     0.186 HD
ENDBRANCH   4  21
TORSDOF 5
ENDMDL
MODEL 2
REMARK VINA RESULT: -6.078508539      3.557      5.214
REMARK  5 active torsions:
REMARK  status: ('A' for Active; 'I' for Inactive)
REMARK       I    between atoms: N1_2  and  C2_4 
REMARK    1  A    between atoms: C2_4  and  C3_6 
REMARK    2  A    between atoms: C3_6  and  N2_7 
REMARK    3  A    between atoms: C4_13  and  N4_14 
REMARK    4  A    between atoms: N7_19  and  N8_20 
REMARK    5  A    between atoms: N8_20  and  O2_24 
ROOT
HETATM    1  C3  UNL     1      27.232  63.651  13.363  1.00  0.00     0.405 A 
HETATM    2  N3  UNL     1      25.941  63.120  13.102  1.00  0.00    -0.162 N 
ATOM      3  H3  UNL     1      25.226  62.679  13.680  1.00  0.00     0.182 HD
HETATM    4  C4  UNL     1      26.026  63.409  11.857  1.00  0.00     0.708 A 
HETATM    5  N7  UNL     1      27.319  63.971  11.977  1.00  0.00    -0.015 N 
ENDROOT
BRANCH   1   6
HETATM    6  C2  UNL     1      27.245  64.824  14.263  1.00  0.00     0.299 C 
HETATM    7  N1  UNL     1      27.630  64.679  15.613  1.00  0.00    -0.360 N 
HETATM    8  C1  UNL     1      27.657  65.804  16.527  1.00  0.00     0.149 C 
ATOM      9  H1  UNL     1      27.898  63.756  15.956  1.00  0.00     0.162 HD
HETATM   10  O1  UNL     1      26.911  65.927  13.797  1.00  0.00    -0.266 OA
ENDBRANCH   1   6
BRANCH   1  11
HETATM   11  N2  UNL     1      28.125  62.610  13.827  1.00  0.00    -0.021 N 
ATOM     12  H23 UNL     1      28.740  62.949  14.566  1.00  0.00     0.280 HD
ATOM     13  H22 UNL     1      27.622  61.896  14.353  1.00  0.00     0.280 HD
ATOM     14  H21 UNL     1      28.658  62.199  13.060  1.00  0.00     0.280 HD
ENDBRANCH   1  11
BRANCH   5  15
HETATM   15  N8  UNL     1      28.223  64.559  11.100  1.00  0.00    -0.080 N 
HETATM   16  N9  UNL     1      28.351  65.807  11.089  1.00  0.00    -0.303 N 
ATOM     17  H92 UNL     1      27.792  66.380  11.720  1.00  0.00     0.181 HD
ATOM     18  H91 UNL     1      29.014  66.239  10.445  1.00  0.00     0.181 HD
BRANCH  15  19
HETATM   19  O2  UNL     1      28.970  63.792  10.254  1.00  0.00    -0.253 OA
ATOM     20  H2  UNL     1      28.741  63.722   9.334  1.00  0.00     0.248 HD
ENDBRANCH  15  19
ENDBRANCH   5  15
BRANCH   4  21
HETATM   21  N4  UNL     1      25.134  63.230  10.742  1.00  0.00    -0.164 N 
HETATM   22  C5  UNL     1      25.406  62.378   9.814  1.00  0.00     0.215 C 
HETATM   23  N5  UNL     1      26.572  61.578   9.826  1.00  0.00    -0.066 NA
HETATM   24  N6  UNL     1      24.450  62.280   8.751  1.00  0.00    -0.066 NA
ATOM     25  H4  UNL     1      24.278  63.783  10.685  1.00  0.00     0.186 HD
ENDBRANCH   4  21
TORSDOF 5
ENDMDL
MODEL 3
REMARK VINA RESULT: -6.040919754      2.187      4.705
REMARK  5 active torsions:
REMARK  status: ('A' for Active; 'I' for Inactive)
REMARK       I    between atoms: N1_2  and  C2_4 
REMARK    1  A    between atoms: C2_4  and  C3_6 
REMARK    2  A    between atoms: C3_6  and  N2_7 
REMARK    3  A    between atoms: C4_13  and  N4_14 
REMARK    4  A    between atoms: N7_19  and  N8_20 
REMARK    5  A    between atoms: N8_20  and  O2_24 
ROOT
HETATM    1  C3  UNL     1      28.712  65.490  11.241  1.00  0.00     0.405 A 
HETATM    2  N3  UNL     1      27.643  66.319  10.806  1.00  0.00    -0.162 N 
ATOM      3  H3  UNL     1      27.560  67.311  10.585  1.00  0.00     0.182 HD
HETATM    4  C4  UNL     1      26.824  65.333  10.800  1.00  0.00     0.708 A 
HETATM    5  N7  UNL     1      27.796  64.399  11.231  1.00  0.00    -0.015 N 
ENDROOT
BRANCH   1   6
HETATM    6  C2  UNL     1      29.825  65.363  10.277  1.00  0.00     0.299 C 
HETATM    7  N1  UNL     1      30.792  66.385  10.169  1.00  0.00    -0.360 N 
HETATM    8  C1  UNL     1      31.898  66.298   9.237  1.00  0.00     0.149 C 
ATOM      9  H1  UNL     1      30.710  67.210  10.765  1.00  0.00     0.162 HD
HETATM   10  O1  UNL     1      29.881  64.339   9.574  1.00  0.00    -0.266 OA
ENDBRANCH   1   6
BRANCH   1  11
HETATM   11  N2  UNL     1      29.179  65.910  12.547  1.00  0.00    -0.021 N 
ATOM     12  H23 UNL     1      30.197  65.947  12.583  1.00  0.00     0.280 HD
ATOM     13  H22 UNL     1      28.977  66.895  12.715  1.00  0.00     0.280 HD
ATOM     14  H21 UNL     1      28.802  65.321  13.290  1.00  0.00     0.280 HD
ENDBRANCH   1  11
BRANCH   5  15
HETATM   15  N8  UNL     1      27.799  63.037  11.506  1.00  0.00    -0.080 N 
HETATM   16  N9  UNL     1      27.935  62.644  12.689  1.00  0.00    -0.303 N 
ATOM     17  H92 UNL     1      28.043  63.325  13.440  1.00  0.00     0.181 HD
ATOM     18  H91 UNL     1      27.937  61.644  12.890  1.00  0.00     0.181 HD
BRANCH  15  19
HETATM   19  O2  UNL     1      27.655  62.125  10.499  1.00  0.00    -0.253 OA
ATOM     20  H2  UNL     1      28.350  61.507  10.303  1.00  0.00     0.248 HD
ENDBRANCH  15  19
ENDBRANCH   5  15
BRANCH   4  21
HETATM   21  N4  UNL     1      25.428  65.216  10.473  1.00  0.00    -0.164 N 
HETATM   22  C5  UNL     1      25.056  64.945   9.270  1.00  0.00     0.215 C 
HETATM   23  N5  UNL     1      25.971  64.748   8.210  1.00  0.00    -0.066 NA
HETATM   24  N6  UNL     1      23.642  64.851   9.055  1.00  0.00    -0.066 NA
ATOM     25  H4  UNL     1      24.725  65.349  11.202  1.00  0.00     0.186 HD
ENDBRANCH   4  21
TORSDOF 5
ENDMDL
MODEL 4
REMARK VINA RESULT: -6.037478978      0.661      1.001
REMARK  5 active torsions:
REMARK  status: ('A' for Active; 'I' for Inactive)
REMARK       I    between atoms: N1_2  and  C2_4 
REMARK    1  A    between atoms: C2_4  and  C3_6 
REMARK    2  A    between atoms: C3_6  and  N2_7 
REMARK    3  A    between atoms: C4_13  and  N4_14 
REMARK    4  A    between atoms: N7_19  and  N8_20 
REMARK    5  A    between atoms: N8_20  and  O2_24 
ROOT
HETATM    1  C3  UNL     1      28.944  65.075  10.749  1.00  0.00     0.405 A 
HETATM    2  N3  UNL     1      29.892  64.774   9.735  1.00  0.00    -0.162 N 
ATOM      3  H3  UNL     1      30.562  64.019   9.593  1.00  0.00     0.182 HD
HETATM    4  C4  UNL     1      29.575  65.822   9.067  1.00  0.00     0.708 A 
HETATM    5  N7  UNL     1      28.597  66.237  10.002  1.00  0.00    -0.015 N 
ENDROOT
BRANCH   1   6
HETATM    6  C2  UNL     1      27.852  64.087  10.885  1.00  0.00     0.299 C 
HETATM    7  N1  UNL     1      26.587  64.488  11.363  1.00  0.00    -0.360 N 
HETATM    8  C1  UNL     1      25.491  63.551  11.510  1.00  0.00     0.149 C 
ATOM      9  H1  UNL     1      26.438  65.466  11.613  1.00  0.00     0.162 HD
HETATM   10  O1  UNL     1      28.083  62.908  10.566  1.00  0.00    -0.266 OA
ENDBRANCH   1   6
BRANCH   1  11
HETATM   11  N2  UNL     1      29.612  65.313  12.012  1.00  0.00    -0.021 N 
ATOM     12  H23 UNL     1      29.361  64.607  12.704  1.00  0.00     0.280 HD
ATOM     13  H22 UNL     1      30.612  65.122  11.946  1.00  0.00     0.280 HD
ATOM     14  H21 UNL     1      29.436  66.255  12.361  1.00  0.00     0.280 HD
ENDBRANCH   1  11
BRANCH   5  15
HETATM   15  N8  UNL     1      27.719  67.310  10.096  1.00  0.00    -0.080 N 
HETATM   16  N9  UNL     1      28.098  68.375  10.639  1.00  0.00    -0.303 N 
ATOM     17  H92 UNL     1      29.047  68.447  11.007  1.00  0.00     0.181 HD
ATOM     18  H91 UNL     1      27.454  69.163  10.708  1.00  0.00     0.181 HD
BRANCH  15  19
HETATM   19  O2  UNL     1      26.449  67.214   9.603  1.00  0.00    -0.253 OA
ATOM     20  H2  UNL     1      25.812  67.899   9.770  1.00  0.00     0.248 HD
ENDBRANCH  15  19
ENDBRANCH   5  15
BRANCH   4  21
HETATM   21  N4  UNL     1      30.042  66.375   7.824  1.00  0.00    -0.164 N 
HETATM   22  C5  UNL     1      31.263  66.769   7.699  1.00  0.00     0.215 C 
HETATM   23  N5  UNL     1      32.206  66.689   8.749  1.00  0.00    -0.066 NA
HETATM   24  N6  UNL     1      31.622  67.303   6.418  1.00  0.00    -0.066 NA
ATOM     25  H4  UNL     1      29.401  66.455   7.034  1.00  0.00     0.186 HD
ENDBRANCH   4  21
TORSDOF 5
ENDMDL
MODEL 5
REMARK VINA RESULT: -5.866300050      2.465      3.910
REMARK  5 active torsions:
REMARK  status: ('A' for Active; 'I' for Inactive)
REMARK       I    between atoms: N1_2  and  C2_4 
REMARK    1  A    between atoms: C2_4  and  C3_6 
REMARK    2  A    between atoms: C3_6  and  N2_7 
REMARK    3  A    between atoms: C4_13  and  N4_14 
REMARK    4  A    between atoms: N7_19  and  N8_20 
REMARK    5  A    between atoms: N8_20  and  O2_24 
ROOT
HETATM    1  C3  UNL     1      25.825  63.033  10.590  1.00  0.00     0.405 A 
HETATM    2  N3  UNL     1      26.983  63.352  11.349  1.00  0.00    -0.162 N 
ATOM      3  H3  UNL     1      27.506  62.871  12.080  1.00  0.00     0.182 HD
HETATM    4  C4  UNL     1      27.115  64.480  10.754  1.00  0.00     0.708 A 
HETATM    5  N7  UNL     1      25.978  64.288   9.933  1.00  0.00    -0.015 N 
ENDROOT
BRANCH   1   6
HETATM    6  C2  UNL     1      25.973  61.857   9.705  1.00  0.00     0.299 C 
HETATM    7  N1  UNL     1      27.041  60.954   9.897  1.00  0.00    -0.360 N 
HETATM    8  C1  UNL     1      27.219  59.790   9.052  1.00  0.00     0.149 C 
ATOM      9  H1  UNL     1      27.705  61.125  10.652  1.00  0.00     0.162 HD
HETATM   10  O1  UNL     1      25.137  61.693   8.801  1.00  0.00    -0.266 OA
ENDBRANCH   1   6
BRANCH   1  11
HETATM   11  N2  UNL     1      24.671  62.910  11.456  1.00  0.00    -0.021 N 
ATOM     12  H23 UNL     1      24.043  62.173  11.136  1.00  0.00     0.280 HD
ATOM     13  H22 UNL     1      24.925  62.519  12.363  1.00  0.00     0.280 HD
ATOM     14  H21 UNL     1      24.180  63.798  11.559  1.00  0.00     0.280 HD
ENDBRANCH   1  11
BRANCH   5  15
HETATM   15  N8  UNL     1      25.342  65.027   8.944  1.00  0.00    -0.080 N 
HETATM   16  N9  UNL     1      24.676  66.042   9.261  1.00  0.00    -0.303 N 
ATOM     17  H92 UNL     1      24.605  66.316  10.241  1.00  0.00     0.181 HD
ATOM     18  H91 UNL     1      24.209  66.585   8.535  1.00  0.00     0.181 HD
BRANCH  15  19
HETATM   19  O2  UNL     1      25.436  64.659   7.632  1.00  0.00    -0.253 OA
ATOM     20  H2  UNL     1      25.791  65.259   6.986  1.00  0.00     0.248 HD
ENDBRANCH  15  19
ENDBRANCH   5  15
BRANCH   4  21
HETATM   21  N4  UNL     1      28.068  65.551  10.875  1.00  0.00    -0.164 N 
HETATM   22  C5  UNL     1      29.249  65.437  10.374  1.00  0.00     0.215 C 
HETATM   23  N5  UNL     1      29.683  64.280   9.686  1.00  0.00    -0.066 NA
HETATM   24  N6  UNL     1      30.118  66.563  10.551  1.00  0.00    -0.066 NA
ATOM     25  H4  UNL     1      27.806  66.408  11.362  1.00  0.00     0.186 HD
ENDBRANCH   4  21
TORSDOF 5
ENDMDL
