MODEL 1
REMARK VINA RESULT: -7.466896049      0.000      0.000
REMARK  6 active torsions:
REMARK  status: ('A' for Active; 'I' for Inactive)
REMARK    1  A    between atoms: C1_4  and  O1_5 
REMARK    2  A    between atoms: C1_4  and  C2_7 
REMARK       I    between atoms: C2_7  and  N2_9 
REMARK    3  A    between atoms: N2_9  and  N3_10 
REMARK    4  A    between atoms: N3_10  and  C3_12 
REMARK    5  A    between atoms: C3_12  and  N4_14 
REMARK    6  A    between atoms: N4_14  and  C4_16 
ROOT
HETATM    1  C3  UNL     1      29.769  66.188  10.013  1.00  0.00     0.204 C 
HETATM    2  S1  UNL     1      29.483  67.117  11.247  1.00  0.00    -0.038 SA
ENDROOT
BRANCH   1   3
HETATM    3  N3  UNL     1      29.799  64.789   9.857  1.00  0.00    -0.205 N 
ATOM      4  H3  UNL     1      30.476  64.367   9.221  1.00  0.00     0.204 HD
BRANCH   3   5
HETATM    5  N2  UNL     1      28.948  64.006  10.536  1.00  0.00    -0.275 NA
HETATM    6  C2  UNL     1      28.084  63.210  11.205  1.00  0.00     0.385 C 
HETATM    7  O2  UNL     1      27.223  62.431  10.792  1.00  0.00    -0.245 OA
BRANCH   6   8
HETATM    8  C1  UNL     1      28.233  63.301  12.675  1.00  0.00     0.220 C 
HETATM    9  N1  UNL     1      27.267  62.875  13.506  1.00  0.00    -0.374 N 
ATOM     10  H12 UNL     1      27.370  62.937  14.520  1.00  0.00     0.158 HD
ATOM     11  H11 UNL     1      26.410  62.465  13.135  1.00  0.00     0.158 HD
BRANCH   8  12
HETATM   12  O1  UNL     1      29.343  63.833  13.157  1.00  0.00    -0.341 OA
ATOM     13  H1  UNL     1      30.189  63.466  12.930  1.00  0.00     0.219 HD
ENDBRANCH   8  12
ENDBRANCH   6   8
ENDBRANCH   3   5
ENDBRANCH   1   3
BRANCH   1  14
HETATM   14  N4  UNL     1      30.024  66.871   8.682  1.00  0.00    -0.301 N 
ATOM     15  H4  UNL     1      29.382  67.538   8.254  1.00  0.00     0.171 HD
BRANCH  14  16
HETATM   16  C4  UNL     1      31.149  66.511   8.152  1.00  0.00     0.218 A 
HETATM   17  N5  UNL     1      31.524  66.227   6.888  1.00  0.00    -0.254 N 
HETATM   18  N6  UNL     1      32.812  66.266   6.705  1.00  0.00    -0.225 N 
ATOM     19  H5  UNL     1      30.861  66.002   6.146  1.00  0.00     0.191 HD
HETATM   20  N7  UNL     1      33.323  66.588   7.847  1.00  0.00    -0.225 N 
ATOM     21  H6  UNL     1      33.314  66.082   5.837  1.00  0.00     0.210 HD
HETATM   22  N8  UNL     1      32.378  66.743   8.795  1.00  0.00    -0.254 N 
ATOM     23  H7  UNL     1      34.322  66.710   8.012  1.00  0.00     0.210 HD
ATOM     24  H8  UNL     1      32.523  66.980   9.777  1.00  0.00     0.191 HD
ENDBRANCH  14  16
ENDBRANCH   1  14
TORSDOF 6
ENDMDL
MODEL 2
REMARK VINA RESULT: -7.448402029      1.183      1.183
REMARK  6 active torsions:
REMARK  status: ('A' for Active; 'I' for Inactive)
REMARK    1  A    between atoms: C1_4  and  O1_5 
REMARK    2  A    between atoms: C1_4  and  C2_7 
REMARK       I    between atoms: C2_7  and  N2_9 
REMARK    3  A    between atoms: N2_9  and  N3_10 
REMARK    4  A    between atoms: N3_10  and  C3_12 
REMARK    5  A    between atoms: C3_12  and  N4_14 
REMARK    6  A    between atoms: N4_14  and  C4_16 
ROOT
HETATM    1  C3  UNL     1      29.672  66.022  10.079  1.00  0.00     0.204 C 
HETATM    2  S1  UNL     1      28.562  67.133  10.132  1.00  0.00    -0.038 SA
ENDROOT
BRANCH   1   3
HETATM    3  N3  UNL     1      29.617  64.624   9.925  1.00  0.00    -0.205 N 
ATOM      4  H3  UNL     1      30.215  64.169   9.236  1.00  0.00     0.204 HD
BRANCH   3   5
HETATM    5  N2  UNL     1      28.787  63.884  10.674  1.00  0.00    -0.275 NA
HETATM    6  C2  UNL     1      27.942  63.132  11.415  1.00  0.00     0.385 C 
HETATM    7  O2  UNL     1      27.045  62.358  11.076  1.00  0.00    -0.245 OA
BRANCH   6   8
HETATM    8  C1  UNL     1      28.170  63.271  12.871  1.00  0.00     0.220 C 
HETATM    9  N1  UNL     1      29.294  63.823  13.358  1.00  0.00    -0.374 N 
ATOM     10  H12 UNL     1      29.450  63.918  14.361  1.00  0.00     0.158 HD
ATOM     11  H11 UNL     1      30.013  64.172  12.724  1.00  0.00     0.158 HD
BRANCH   8  12
HETATM   12  O1  UNL     1      27.237  62.818  13.693  1.00  0.00    -0.341 OA
ATOM     13  H1  UNL     1      26.368  62.617  13.368  1.00  0.00     0.219 HD
ENDBRANCH   8  12
ENDBRANCH   6   8
ENDBRANCH   3   5
ENDBRANCH   1   3
BRANCH   1  14
HETATM   14  N4  UNL     1      31.114  66.487  10.155  1.00  0.00    -0.301 N 
ATOM     15  H4  UNL     1      31.570  66.784  11.018  1.00  0.00     0.171 HD
BRANCH  14  16
HETATM   16  C4  UNL     1      31.700  66.463   9.001  1.00  0.00     0.218 A 
HETATM   17  N5  UNL     1      31.395  66.996   7.801  1.00  0.00    -0.254 N 
HETATM   18  N6  UNL     1      32.408  67.063   6.987  1.00  0.00    -0.225 N 
ATOM     19  H5  UNL     1      30.459  67.316   7.554  1.00  0.00     0.191 HD
HETATM   20  N7  UNL     1      33.417  66.582   7.635  1.00  0.00    -0.225 N 
ATOM     21  H6  UNL     1      32.407  67.422   6.033  1.00  0.00     0.210 HD
HETATM   22  N8  UNL     1      33.071  66.176   8.873  1.00  0.00    -0.254 N 
ATOM     23  H7  UNL     1      34.362  66.516   7.257  1.00  0.00     0.210 HD
ATOM     24  H8  UNL     1      33.678  65.749   9.573  1.00  0.00     0.191 HD
ENDBRANCH  14  16
ENDBRANCH   1  14
TORSDOF 6
ENDMDL
MODEL 3
REMARK VINA RESULT: -7.322939072      1.293      1.697
REMARK  6 active torsions:
REMARK  status: ('A' for Active; 'I' for Inactive)
REMARK    1  A    between atoms: C1_4  and  O1_5 
REMARK    2  A    between atoms: C1_4  and  C2_7 
REMARK       I    between atoms: C2_7  and  N2_9 
REMARK    3  A    between atoms: N2_9  and  N3_10 
REMARK    4  A    between atoms: N3_10  and  C3_12 
REMARK    5  A    between atoms: C3_12  and  N4_14 
REMARK    6  A    between atoms: N4_14  and  C4_16 
ROOT
HETATM    1  C3  UNL     1      29.734  65.720  10.230  1.00  0.00     0.204 C 
HETATM    2  S1  UNL     1      28.916  66.940   9.669  1.00  0.00    -0.038 SA
ENDROOT
BRANCH   1   3
HETATM    3  N3  UNL     1      29.783  65.103  11.494  1.00  0.00    -0.205 N 
ATOM      4  H3  UNL     1      30.502  65.377  12.162  1.00  0.00     0.204 HD
BRANCH   3   5
HETATM    5  N2  UNL     1      28.892  64.158  11.829  1.00  0.00    -0.275 NA
HETATM    6  C2  UNL     1      27.998  63.197  12.153  1.00  0.00     0.385 C 
HETATM    7  O2  UNL     1      27.685  62.159  11.566  1.00  0.00    -0.245 OA
BRANCH   6   8
HETATM    8  C1  UNL     1      27.311  63.454  13.438  1.00  0.00     0.220 C 
HETATM    9  N1  UNL     1      27.965  63.966  14.494  1.00  0.00    -0.374 N 
ATOM     10  H12 UNL     1      27.491  64.143  15.380  1.00  0.00     0.158 HD
ATOM     11  H11 UNL     1      28.955  64.202  14.423  1.00  0.00     0.158 HD
BRANCH   8  12
HETATM   12  O1  UNL     1      26.028  63.148  13.531  1.00  0.00    -0.341 OA
ATOM     13  H1  UNL     1      25.584  63.188  14.370  1.00  0.00     0.219 HD
ENDBRANCH   8  12
ENDBRANCH   6   8
ENDBRANCH   3   5
ENDBRANCH   1   3
BRANCH   1  14
HETATM   14  N4  UNL     1      30.635  64.989   9.251  1.00  0.00    -0.301 N 
ATOM     15  H4  UNL     1      30.596  63.983   9.088  1.00  0.00     0.171 HD
BRANCH  14  16
HETATM   16  C4  UNL     1      31.457  65.786   8.648  1.00  0.00     0.218 A 
HETATM   17  N5  UNL     1      32.666  66.283   8.975  1.00  0.00    -0.254 N 
HETATM   18  N6  UNL     1      33.331  66.749   7.958  1.00  0.00    -0.225 N 
ATOM     19  H5  UNL     1      33.027  66.294   9.929  1.00  0.00     0.191 HD
HETATM   20  N7  UNL     1      32.577  66.562   6.925  1.00  0.00    -0.225 N 
ATOM     21  H6  UNL     1      34.258  67.174   7.973  1.00  0.00     0.210 HD
HETATM   22  N8  UNL     1      31.403  65.991   7.258  1.00  0.00    -0.254 N 
ATOM     23  H7  UNL     1      32.839  66.816   5.973  1.00  0.00     0.210 HD
ATOM     24  H8  UNL     1      30.633  65.755   6.631  1.00  0.00     0.191 HD
ENDBRANCH  14  16
ENDBRANCH   1  14
TORSDOF 6
ENDMDL
MODEL 4
REMARK VINA RESULT: -7.173956308      1.254      1.944
REMARK  6 active torsions:
REMARK  status: ('A' for Active; 'I' for Inactive)
REMARK    1  A    between atoms: C1_4  and  O1_5 
REMARK    2  A    between atoms: C1_4  and  C2_7 
REMARK       I    between atoms: C2_7  and  N2_9 
REMARK    3  A    between atoms: N2_9  and  N3_10 
REMARK    4  A    between atoms: N3_10  and  C3_12 
REMARK    5  A    between atoms: C3_12  and  N4_14 
REMARK    6  A    between atoms: N4_14  and  C4_16 
ROOT
HETATM    1  C3  UNL     1      29.804  65.678  10.299  1.00  0.00     0.204 C 
HETATM    2  S1  UNL     1      28.969  66.917   9.810  1.00  0.00    -0.038 SA
ENDROOT
BRANCH   1   3
HETATM    3  N3  UNL     1      29.902  65.022  11.540  1.00  0.00    -0.205 N 
ATOM      4  H3  UNL     1      30.698  65.212  12.149  1.00  0.00     0.204 HD
BRANCH   3   5
HETATM    5  N2  UNL     1      28.960  64.153  11.932  1.00  0.00    -0.275 NA
HETATM    6  C2  UNL     1      28.020  63.270  12.340  1.00  0.00     0.385 C 
HETATM    7  O2  UNL     1      28.046  62.425  13.236  1.00  0.00    -0.245 OA
BRANCH   6   8
HETATM    8  C1  UNL     1      26.758  63.371  11.573  1.00  0.00     0.220 C 
HETATM    9  N1  UNL     1      25.562  63.231  12.167  1.00  0.00    -0.374 N 
ATOM     10  H12 UNL     1      24.692  63.301  11.638  1.00  0.00     0.158 HD
ATOM     11  H11 UNL     1      25.501  63.063  13.172  1.00  0.00     0.158 HD
BRANCH   8  12
HETATM   12  O1  UNL     1      26.837  63.588  10.270  1.00  0.00    -0.341 OA
ATOM     13  H1  UNL     1      27.647  63.896   9.883  1.00  0.00     0.219 HD
ENDBRANCH   8  12
ENDBRANCH   6   8
ENDBRANCH   3   5
ENDBRANCH   1   3
BRANCH   1  14
HETATM   14  N4  UNL     1      30.658  64.972   9.262  1.00  0.00    -0.301 N 
ATOM     15  H4  UNL     1      30.600  63.974   9.063  1.00  0.00     0.171 HD
BRANCH  14  16
HETATM   16  C4  UNL     1      31.469  65.782   8.659  1.00  0.00     0.218 A 
HETATM   17  N5  UNL     1      32.684  66.274   8.975  1.00  0.00    -0.254 N 
HETATM   18  N6  UNL     1      33.331  66.759   7.955  1.00  0.00    -0.225 N 
ATOM     19  H5  UNL     1      33.060  66.268   9.923  1.00  0.00     0.191 HD
HETATM   20  N7  UNL     1      32.560  66.590   6.932  1.00  0.00    -0.225 N 
ATOM     21  H6  UNL     1      34.258  67.184   7.962  1.00  0.00     0.210 HD
HETATM   22  N8  UNL     1      31.392  66.011   7.275  1.00  0.00    -0.254 N 
ATOM     23  H7  UNL     1      32.805  66.862   5.980  1.00  0.00     0.210 HD
ATOM     24  H8  UNL     1      30.611  65.786   6.656  1.00  0.00     0.191 HD
ENDBRANCH  14  16
ENDBRANCH   1  14
TORSDOF 6
ENDMDL
MODEL 5
REMARK VINA RESULT: -7.154375388      1.411      1.850
REMARK  6 active torsions:
REMARK  status: ('A' for Active; 'I' for Inactive)
REMARK    1  A    between atoms: C1_4  and  O1_5 
REMARK    2  A    between atoms: C1_4  and  C2_7 
REMARK       I    between atoms: C2_7  and  N2_9 
REMARK    3  A    between atoms: N2_9  and  N3_10 
REMARK    4  A    between atoms: N3_10  and  C3_12 
REMARK    5  A    between atoms: C3_12  and  N4_14 
REMARK    6  A    between atoms: N4_14  and  C4_16 
ROOT
HETATM    1  C3  UNL     1      29.722  65.969  10.125  1.00  0.00     0.204 C 
HETATM    2  S1  UNL     1      28.575  67.043  10.159  1.00  0.00    -0.038 SA
ENDROOT
BRANCH   1   3
HETATM    3  N3  UNL     1      29.713  64.566  10.017  1.00  0.00    -0.205 N 
ATOM      4  H3  UNL     1      30.458  64.095   9.503  1.00  0.00     0.204 HD
BRANCH   3   5
HETATM    5  N2  UNL     1      28.737  63.841  10.582  1.00  0.00    -0.275 NA
HETATM    6  C2  UNL     1      27.764  63.104  11.163  1.00  0.00     0.385 C 
HETATM    7  O2  UNL     1      27.820  62.269  12.069  1.00  0.00    -0.245 OA
BRANCH   6   8
HETATM    8  C1  UNL     1      26.419  63.379  10.610  1.00  0.00     0.220 C 
HETATM    9  N1  UNL     1      25.313  62.845  11.154  1.00  0.00    -0.374 N 
ATOM     10  H12 UNL     1      24.386  63.035  10.772  1.00  0.00     0.158 HD
ATOM     11  H11 UNL     1      25.380  62.245  11.976  1.00  0.00     0.158 HD
BRANCH   8  12
HETATM   12  O1  UNL     1      26.332  64.157   9.544  1.00  0.00    -0.341 OA
ATOM     13  H1  UNL     1      26.820  64.970   9.502  1.00  0.00     0.219 HD
ENDBRANCH   8  12
ENDBRANCH   6   8
ENDBRANCH   3   5
ENDBRANCH   1   3
BRANCH   1  14
HETATM   14  N4  UNL     1      31.149  66.485  10.164  1.00  0.00    -0.301 N 
ATOM     15  H4  UNL     1      31.609  66.817  11.011  1.00  0.00     0.171 HD
BRANCH  14  16
HETATM   16  C4  UNL     1      31.714  66.456   8.999  1.00  0.00     0.218 A 
HETATM   17  N5  UNL     1      31.388  66.984   7.803  1.00  0.00    -0.254 N 
HETATM   18  N6  UNL     1      32.387  67.046   6.971  1.00  0.00    -0.225 N 
ATOM     19  H5  UNL     1      30.448  67.304   7.571  1.00  0.00     0.191 HD
HETATM   20  N7  UNL     1      33.406  66.566   7.603  1.00  0.00    -0.225 N 
ATOM     21  H6  UNL     1      32.369  67.402   6.015  1.00  0.00     0.210 HD
HETATM   22  N8  UNL     1      33.081  66.166   8.848  1.00  0.00    -0.254 N 
ATOM     23  H7  UNL     1      34.344  66.497   7.208  1.00  0.00     0.210 HD
ATOM     24  H8  UNL     1      33.700  65.741   9.539  1.00  0.00     0.191 HD
ENDBRANCH  14  16
ENDBRANCH   1  14
TORSDOF 6
ENDMDL
