MODEL 1
REMARK VINA RESULT: -6.797194912      0.000      0.000
REMARK  3 active torsions:
REMARK  status: ('A' for Active; 'I' for Inactive)
REMARK    1  A    between atoms: C2_2  and  N1_3 
REMARK    2  A    between atoms: N3_8  and  N4_9 
REMARK       I    between atoms: N4_9  and  C3_11 
REMARK    3  A    between atoms: C3_11  and  C4_13 
ROOT
HETATM    1  C1  UNL     1      27.485  62.777  10.837  1.00  0.00     0.093 C 
HETATM    2  C2  UNL     1      28.263  64.031  11.258  1.00  0.00     0.290 C 
HETATM    3  N2  UNL     1      29.338  64.189  10.396  1.00  0.00    -0.067 NA
HETATM    4  N3  UNL     1      29.123  65.103   9.405  1.00  0.00    -0.003 NA
HETATM    5  S1  UNL     1      27.762  66.030   9.885  1.00  0.00     0.334 S 
HETATM    6  O3  UNL     1      26.607  65.926   8.969  1.00  0.00    -0.185 OA
HETATM    7  O4  UNL     1      28.197  67.422  10.185  1.00  0.00    -0.185 OA
HETATM    8  N6  UNL     1      27.415  65.154  11.334  1.00  0.00    -0.256 N 
ATOM      9  H6  UNL     1      26.752  65.395  12.072  1.00  0.00     0.177 HD
ENDROOT
BRANCH   4  10
HETATM   10  N4  UNL     1      30.193  65.839   8.998  1.00  0.00    -0.251 N 
HETATM   11  C3  UNL     1      30.427  66.048   7.612  1.00  0.00     0.323 C 
HETATM   12  O1  UNL     1      29.646  65.545   6.738  1.00  0.00    -0.261 OA
ATOM     13  H4  UNL     1      30.827  66.241   9.688  1.00  0.00     0.187 HD
BRANCH  11  14
HETATM   14  C4  UNL     1      31.564  66.842   7.128  1.00  0.00     0.323 C 
HETATM   15  N5  UNL     1      32.750  66.945   7.887  1.00  0.00    -0.053 NA
HETATM   16  O2  UNL     1      31.452  67.426   6.012  1.00  0.00    -0.266 OA
ENDBRANCH  11  14
ENDBRANCH   4  10
BRANCH   2  17
HETATM   17  N1  UNL     1      28.726  63.735  12.635  1.00  0.00    -0.036 N 
ATOM     18  H13 UNL     1      28.709  62.744  12.876  1.00  0.00     0.279 HD
ATOM     19  H12 UNL     1      29.727  63.869  12.776  1.00  0.00     0.279 HD
ATOM     20  H11 UNL     1      28.140  64.319  13.232  1.00  0.00     0.279 HD
ENDBRANCH   2  17
TORSDOF 3
ENDMDL
MODEL 2
REMARK VINA RESULT: -6.468910169      2.363      5.467
REMARK  3 active torsions:
REMARK  status: ('A' for Active; 'I' for Inactive)
REMARK    1  A    between atoms: C2_2  and  N1_3 
REMARK    2  A    between atoms: N3_8  and  N4_9 
REMARK       I    between atoms: N4_9  and  C3_11 
REMARK    3  A    between atoms: C3_11  and  C4_13 
ROOT
HETATM    1  C1  UNL     1      31.798  66.552   8.741  1.00  0.00     0.093 C 
HETATM    2  C2  UNL     1      30.418  65.922   8.510  1.00  0.00     0.290 C 
HETATM    3  N2  UNL     1      30.259  64.876   9.407  1.00  0.00    -0.067 NA
HETATM    4  N3  UNL     1      29.521  65.200  10.510  1.00  0.00    -0.003 NA
HETATM    5  S1  UNL     1      28.698  66.657  10.134  1.00  0.00     0.334 S 
HETATM    6  O3  UNL     1      29.058  67.796  11.003  1.00  0.00    -0.185 OA
HETATM    7  O4  UNL     1      27.237  66.384  10.036  1.00  0.00    -0.185 OA
HETATM    8  N6  UNL     1      29.398  66.894   8.571  1.00  0.00    -0.256 N 
ATOM      9  H6  UNL     1      29.135  67.577   7.861  1.00  0.00     0.177 HD
ENDROOT
BRANCH   4  10
HETATM   10  N4  UNL     1      28.731  64.224  11.034  1.00  0.00    -0.251 N 
HETATM   11  C3  UNL     1      28.557  64.130  12.442  1.00  0.00     0.323 C 
HETATM   12  O1  UNL     1      29.140  64.950  13.225  1.00  0.00    -0.261 OA
ATOM     13  H4  UNL     1      28.264  63.559  10.418  1.00  0.00     0.187 HD
BRANCH  11  14
HETATM   14  C4  UNL     1      27.707  63.099  13.051  1.00  0.00     0.323 C 
HETATM   15  N5  UNL     1      26.304  63.248  13.092  1.00  0.00    -0.053 NA
HETATM   16  O2  UNL     1      28.268  62.073  13.534  1.00  0.00    -0.266 OA
ENDBRANCH  11  14
ENDBRANCH   4  10
BRANCH   2  17
HETATM   17  N1  UNL     1      30.466  65.423   7.115  1.00  0.00    -0.036 N 
ATOM     18  H13 UNL     1      29.983  66.019   6.443  1.00  0.00     0.279 HD
ATOM     19  H12 UNL     1      31.387  65.486   6.681  1.00  0.00     0.279 HD
ATOM     20  H11 UNL     1      30.097  64.474   7.171  1.00  0.00     0.279 HD
ENDBRANCH   2  17
TORSDOF 3
ENDMDL
MODEL 3
REMARK VINA RESULT: -6.325817024      1.431      1.453
REMARK  3 active torsions:
REMARK  status: ('A' for Active; 'I' for Inactive)
REMARK    1  A    between atoms: C2_2  and  N1_3 
REMARK    2  A    between atoms: N3_8  and  N4_9 
REMARK       I    between atoms: N4_9  and  C3_11 
REMARK    3  A    between atoms: C3_11  and  C4_13 
ROOT
HETATM    1  C1  UNL     1      27.618  63.463  11.865  1.00  0.00     0.093 C 
HETATM    2  C2  UNL     1      28.696  64.504  12.198  1.00  0.00     0.290 C 
HETATM    3  N2  UNL     1      29.526  64.642  11.095  1.00  0.00    -0.067 NA
HETATM    4  N3  UNL     1      29.238  65.727  10.318  1.00  0.00    -0.003 NA
HETATM    5  S1  UNL     1      28.240  66.752  11.265  1.00  0.00     0.334 S 
HETATM    6  O3  UNL     1      26.891  66.970  10.703  1.00  0.00    -0.185 OA
HETATM    7  O4  UNL     1      28.987  67.998  11.594  1.00  0.00    -0.185 OA
HETATM    8  N6  UNL     1      28.118  65.711  12.640  1.00  0.00    -0.256 N 
ATOM      9  H6  UNL     1      27.722  65.922  13.556  1.00  0.00     0.177 HD
ENDROOT
BRANCH   4  10
HETATM   10  N4  UNL     1      30.286  66.356   9.720  1.00  0.00    -0.251 N 
HETATM   11  C3  UNL     1      30.521  66.179   8.329  1.00  0.00     0.323 C 
HETATM   12  O1  UNL     1      29.760  65.429   7.632  1.00  0.00    -0.261 OA
ATOM     13  H4  UNL     1      30.904  66.953  10.269  1.00  0.00     0.187 HD
BRANCH  11  14
HETATM   14  C4  UNL     1      31.634  66.844   7.640  1.00  0.00     0.323 C 
HETATM   15  N5  UNL     1      31.460  67.400   6.354  1.00  0.00    -0.053 NA
HETATM   16  O2  UNL     1      32.750  66.908   8.232  1.00  0.00    -0.266 OA
ENDBRANCH  11  14
ENDBRANCH   4  10
BRANCH   2  17
HETATM   17  N1  UNL     1      29.431  63.922  13.346  1.00  0.00    -0.036 N 
ATOM     18  H13 UNL     1      29.335  64.450  14.213  1.00  0.00     0.279 HD
ATOM     19  H12 UNL     1      29.032  63.052  13.699  1.00  0.00     0.279 HD
ATOM     20  H11 UNL     1      30.392  63.835  13.017  1.00  0.00     0.279 HD
ENDBRANCH   2  17
TORSDOF 3
ENDMDL
MODEL 4
REMARK VINA RESULT: -6.211235096      4.174      5.308
REMARK  3 active torsions:
REMARK  status: ('A' for Active; 'I' for Inactive)
REMARK    1  A    between atoms: C2_2  and  N1_3 
REMARK    2  A    between atoms: N3_8  and  N4_9 
REMARK       I    between atoms: N4_9  and  C3_11 
REMARK    3  A    between atoms: C3_11  and  C4_13 
ROOT
HETATM    1  C1  UNL     1      28.606  65.524  13.807  1.00  0.00     0.093 C 
HETATM    2  C2  UNL     1      27.802  64.251  13.509  1.00  0.00     0.290 C 
HETATM    3  N2  UNL     1      26.651  64.611  12.824  1.00  0.00    -0.067 NA
HETATM    4  N3  UNL     1      26.733  64.435  11.472  1.00  0.00    -0.003 NA
HETATM    5  S1  UNL     1      28.079  63.408  11.196  1.00  0.00     0.334 S 
HETATM    6  O3  UNL     1      29.157  64.026  10.396  1.00  0.00    -0.185 OA
HETATM    7  O4  UNL     1      27.598  62.094  10.686  1.00  0.00    -0.185 OA
HETATM    8  N6  UNL     1      28.593  63.293  12.843  1.00  0.00    -0.256 N 
ATOM      9  H6  UNL     1      29.302  62.676  13.240  1.00  0.00     0.177 HD
ENDROOT
BRANCH   4  10
HETATM   10  N4  UNL     1      25.595  64.060  10.826  1.00  0.00    -0.251 N 
HETATM   11  C3  UNL     1      25.419  64.380   9.453  1.00  0.00     0.323 C 
HETATM   12  O1  UNL     1      26.317  65.023   8.815  1.00  0.00    -0.261 OA
ATOM     13  H4  UNL     1      24.868  63.551  11.328  1.00  0.00     0.187 HD
BRANCH  11  14
HETATM   14  C4  UNL     1      24.213  63.989   8.713  1.00  0.00     0.323 C 
HETATM   15  N5  UNL     1      24.113  62.715   8.113  1.00  0.00    -0.053 NA
HETATM   16  O2  UNL     1      23.264  64.822   8.634  1.00  0.00    -0.266 OA
ENDBRANCH  11  14
ENDBRANCH   4  10
BRANCH   2  17
HETATM   17  N1  UNL     1      27.473  63.698  14.845  1.00  0.00    -0.036 N 
ATOM     18  H13 UNL     1      28.198  63.097  15.236  1.00  0.00     0.279 HD
ATOM     19  H12 UNL     1      27.482  64.390  15.595  1.00  0.00     0.279 HD
ATOM     20  H11 UNL     1      26.574  63.236  14.716  1.00  0.00     0.279 HD
ENDBRANCH   2  17
TORSDOF 3
ENDMDL
MODEL 5
REMARK VINA RESULT: -6.198450899      4.737      5.924
REMARK  3 active torsions:
REMARK  status: ('A' for Active; 'I' for Inactive)
REMARK    1  A    between atoms: C2_2  and  N1_3 
REMARK    2  A    between atoms: N3_8  and  N4_9 
REMARK       I    between atoms: N4_9  and  C3_11 
REMARK    3  A    between atoms: C3_11  and  C4_13 
ROOT
HETATM    1  C1  UNL     1      26.883  66.236  14.991  1.00  0.00     0.093 C 
HETATM    2  C2  UNL     1      26.554  64.739  14.913  1.00  0.00     0.290 C 
HETATM    3  N2  UNL     1      25.841  64.508  13.747  1.00  0.00    -0.067 NA
HETATM    4  N3  UNL     1      26.599  64.020  12.721  1.00  0.00    -0.003 NA
HETATM    5  S1  UNL     1      28.061  63.458  13.422  1.00  0.00     0.334 S 
HETATM    6  O3  UNL     1      29.269  64.162  12.945  1.00  0.00    -0.185 OA
HETATM    7  O4  UNL     1      28.119  61.973  13.312  1.00  0.00    -0.185 OA
HETATM    8  N6  UNL     1      27.719  63.954  15.042  1.00  0.00    -0.256 N 
ATOM      9  H6  UNL     1      28.237  63.731  15.892  1.00  0.00     0.177 HD
ENDROOT
BRANCH   4  10
HETATM   10  N4  UNL     1      26.002  63.136  11.876  1.00  0.00    -0.251 N 
HETATM   11  C3  UNL     1      26.186  63.260  10.472  1.00  0.00     0.323 C 
HETATM   12  O1  UNL     1      26.904  64.198   9.991  1.00  0.00    -0.261 OA
ATOM     13  H4  UNL     1      25.421  62.385  12.249  1.00  0.00     0.187 HD
BRANCH  11  14
HETATM   14  C4  UNL     1      25.569  62.326   9.523  1.00  0.00     0.323 C 
HETATM   15  N5  UNL     1      24.393  62.675   8.824  1.00  0.00    -0.053 NA
HETATM   16  O2  UNL     1      26.122  61.202   9.346  1.00  0.00    -0.266 OA
ENDBRANCH  11  14
ENDBRANCH   4  10
BRANCH   2  17
HETATM   17  N1  UNL     1      25.716  64.481  16.109  1.00  0.00    -0.036 N 
ATOM     18  H13 UNL     1      26.027  63.689  16.672  1.00  0.00     0.279 HD
ATOM     19  H12 UNL     1      25.808  65.184  16.842  1.00  0.00     0.279 HD
ATOM     20  H11 UNL     1      24.770  64.384  15.741  1.00  0.00     0.279 HD
ENDBRANCH   2  17
TORSDOF 3
ENDMDL
