MODEL 1
REMARK VINA RESULT: -7.393415376      0.000      0.000
REMARK  5 active torsions:
REMARK  status: ('A' for Active; 'I' for Inactive)
REMARK    1  A    between atoms: N1_2  and  O1_3 
REMARK    2  A    between atoms: N1_2  and  N2_5 
REMARK       I    between atoms: N2_5  and  C2_7 
REMARK    3  A    between atoms: C2_7  and  C3_9 
REMARK       I    between atoms: C3_9  and  N3_11 
REMARK    4  A    between atoms: N3_11  and  C4_13 
REMARK    5  A    between atoms: C5_16  and  C6_17 
ROOT
HETATM    1  C3  UNL     1      28.510  64.286  11.400  1.00  0.00     0.329 C 
HETATM    2  O3  UNL     1      29.218  64.354  12.462  1.00  0.00    -0.261 OA
HETATM    3  N3  UNL     1      28.589  65.351  10.467  1.00  0.00    -0.150 N 
ATOM      4  H3  UNL     1      27.758  65.881  10.205  1.00  0.00     0.188 HD
ENDROOT
BRANCH   3   5
HETATM    5  C4  UNL     1      29.740  65.629   9.959  1.00  0.00     0.701 A 
HETATM    6  N4  UNL     1      29.980  66.277   8.810  1.00  0.00    -0.169 N 
HETATM    7  C5  UNL     1      31.327  66.365   8.631  1.00  0.00     0.201 A 
ATOM      8  H4  UNL     1      29.271  66.644   8.175  1.00  0.00     0.186 HD
HETATM    9  N6  UNL     1      31.925  65.770   9.674  1.00  0.00    -0.267 N 
HETATM   10  N7  UNL     1      30.961  65.335  10.458  1.00  0.00    -0.130 N 
ATOM     11  H6  UNL     1      32.928  65.673   9.828  1.00  0.00     0.189 HD
ATOM     12  H7  UNL     1      31.117  64.838  11.335  1.00  0.00     0.205 HD
BRANCH   7  13
HETATM   13  C6  UNL     1      32.027  66.985   7.521  1.00  0.00     0.300 C 
HETATM   14  N5  UNL     1      31.335  67.393   6.347  1.00  0.00    -0.054 NA
HETATM   15  O4  UNL     1      33.267  67.162   7.603  1.00  0.00    -0.268 OA
ENDBRANCH   7  13
ENDBRANCH   3   5
BRANCH   1  16
HETATM   16  C2  UNL     1      27.657  63.149  11.175  1.00  0.00     0.326 C 
HETATM   17  N2  UNL     1      26.649  63.187  10.196  1.00  0.00    -0.258 N 
ATOM     18  H2  UNL     1      26.508  64.024   9.631  1.00  0.00     0.186 HD
HETATM   19  O2  UNL     1      27.846  62.099  11.892  1.00  0.00    -0.261 OA
BRANCH  17  20
HETATM   20  N1  UNL     1      25.845  62.064  10.009  1.00  0.00    -0.109 NA
HETATM   21  C1  UNL     1      24.618  62.358   9.326  1.00  0.00     0.171 C 
BRANCH  20  22
HETATM   22  O1  UNL     1      26.516  61.031   9.497  1.00  0.00    -0.294 OA
ATOM     23  H1  UNL     1      27.087  60.595  10.118  1.00  0.00     0.239 HD
ENDBRANCH  20  22
ENDBRANCH  17  20
ENDBRANCH   1  16
TORSDOF 5
ENDMDL
MODEL 2
REMARK VINA RESULT: -7.104918980      1.314      1.324
REMARK  5 active torsions:
REMARK  status: ('A' for Active; 'I' for Inactive)
REMARK    1  A    between atoms: N1_2  and  O1_3 
REMARK    2  A    between atoms: N1_2  and  N2_5 
REMARK       I    between atoms: N2_5  and  C2_7 
REMARK    3  A    between atoms: C2_7  and  C3_9 
REMARK       I    between atoms: C3_9  and  N3_11 
REMARK    4  A    between atoms: N3_11  and  C4_13 
REMARK    5  A    between atoms: C5_16  and  C6_17 
ROOT
HETATM    1  C3  UNL     1      27.967  64.441  11.145  1.00  0.00     0.329 C 
HETATM    2  O3  UNL     1      28.689  63.755  11.947  1.00  0.00    -0.261 OA
HETATM    3  N3  UNL     1      28.420  65.728  10.761  1.00  0.00    -0.150 N 
ATOM      4  H3  UNL     1      27.856  66.558  10.944  1.00  0.00     0.188 HD
ENDROOT
BRANCH   3   5
HETATM    5  C4  UNL     1      29.564  65.821  10.176  1.00  0.00     0.701 A 
HETATM    6  N4  UNL     1      29.848  66.511   9.063  1.00  0.00    -0.169 N 
HETATM    7  C5  UNL     1      31.169  66.349   8.772  1.00  0.00     0.201 A 
ATOM      8  H4  UNL     1      29.185  67.066   8.522  1.00  0.00     0.186 HD
HETATM    9  N6  UNL     1      31.706  65.555   9.711  1.00  0.00    -0.267 N 
HETATM   10  N7  UNL     1      30.732  65.249  10.542  1.00  0.00    -0.130 N 
ATOM     11  H6  UNL     1      32.677  65.250   9.768  1.00  0.00     0.189 HD
ATOM     12  H7  UNL     1      30.846  64.653  11.363  1.00  0.00     0.205 HD
BRANCH   7  13
HETATM   13  C6  UNL     1      31.898  66.917   7.654  1.00  0.00     0.300 C 
HETATM   14  N5  UNL     1      31.230  67.323   6.466  1.00  0.00    -0.054 NA
HETATM   15  O4  UNL     1      33.143  67.051   7.743  1.00  0.00    -0.268 OA
ENDBRANCH   7  13
ENDBRANCH   3   5
BRANCH   1  16
HETATM   16  C2  UNL     1      26.725  63.902  10.656  1.00  0.00     0.326 C 
HETATM   17  N2  UNL     1      26.013  64.549   9.631  1.00  0.00    -0.258 N 
ATOM     18  H2  UNL     1      26.368  65.413   9.220  1.00  0.00     0.186 HD
HETATM   19  O2  UNL     1      26.289  62.813  11.181  1.00  0.00    -0.261 OA
BRANCH  17  20
HETATM   20  N1  UNL     1      24.815  63.995   9.186  1.00  0.00    -0.109 NA
HETATM   21  C1  UNL     1      23.959  64.949   8.540  1.00  0.00     0.171 C 
BRANCH  20  22
HETATM   22  O1  UNL     1      24.996  62.871   8.489  1.00  0.00    -0.294 OA
ATOM     23  H1  UNL     1      25.441  62.185   8.972  1.00  0.00     0.239 HD
ENDBRANCH  20  22
ENDBRANCH  17  20
ENDBRANCH   1  16
TORSDOF 5
ENDMDL
MODEL 3
REMARK VINA RESULT: -7.000630855      2.378      2.514
REMARK  5 active torsions:
REMARK  status: ('A' for Active; 'I' for Inactive)
REMARK    1  A    between atoms: N1_2  and  O1_3 
REMARK    2  A    between atoms: N1_2  and  N2_5 
REMARK       I    between atoms: N2_5  and  C2_7 
REMARK    3  A    between atoms: C2_7  and  C3_9 
REMARK       I    between atoms: C3_9  and  N3_11 
REMARK    4  A    between atoms: N3_11  and  C4_13 
REMARK    5  A    between atoms: C5_16  and  C6_17 
ROOT
HETATM    1  C3  UNL     1      27.249  64.732  10.194  1.00  0.00     0.329 C 
HETATM    2  O3  UNL     1      27.642  63.553  10.492  1.00  0.00    -0.261 OA
HETATM    3  N3  UNL     1      28.080  65.829  10.537  1.00  0.00    -0.150 N 
ATOM      4  H3  UNL     1      27.740  66.574  11.145  1.00  0.00     0.188 HD
ENDROOT
BRANCH   3   5
HETATM    5  C4  UNL     1      29.276  65.858  10.058  1.00  0.00     0.701 A 
HETATM    6  N4  UNL     1      29.704  66.552   8.995  1.00  0.00    -0.169 N 
HETATM    7  C5  UNL     1      31.032  66.308   8.818  1.00  0.00     0.201 A 
ATOM      8  H4  UNL     1      29.130  67.163   8.414  1.00  0.00     0.186 HD
HETATM    9  N6  UNL     1      31.430  65.459   9.778  1.00  0.00    -0.267 N 
HETATM   10  N7  UNL     1      30.367  65.200  10.511  1.00  0.00    -0.130 N 
ATOM     11  H6  UNL     1      32.370  65.088   9.913  1.00  0.00     0.189 HD
ATOM     12  H7  UNL     1      30.367  64.579  11.320  1.00  0.00     0.205 HD
BRANCH   7  13
HETATM   13  C6  UNL     1      31.895  66.852   7.786  1.00  0.00     0.300 C 
HETATM   14  N5  UNL     1      31.368  67.306   6.546  1.00  0.00    -0.054 NA
HETATM   15  O4  UNL     1      33.130  66.920   7.998  1.00  0.00    -0.268 OA
ENDBRANCH   7  13
ENDBRANCH   3   5
BRANCH   1  16
HETATM   16  C2  UNL     1      25.987  64.923   9.527  1.00  0.00     0.326 C 
HETATM   17  N2  UNL     1      24.781  64.894  10.247  1.00  0.00    -0.258 N 
ATOM     18  H2  UNL     1      24.783  64.737  11.256  1.00  0.00     0.186 HD
HETATM   19  O2  UNL     1      25.997  65.122   8.258  1.00  0.00    -0.261 OA
BRANCH  17  20
HETATM   20  N1  UNL     1      23.581  65.084   9.565  1.00  0.00    -0.109 NA
HETATM   21  C1  UNL     1      23.281  66.467   9.328  1.00  0.00     0.171 C 
BRANCH  20  22
HETATM   22  O1  UNL     1      23.480  64.314   8.479  1.00  0.00    -0.294 OA
ATOM     23  H1  UNL     1      23.461  64.799   7.663  1.00  0.00     0.239 HD
ENDBRANCH  20  22
ENDBRANCH  17  20
ENDBRANCH   1  16
TORSDOF 5
ENDMDL
MODEL 4
REMARK VINA RESULT: -6.815014890      1.509      1.509
REMARK  5 active torsions:
REMARK  status: ('A' for Active; 'I' for Inactive)
REMARK    1  A    between atoms: N1_2  and  O1_3 
REMARK    2  A    between atoms: N1_2  and  N2_5 
REMARK       I    between atoms: N2_5  and  C2_7 
REMARK    3  A    between atoms: C2_7  and  C3_9 
REMARK       I    between atoms: C3_9  and  N3_11 
REMARK    4  A    between atoms: N3_11  and  C4_13 
REMARK    5  A    between atoms: C5_16  and  C6_17 
ROOT
HETATM    1  C3  UNL     1      28.473  64.543  11.926  1.00  0.00     0.329 C 
HETATM    2  O3  UNL     1      29.349  64.350  12.837  1.00  0.00    -0.261 OA
HETATM    3  N3  UNL     1      28.627  65.658  11.065  1.00  0.00    -0.150 N 
ATOM      4  H3  UNL     1      27.904  66.374  11.000  1.00  0.00     0.188 HD
ENDROOT
BRANCH   3   5
HETATM    5  C4  UNL     1      29.706  65.741  10.366  1.00  0.00     0.701 A 
HETATM    6  N4  UNL     1      29.905  66.492   9.274  1.00  0.00    -0.169 N 
HETATM    7  C5  UNL     1      31.179  66.294   8.832  1.00  0.00     0.201 A 
ATOM      8  H4  UNL     1      29.217  67.109   8.843  1.00  0.00     0.186 HD
HETATM    9  N6  UNL     1      31.772  65.418   9.656  1.00  0.00    -0.267 N 
HETATM   10  N7  UNL     1      30.878  65.098  10.568  1.00  0.00    -0.130 N 
ATOM     11  H6  UNL     1      32.728  65.069   9.589  1.00  0.00     0.189 HD
ATOM     12  H7  UNL     1      31.048  64.444  11.332  1.00  0.00     0.205 HD
BRANCH   7  13
HETATM   13  C6  UNL     1      31.813  66.906   7.679  1.00  0.00     0.300 C 
HETATM   14  N5  UNL     1      31.051  67.339   6.560  1.00  0.00    -0.054 NA
HETATM   15  O4  UNL     1      33.060  67.052   7.676  1.00  0.00    -0.268 OA
ENDBRANCH   7  13
ENDBRANCH   3   5
BRANCH   1  16
HETATM   16  C2  UNL     1      27.361  63.638  11.796  1.00  0.00     0.326 C 
HETATM   17  N2  UNL     1      26.081  64.000  12.251  1.00  0.00    -0.258 N 
ATOM     18  H2  UNL     1      25.923  64.911  12.681  1.00  0.00     0.186 HD
HETATM   19  O2  UNL     1      27.572  62.494  11.250  1.00  0.00    -0.261 OA
BRANCH  17  20
HETATM   20  N1  UNL     1      25.031  63.095  12.105  1.00  0.00    -0.109 NA
HETATM   21  C1  UNL     1      23.952  63.333  13.021  1.00  0.00     0.171 C 
BRANCH  20  22
HETATM   22  O1  UNL     1      24.644  62.957  10.835  1.00  0.00    -0.294 OA
ATOM     23  H1  UNL     1      25.204  62.389  10.320  1.00  0.00     0.239 HD
ENDBRANCH  20  22
ENDBRANCH  17  20
ENDBRANCH   1  16
TORSDOF 5
ENDMDL
MODEL 5
REMARK VINA RESULT: -6.800293564      1.152      1.643
REMARK  5 active torsions:
REMARK  status: ('A' for Active; 'I' for Inactive)
REMARK    1  A    between atoms: N1_2  and  O1_3 
REMARK    2  A    between atoms: N1_2  and  N2_5 
REMARK       I    between atoms: N2_5  and  C2_7 
REMARK    3  A    between atoms: C2_7  and  C3_9 
REMARK       I    between atoms: C3_9  and  N3_11 
REMARK    4  A    between atoms: N3_11  and  C4_13 
REMARK    5  A    between atoms: C5_16  and  C6_17 
ROOT
HETATM    1  C3  UNL     1      28.509  64.609  10.879  1.00  0.00     0.329 C 
HETATM    2  O3  UNL     1      29.660  64.655  11.433  1.00  0.00    -0.261 OA
HETATM    3  N3  UNL     1      28.038  65.762  10.203  1.00  0.00    -0.150 N 
ATOM      4  H3  UNL     1      27.166  66.213  10.479  1.00  0.00     0.188 HD
ENDROOT
BRANCH   3   5
HETATM    5  C4  UNL     1      28.743  66.226   9.229  1.00  0.00     0.701 A 
HETATM    6  N4  UNL     1      30.078  66.206   9.118  1.00  0.00    -0.169 N 
HETATM    7  C5  UNL     1      30.429  66.798   7.942  1.00  0.00     0.201 A 
ATOM      8  H4  UNL     1      30.726  65.812   9.800  1.00  0.00     0.186 HD
HETATM    9  N6  UNL     1      29.305  67.186   7.321  1.00  0.00    -0.267 N 
HETATM   10  N7  UNL     1      28.306  66.836   8.104  1.00  0.00    -0.130 N 
ATOM     11  H6  UNL     1      29.238  67.659   6.420  1.00  0.00     0.189 HD
ATOM     12  H7  UNL     1      27.323  67.005   7.889  1.00  0.00     0.205 HD
BRANCH   7  13
HETATM   13  C6  UNL     1      31.770  66.993   7.423  1.00  0.00     0.300 C 
HETATM   14  N5  UNL     1      32.916  66.639   8.186  1.00  0.00    -0.054 NA
HETATM   15  O4  UNL     1      31.914  67.483   6.277  1.00  0.00    -0.268 OA
ENDBRANCH   7  13
ENDBRANCH   3   5
BRANCH   1  16
HETATM   16  C2  UNL     1      27.723  63.406  10.953  1.00  0.00     0.326 C 
HETATM   17  N2  UNL     1      26.749  63.120   9.980  1.00  0.00    -0.258 N 
ATOM     18  H2  UNL     1      26.586  63.765   9.206  1.00  0.00     0.186 HD
HETATM   19  O2  UNL     1      27.938  62.601  11.932  1.00  0.00    -0.261 OA
BRANCH  17  20
HETATM   20  N1  UNL     1      26.010  61.944  10.088  1.00  0.00    -0.109 NA
HETATM   21  C1  UNL     1      24.689  62.057   9.537  1.00  0.00     0.171 C 
BRANCH  20  22
HETATM   22  O1  UNL     1      26.683  60.873   9.664  1.00  0.00    -0.294 OA
ATOM     23  H1  UNL     1      26.257  60.402   8.958  1.00  0.00     0.239 HD
ENDBRANCH  20  22
ENDBRANCH  17  20
ENDBRANCH   1  16
TORSDOF 5
ENDMDL
