MODEL 1
REMARK VINA RESULT: -7.276237738      0.000      0.000
REMARK  6 active torsions:
REMARK  status: ('A' for Active; 'I' for Inactive)
REMARK    1  A    between atoms: N1_2  and  C2_4 
REMARK    2  A    between atoms: C4_10  and  N4_11 
REMARK    3  A    between atoms: N4_11  and  N5_13 
REMARK    4  A    between atoms: C5_18  and  N7_19 
REMARK    5  A    between atoms: N7_19  and  N8_21 
REMARK       I    between atoms: N8_21  and  C6_23 
REMARK    6  A    between atoms: N10_25  and  O1_27 
ROOT
HETATM    1  C2  UNL     1      29.007  65.412  13.440  1.00  0.00     0.148 C 
HETATM    2  N2  UNL     1      28.292  64.719  14.363  1.00  0.00    -0.335 N 
ATOM      3  H2  UNL     1      28.483  64.950  15.338  1.00  0.00     0.168 HD
HETATM    4  C3  UNL     1      27.357  63.760  14.158  1.00  0.00     0.199 C 
HETATM    5  N3  UNL     1      27.253  63.017  13.038  1.00  0.00    -0.186 N 
ATOM      6  H3  UNL     1      26.611  62.228  13.125  1.00  0.00     0.185 HD
HETATM    7  C4  UNL     1      27.832  63.113  11.831  1.00  0.00     0.699 C 
HETATM    8  N6  UNL     1      28.715  64.057  11.426  1.00  0.00    -0.170 N 
ATOM      9  H6  UNL     1      29.136  63.906  10.510  1.00  0.00     0.186 HD
HETATM   10  C5  UNL     1      29.114  65.179  12.080  1.00  0.00     0.179 C 
ENDROOT
BRANCH  10  11
HETATM   11  N7  UNL     1      29.639  66.129  11.423  1.00  0.00    -0.280 N 
ATOM     12  H7  UNL     1      29.986  66.919  11.968  1.00  0.00     0.189 HD
BRANCH  11  13
HETATM   13  N8  UNL     1      29.793  66.215  10.062  1.00  0.00    -0.270 N 
HETATM   14  C6  UNL     1      31.071  66.118   9.437  1.00  0.00     0.227 C 
HETATM   15  N9  UNL     1      31.326  66.777   8.181  1.00  0.00    -0.060 NA
HETATM   16  N10 UNL     1      32.036  65.452   9.950  1.00  0.00    -0.240 N 
ATOM     17  H10 UNL     1      31.896  64.971  10.839  1.00  0.00     0.197 HD
ATOM     18  H8  UNL     1      28.967  66.352   9.479  1.00  0.00     0.189 HD
BRANCH  16  19
HETATM   19  O1  UNL     1      33.250  65.376   9.326  1.00  0.00    -0.287 OA
ATOM     20  H1  UNL     1      33.943  64.827   9.671  1.00  0.00     0.244 HD
ENDBRANCH  16  19
ENDBRANCH  11  13
ENDBRANCH  10  11
BRANCH   1  21
HETATM   21  N1  UNL     1      29.692  66.429  13.842  1.00  0.00    -0.378 N 
HETATM   22  C1  UNL     1      29.733  66.686  15.269  1.00  0.00     0.148 C 
ATOM     23  H1  UNL     1      30.184  67.030  13.182  1.00  0.00     0.160 HD
ENDBRANCH   1  21
BRANCH   7  24
HETATM   24  N4  UNL     1      27.531  62.224  10.940  1.00  0.00    -0.138 N 
ATOM     25  H4  UNL     1      28.202  61.499  10.687  1.00  0.00     0.205 HD
BRANCH  24  26
HETATM   26  N5  UNL     1      26.273  62.272  10.331  1.00  0.00    -0.331 N 
ATOM     27  H52 UNL     1      25.963  63.134   9.884  1.00  0.00     0.177 HD
ATOM     28  H51 UNL     1      25.685  61.439  10.345  1.00  0.00     0.177 HD
ENDBRANCH  24  26
ENDBRANCH   7  24
TORSDOF 6
ENDMDL
MODEL 2
REMARK VINA RESULT: -6.890523522      2.628      5.944
REMARK  6 active torsions:
REMARK  status: ('A' for Active; 'I' for Inactive)
REMARK    1  A    between atoms: N1_2  and  C2_4 
REMARK    2  A    between atoms: C4_10  and  N4_11 
REMARK    3  A    between atoms: N4_11  and  N5_13 
REMARK    4  A    between atoms: C5_18  and  N7_19 
REMARK    5  A    between atoms: N7_19  and  N8_21 
REMARK       I    between atoms: N8_21  and  C6_23 
REMARK    6  A    between atoms: N10_25  and  O1_27 
ROOT
HETATM    1  C2  UNL     1      28.293  66.567   8.613  1.00  0.00     0.148 C 
HETATM    2  N2  UNL     1      28.580  66.569   7.285  1.00  0.00    -0.335 N 
ATOM      3  H2  UNL     1      27.799  66.358   6.662  1.00  0.00     0.168 HD
HETATM    4  C3  UNL     1      29.767  66.813   6.679  1.00  0.00     0.199 C 
HETATM    5  N3  UNL     1      30.970  66.691   7.273  1.00  0.00    -0.186 N 
ATOM      6  H3  UNL     1      31.757  66.742   6.625  1.00  0.00     0.185 HD
HETATM    7  C4  UNL     1      31.334  66.516   8.553  1.00  0.00     0.699 C 
HETATM    8  N6  UNL     1      30.513  66.423   9.626  1.00  0.00    -0.170 N 
ATOM      9  H6  UNL     1      30.962  66.177  10.508  1.00  0.00     0.186 HD
HETATM   10  C5  UNL     1      29.169  66.613   9.683  1.00  0.00     0.179 C 
ENDROOT
BRANCH  10  11
HETATM   11  N7  UNL     1      28.622  66.858  10.801  1.00  0.00    -0.280 N 
ATOM     12  H7  UNL     1      27.606  66.951  10.797  1.00  0.00     0.189 HD
BRANCH  11  13
HETATM   13  N8  UNL     1      29.241  67.012  12.015  1.00  0.00    -0.270 N 
HETATM   14  C6  UNL     1      29.356  65.941  12.949  1.00  0.00     0.227 C 
HETATM   15  N9  UNL     1      29.430  66.204  14.364  1.00  0.00    -0.060 NA
HETATM   16  N10 UNL     1      29.400  64.715  12.583  1.00  0.00    -0.240 N 
ATOM     17  H10 UNL     1      29.351  64.486  11.590  1.00  0.00     0.197 HD
ATOM     18  H8  UNL     1      29.632  67.923  12.258  1.00  0.00     0.189 HD
BRANCH  16  19
HETATM   19  O1  UNL     1      29.512  63.709  13.501  1.00  0.00    -0.287 OA
ATOM     20  H1  UNL     1      29.110  62.862  13.351  1.00  0.00     0.244 HD
ENDBRANCH  16  19
ENDBRANCH  11  13
ENDBRANCH  10  11
BRANCH   1  21
HETATM   21  N1  UNL     1      27.053  66.518   8.965  1.00  0.00    -0.378 N 
HETATM   22  C1  UNL     1      26.120  65.895   8.046  1.00  0.00     0.148 C 
ATOM     23  H1  UNL     1      26.741  66.903   9.856  1.00  0.00     0.160 HD
ENDBRANCH   1  21
BRANCH   7  24
HETATM   24  N4  UNL     1      32.598  66.425   8.819  1.00  0.00    -0.138 N 
ATOM     25  H4  UNL     1      32.912  66.160   9.752  1.00  0.00     0.205 HD
BRANCH  24  26
HETATM   26  N5  UNL     1      33.525  66.693   7.806  1.00  0.00    -0.331 N 
ATOM     27  H52 UNL     1      34.427  67.102   8.047  1.00  0.00     0.177 HD
ATOM     28  H51 UNL     1      33.281  66.472   6.841  1.00  0.00     0.177 HD
ENDBRANCH  24  26
ENDBRANCH   7  24
TORSDOF 6
ENDMDL
MODEL 3
REMARK VINA RESULT: -6.804588032      2.717      5.866
REMARK  6 active torsions:
REMARK  status: ('A' for Active; 'I' for Inactive)
REMARK    1  A    between atoms: N1_2  and  C2_4 
REMARK    2  A    between atoms: C4_10  and  N4_11 
REMARK    3  A    between atoms: N4_11  and  N5_13 
REMARK    4  A    between atoms: C5_18  and  N7_19 
REMARK    5  A    between atoms: N7_19  and  N8_21 
REMARK       I    between atoms: N8_21  and  C6_23 
REMARK    6  A    between atoms: N10_25  and  O1_27 
ROOT
HETATM    1  C2  UNL     1      28.518  65.650   9.683  1.00  0.00     0.148 C 
HETATM    2  N2  UNL     1      28.469  66.281   8.482  1.00  0.00    -0.335 N 
ATOM      3  H2  UNL     1      27.579  66.224   7.986  1.00  0.00     0.168 HD
HETATM    4  C3  UNL     1      29.448  66.977   7.855  1.00  0.00     0.199 C 
HETATM    5  N3  UNL     1      30.766  66.831   8.094  1.00  0.00    -0.186 N 
ATOM      6  H3  UNL     1      31.363  67.301   7.413  1.00  0.00     0.185 HD
HETATM    7  C4  UNL     1      31.446  66.185   9.056  1.00  0.00     0.699 C 
HETATM    8  N6  UNL     1      30.923  65.486  10.091  1.00  0.00    -0.170 N 
ATOM      9  H6  UNL     1      31.593  64.967  10.659  1.00  0.00     0.186 HD
HETATM   10  C5  UNL     1      29.623  65.384  10.473  1.00  0.00     0.179 C 
ENDROOT
BRANCH  10  11
HETATM   11  N7  UNL     1      29.349  65.013  11.655  1.00  0.00    -0.280 N 
ATOM     12  H7  UNL     1      29.090  64.034  11.773  1.00  0.00     0.189 HD
BRANCH  11  13
HETATM   13  N8  UNL     1      29.362  65.780  12.792  1.00  0.00    -0.270 N 
HETATM   14  C6  UNL     1      28.575  65.455  13.935  1.00  0.00     0.227 C 
HETATM   15  N9  UNL     1      28.117  66.487  14.831  1.00  0.00    -0.060 NA
HETATM   16  N10 UNL     1      28.242  64.252  14.218  1.00  0.00    -0.240 N 
ATOM     17  H10 UNL     1      28.545  63.491  13.609  1.00  0.00     0.197 HD
ATOM     18  H8  UNL     1      29.955  66.611  12.821  1.00  0.00     0.189 HD
BRANCH  16  19
HETATM   19  O1  UNL     1      27.487  63.970  15.322  1.00  0.00    -0.287 OA
ATOM     20  H1  UNL     1      27.369  63.076  15.619  1.00  0.00     0.244 HD
ENDBRANCH  16  19
ENDBRANCH  11  13
ENDBRANCH  10  11
BRANCH   1  21
HETATM   21  N1  UNL     1      27.409  65.226  10.192  1.00  0.00    -0.378 N 
HETATM   22  C1  UNL     1      26.193  65.470   9.441  1.00  0.00     0.148 C 
ATOM     23  H1  UNL     1      27.390  64.740  11.088  1.00  0.00     0.160 HD
ENDBRANCH   1  21
BRANCH   7  24
HETATM   24  N4  UNL     1      32.739  66.220   9.013  1.00  0.00    -0.138 N 
ATOM     25  H4  UNL     1      33.290  65.977   9.836  1.00  0.00     0.205 HD
BRANCH  24  26
HETATM   26  N5  UNL     1      33.369  66.595   7.822  1.00  0.00    -0.331 N 
ATOM     27  H52 UNL     1      32.898  66.433   6.932  1.00  0.00     0.177 HD
ATOM     28  H51 UNL     1      34.292  67.026   7.865  1.00  0.00     0.177 HD
ENDBRANCH  24  26
ENDBRANCH   7  24
TORSDOF 6
ENDMDL
MODEL 4
REMARK VINA RESULT: -6.801456345      2.659      5.941
REMARK  6 active torsions:
REMARK  status: ('A' for Active; 'I' for Inactive)
REMARK    1  A    between atoms: N1_2  and  C2_4 
REMARK    2  A    between atoms: C4_10  and  N4_11 
REMARK    3  A    between atoms: N4_11  and  N5_13 
REMARK    4  A    between atoms: C5_18  and  N7_19 
REMARK    5  A    between atoms: N7_19  and  N8_21 
REMARK       I    between atoms: N8_21  and  C6_23 
REMARK    6  A    between atoms: N10_25  and  O1_27 
ROOT
HETATM    1  C2  UNL     1      28.352  66.195   9.032  1.00  0.00     0.148 C 
HETATM    2  N2  UNL     1      28.569  66.635   7.765  1.00  0.00    -0.335 N 
ATOM      3  H2  UNL     1      27.767  66.590   7.136  1.00  0.00     0.168 HD
HETATM    4  C3  UNL     1      29.712  67.126   7.229  1.00  0.00     0.199 C 
HETATM    5  N3  UNL     1      30.949  66.888   7.709  1.00  0.00    -0.186 N 
ATOM      6  H3  UNL     1      31.698  67.187   7.084  1.00  0.00     0.185 HD
HETATM    7  C4  UNL     1      31.385  66.336   8.852  1.00  0.00     0.699 C 
HETATM    8  N6  UNL     1      30.625  65.860   9.867  1.00  0.00    -0.170 N 
ATOM      9  H6  UNL     1      31.129  65.371  10.607  1.00  0.00     0.186 HD
HETATM   10  C5  UNL     1      29.279  65.946  10.029  1.00  0.00     0.179 C 
ENDROOT
BRANCH  10  11
HETATM   11  N7  UNL     1      28.780  65.792  11.185  1.00  0.00    -0.280 N 
ATOM     12  H7  UNL     1      28.119  66.505  11.492  1.00  0.00     0.189 HD
BRANCH  11  13
HETATM   13  N8  UNL     1      29.028  64.773  12.070  1.00  0.00    -0.270 N 
HETATM   14  C6  UNL     1      28.353  63.520  11.992  1.00  0.00     0.227 C 
HETATM   15  N9  UNL     1      28.142  62.724  13.175  1.00  0.00    -0.060 NA
HETATM   16  N10 UNL     1      27.910  63.048  10.888  1.00  0.00    -0.240 N 
ATOM     17  H10 UNL     1      28.039  63.580  10.027  1.00  0.00     0.197 HD
ATOM     18  H8  UNL     1      29.719  64.917  12.807  1.00  0.00     0.189 HD
BRANCH  16  19
HETATM   19  O1  UNL     1      27.267  61.842  10.844  1.00  0.00    -0.287 OA
ATOM     20  H1  UNL     1      26.322  61.789  10.915  1.00  0.00     0.244 HD
ENDBRANCH  16  19
ENDBRANCH  11  13
ENDBRANCH  10  11
BRANCH   1  21
HETATM   21  N1  UNL     1      27.134  65.967   9.394  1.00  0.00    -0.378 N 
HETATM   22  C1  UNL     1      26.089  66.214   8.420  1.00  0.00     0.148 C 
ATOM     23  H1  UNL     1      26.916  65.625  10.330  1.00  0.00     0.160 HD
ENDBRANCH   1  21
BRANCH   7  24
HETATM   24  N4  UNL     1      32.663  66.236   9.029  1.00  0.00    -0.138 N 
ATOM     25  H4  UNL     1      33.037  65.860   9.900  1.00  0.00     0.205 HD
BRANCH  24  26
HETATM   26  N5  UNL     1      33.524  66.649   8.007  1.00  0.00    -0.331 N 
ATOM     27  H52 UNL     1      33.147  66.844   7.080  1.00  0.00     0.177 HD
ATOM     28  H51 UNL     1      34.519  66.750   8.208  1.00  0.00     0.177 HD
ENDBRANCH  24  26
ENDBRANCH   7  24
TORSDOF 6
ENDMDL
MODEL 5
REMARK VINA RESULT: -6.684789799      1.442      1.458
REMARK  6 active torsions:
REMARK  status: ('A' for Active; 'I' for Inactive)
REMARK    1  A    between atoms: N1_2  and  C2_4 
REMARK    2  A    between atoms: C4_10  and  N4_11 
REMARK    3  A    between atoms: N4_11  and  N5_13 
REMARK    4  A    between atoms: C5_18  and  N7_19 
REMARK    5  A    between atoms: N7_19  and  N8_21 
REMARK       I    between atoms: N8_21  and  C6_23 
REMARK    6  A    between atoms: N10_25  and  O1_27 
ROOT
HETATM    1  C2  UNL     1      29.007  66.424  12.203  1.00  0.00     0.148 C 
HETATM    2  N2  UNL     1      27.945  66.291  13.039  1.00  0.00    -0.335 N 
ATOM      3  H2  UNL     1      27.908  66.950  13.817  1.00  0.00     0.168 HD
HETATM    4  C3  UNL     1      26.928  65.398  12.975  1.00  0.00     0.199 C 
HETATM    5  N3  UNL     1      26.984  64.217  12.328  1.00  0.00    -0.186 N 
ATOM      6  H3  UNL     1      26.198  63.599  12.531  1.00  0.00     0.185 HD
HETATM    7  C4  UNL     1      27.874  63.697  11.469  1.00  0.00     0.699 C 
HETATM    8  N6  UNL     1      29.004  64.289  11.012  1.00  0.00    -0.170 N 
ATOM      9  H6  UNL     1      29.617  63.698  10.451  1.00  0.00     0.186 HD
HETATM   10  C5  UNL     1      29.427  65.565  11.202  1.00  0.00     0.179 C 
ENDROOT
BRANCH  10  11
HETATM   11  N7  UNL     1      30.290  66.059  10.412  1.00  0.00    -0.280 N 
ATOM     12  H7  UNL     1      31.150  66.402  10.840  1.00  0.00     0.189 HD
BRANCH  11  13
HETATM   13  N8  UNL     1      30.196  66.184   9.050  1.00  0.00    -0.270 N 
HETATM   14  C6  UNL     1      31.322  66.513   8.239  1.00  0.00     0.227 C 
HETATM   15  N9  UNL     1      31.149  67.213   6.991  1.00  0.00    -0.060 NA
HETATM   16  N10 UNL     1      32.519  66.209   8.574  1.00  0.00    -0.240 N 
ATOM     17  H10 UNL     1      32.684  65.714   9.450  1.00  0.00     0.197 HD
ATOM     18  H8  UNL     1      29.291  66.035   8.601  1.00  0.00     0.189 HD
BRANCH  16  19
HETATM   19  O1  UNL     1      33.579  66.537   7.775  1.00  0.00    -0.287 OA
ATOM     20  H1  UNL     1      34.457  66.242   7.982  1.00  0.00     0.244 HD
ENDBRANCH  16  19
ENDBRANCH  11  13
ENDBRANCH  10  11
BRANCH   1  21
HETATM   21  N1  UNL     1      29.746  67.475  12.323  1.00  0.00    -0.378 N 
HETATM   22  C1  UNL     1      29.691  68.190  13.583  1.00  0.00     0.148 C 
ATOM     23  H1  UNL     1      30.346  67.789  11.561  1.00  0.00     0.160 HD
ENDBRANCH   1  21
BRANCH   7  24
HETATM   24  N4  UNL     1      27.653  62.507  11.012  1.00  0.00    -0.138 N 
ATOM     25  H4  UNL     1      28.367  61.783  11.089  1.00  0.00     0.205 HD
BRANCH  24  26
HETATM   26  N5  UNL     1      26.421  62.228  10.412  1.00  0.00    -0.331 N 
ATOM     27  H52 UNL     1      25.897  62.981   9.966  1.00  0.00     0.177 HD
ATOM     28  H51 UNL     1      26.067  61.271  10.429  1.00  0.00     0.177 HD
ENDBRANCH  24  26
ENDBRANCH   7  24
TORSDOF 6
ENDMDL
