MODEL 1
REMARK VINA RESULT: -4.732252528      0.000      0.000
REMARK  1 active torsions:
REMARK  status: ('A' for Active; 'I' for Inactive)
REMARK    1  A    between atoms: C4_8  and  O3_9 
ROOT
HETATM    1  O1  UNL     1     114.588   9.174  46.622  1.00  0.00    -0.061 OA
HETATM    2  N1  UNL     1     114.071   9.113  47.842  1.00  0.00     0.054 N 
HETATM    3  C1  UNL     1     113.908   7.783  48.365  1.00  0.00     0.389 C 
HETATM    4  S1  UNL     1     115.691   7.363  48.579  1.00  0.00    -0.128 SA
HETATM    5  C2  UNL     1     116.314   9.100  48.540  1.00  0.00     0.147 C 
HETATM    6  C3  UNL     1     114.986   9.812  48.764  1.00  0.00     0.404 C 
HETATM    7  O2  UNL     1     114.940  11.081  48.262  1.00  0.00    -0.319 OA
HETATM    8  C4  UNL     1     113.612  11.325  47.854  1.00  0.00     0.294 C 
HETATM    9  C5  UNL     1     112.922   9.952  47.931  1.00  0.00     0.376 C 
ENDROOT
BRANCH   8  10
HETATM   10  O3  UNL     1     112.982  12.262  48.631  1.00  0.00    -0.369 OA
ATOM     11  H3  UNL     1     112.847  13.086  48.177  1.00  0.00     0.212 HD
ENDBRANCH   8  10
TORSDOF 1
ENDMDL
MODEL 2
REMARK VINA RESULT: -4.699961227      1.257      1.354
REMARK  1 active torsions:
REMARK  status: ('A' for Active; 'I' for Inactive)
REMARK    1  A    between atoms: C4_8  and  O3_9 
ROOT
HETATM    1  O1  UNL     1     113.768   8.765  47.470  1.00  0.00    -0.061 OA
HETATM    2  N1  UNL     1     114.402   9.528  48.350  1.00  0.00     0.054 N 
HETATM    3  C1  UNL     1     115.324   8.831  49.204  1.00  0.00     0.389 C 
HETATM    4  S1  UNL     1     116.594   8.410  47.934  1.00  0.00    -0.128 SA
HETATM    5  C2  UNL     1     116.058   9.664  46.690  1.00  0.00     0.147 C 
HETATM    6  C3  UNL     1     115.196  10.524  47.606  1.00  0.00     0.404 C 
HETATM    7  O2  UNL     1     114.210  11.213  46.961  1.00  0.00    -0.319 OA
HETATM    8  C4  UNL     1     113.121  11.321  47.851  1.00  0.00     0.294 C 
HETATM    9  C5  UNL     1     113.475  10.382  49.017  1.00  0.00     0.376 C 
ENDROOT
BRANCH   8  10
HETATM   10  O3  UNL     1     112.905  12.607  48.272  1.00  0.00    -0.369 OA
ATOM     11  H3  UNL     1     112.614  13.180  47.571  1.00  0.00     0.212 HD
ENDBRANCH   8  10
TORSDOF 1
ENDMDL
MODEL 3
REMARK VINA RESULT: -4.624052034      2.141      2.631
REMARK  1 active torsions:
REMARK  status: ('A' for Active; 'I' for Inactive)
REMARK    1  A    between atoms: C4_8  and  O3_9 
ROOT
HETATM    1  O1  UNL     1     114.286   6.781  47.306  1.00  0.00    -0.061 OA
HETATM    2  N1  UNL     1     114.348   7.426  48.463  1.00  0.00     0.054 N 
HETATM    3  C1  UNL     1     115.587   7.274  49.176  1.00  0.00     0.389 C 
HETATM    4  S1  UNL     1     116.670   8.235  48.033  1.00  0.00    -0.128 SA
HETATM    5  C2  UNL     1     115.308   9.148  47.185  1.00  0.00     0.147 C 
HETATM    6  C3  UNL     1     114.199   8.869  48.192  1.00  0.00     0.404 C 
HETATM    7  O2  UNL     1     112.941   8.905  47.664  1.00  0.00    -0.319 OA
HETATM    8  C4  UNL     1     112.158   7.973  48.376  1.00  0.00     0.294 C 
HETATM    9  C5  UNL     1     113.168   7.182  49.224  1.00  0.00     0.376 C 
ENDROOT
BRANCH   8  10
HETATM   10  O3  UNL     1     111.193   8.570  49.146  1.00  0.00    -0.369 OA
ATOM     11  H3  UNL     1     110.905   9.404  48.794  1.00  0.00     0.212 HD
ENDBRANCH   8  10
TORSDOF 1
ENDMDL
MODEL 4
REMARK VINA RESULT: -4.452710959      2.275      3.743
REMARK  1 active torsions:
REMARK  status: ('A' for Active; 'I' for Inactive)
REMARK    1  A    between atoms: C4_8  and  O3_9 
ROOT
HETATM    1  O1  UNL     1     114.954   8.497  46.687  1.00  0.00    -0.061 OA
HETATM    2  N1  UNL     1     114.967   8.490  48.013  1.00  0.00     0.054 N 
HETATM    3  C1  UNL     1     115.665   9.591  48.618  1.00  0.00     0.389 C 
HETATM    4  S1  UNL     1     114.488  10.935  48.159  1.00  0.00    -0.128 SA
HETATM    5  C2  UNL     1     113.050   9.832  47.807  1.00  0.00     0.147 C 
HETATM    6  C3  UNL     1     113.571   8.572  48.486  1.00  0.00     0.404 C 
HETATM    7  O2  UNL     1     113.059   7.412  47.982  1.00  0.00    -0.319 OA
HETATM    8  C4  UNL     1     114.058   6.423  48.098  1.00  0.00     0.294 C 
HETATM    9  C5  UNL     1     115.328   7.197  48.493  1.00  0.00     0.376 C 
ENDROOT
BRANCH   8  10
HETATM   10  O3  UNL     1     113.740   5.453  49.012  1.00  0.00    -0.369 OA
ATOM     11  H3  UNL     1     114.494   5.152  49.506  1.00  0.00     0.212 HD
ENDBRANCH   8  10
TORSDOF 1
ENDMDL
MODEL 5
REMARK VINA RESULT: -4.441581744      1.912      2.888
REMARK  1 active torsions:
REMARK  status: ('A' for Active; 'I' for Inactive)
REMARK    1  A    between atoms: C4_8  and  O3_9 
ROOT
HETATM    1  O1  UNL     1     112.943  10.091  47.180  1.00  0.00    -0.061 OA
HETATM    2  N1  UNL     1     113.996  10.185  47.981  1.00  0.00     0.054 N 
HETATM    3  C1  UNL     1     113.692  10.514  49.347  1.00  0.00     0.389 C 
HETATM    4  S1  UNL     1     112.869   8.935  49.823  1.00  0.00    -0.128 SA
HETATM    5  C2  UNL     1     113.556   7.923  48.440  1.00  0.00     0.147 C 
HETATM    6  C3  UNL     1     114.668   8.871  48.010  1.00  0.00     0.404 C 
HETATM    7  O2  UNL     1     115.040   8.741  46.704  1.00  0.00    -0.319 OA
HETATM    8  C4  UNL     1     115.438  10.016  46.249  1.00  0.00     0.294 C 
HETATM    9  C5  UNL     1     115.009  10.980  47.368  1.00  0.00     0.376 C 
ENDROOT
BRANCH   8  10
HETATM   10  O3  UNL     1     116.782  10.092  45.990  1.00  0.00    -0.369 OA
ATOM     11  H3  UNL     1     117.044   9.560  45.248  1.00  0.00     0.212 HD
ENDBRANCH   8  10
TORSDOF 1
ENDMDL
