MODEL 1
REMARK VINA RESULT: -8.294887713      0.000      0.000
REMARK  10 active torsions:
REMARK  status: ('A' for Active; 'I' for Inactive)
REMARK    1  A    between atoms: N1_1  and  C1_4 
REMARK    2  A    between atoms: N4_9  and  C2_10 
REMARK    3  A    between atoms: C2_10  and  C3_11 
REMARK    4  A    between atoms: C3_11  and  O1_12 
REMARK    5  A    between atoms: C3_11  and  C4_14 
REMARK    6  A    between atoms: N5_15  and  S1_17 
REMARK    7  A    between atoms: S1_17  and  N6_19 
REMARK    8  A    between atoms: S1_17  and  C5_23 
REMARK    9  A    between atoms: N6_19  and  O3_21 
REMARK   10  A    between atoms: C7_27  and  N8_28 
ROOT
HETATM    1  C4  UNL     1     -23.654  38.707  46.005  1.00  0.00     0.105 C 
HETATM    2  N5  UNL     1     -23.860  37.622  46.592  1.00  0.00    -0.307 N 
ATOM      3  H5  UNL     1     -23.575  37.554  47.569  1.00  0.00     0.176 HD
ENDROOT
BRANCH   2   4
HETATM    4  S1  UNL     1     -24.570  36.267  45.898  1.00  0.00     0.168 S 
HETATM    5  O2  UNL     1     -24.223  36.024  44.469  1.00  0.00    -0.221 OA
BRANCH   4   6
HETATM    6  N6  UNL     1     -24.196  34.940  46.685  1.00  0.00    -0.207 N 
ATOM      7  H6  UNL     1     -23.980  34.069  46.201  1.00  0.00     0.206 HD
BRANCH   6   8
HETATM    8  O3  UNL     1     -24.178  35.033  48.052  1.00  0.00    -0.281 OA
ATOM      9  H3  UNL     1     -24.281  34.218  48.528  1.00  0.00     0.245 HD
ENDBRANCH   6   8
ENDBRANCH   4   6
BRANCH   4  10
HETATM   10  C5  UNL     1     -26.334  36.379  45.975  1.00  0.00     0.144 A 
HETATM   11  C6  UNL     1     -27.138  35.953  44.944  1.00  0.00     0.135 A 
HETATM   12  N7  UNL     1     -28.490  36.038  45.002  1.00  0.00    -0.200 N 
HETATM   13  C7  UNL     1     -29.061  36.555  46.099  1.00  0.00     0.678 A 
ATOM     14  H7  UNL     1     -29.064  35.715  44.222  1.00  0.00     0.183 HD
HETATM   15  N9  UNL     1     -28.303  36.978  47.117  1.00  0.00    -0.155 N 
HETATM   16  C8  UNL     1     -26.954  36.907  47.094  1.00  0.00     0.282 A 
ATOM     17  H9  UNL     1     -28.760  37.368  47.941  1.00  0.00     0.187 HD
HETATM   18  O4  UNL     1     -26.238  37.300  48.039  1.00  0.00    -0.266 OA
BRANCH  13  19
HETATM   19  N8  UNL     1     -30.344  36.653  46.191  1.00  0.00    -0.234 N 
ATOM     20  H82 UNL     1     -30.776  37.576  46.137  1.00  0.00     0.174 HD
ATOM     21  H81 UNL     1     -30.923  35.822  46.315  1.00  0.00     0.174 HD
ENDBRANCH  13  19
ENDBRANCH   4  10
ENDBRANCH   2   4
BRANCH   1  22
HETATM   22  C3  UNL     1     -24.005  38.969  44.594  1.00  0.00     0.178 C 
BRANCH  22  23
HETATM   23  C2  UNL     1     -24.790  40.258  44.452  1.00  0.00     0.208 C 
BRANCH  23  24
HETATM   24  N4  UNL     1     -25.006  40.586  43.046  1.00  0.00    -0.202 N 
HETATM   25  N3  UNL     1     -25.514  41.703  42.539  1.00  0.00    -0.211 N 
HETATM   26  N2  UNL     1     -25.560  41.647  41.234  1.00  0.00    -0.115 N 
ATOM     27  H3  UNL     1     -25.826  42.499  43.094  1.00  0.00     0.210 HD
HETATM   28  C1  UNL     1     -25.072  40.467  40.864  1.00  0.00     0.707 A 
ATOM     29  H2  UNL     1     -25.909  42.376  40.612  1.00  0.00     0.207 HD
HETATM   30  N10 UNL     1     -24.737  39.829  41.995  1.00  0.00    -0.113 N 
ATOM     31  H10 UNL     1     -24.333  38.894  42.039  1.00  0.00     0.207 HD
BRANCH  28  32
HETATM   32  N1  UNL     1     -24.931  39.988  39.661  1.00  0.00    -0.232 N 
ATOM     33  H12 UNL     1     -25.554  40.177  38.876  1.00  0.00     0.174 HD
ATOM     34  H11 UNL     1     -24.205  39.367  39.305  1.00  0.00     0.174 HD
ENDBRANCH  28  32
ENDBRANCH  23  24
ENDBRANCH  22  23
BRANCH  22  35
HETATM   35  O1  UNL     1     -22.860  38.970  43.826  1.00  0.00    -0.389 OA
ATOM     36  H1  UNL     1     -22.072  38.994  44.357  1.00  0.00     0.210 HD
ENDBRANCH  22  35
ENDBRANCH   1  22
TORSDOF 10
ENDMDL
MODEL 2
REMARK VINA RESULT: -8.216537197      3.194      6.622
REMARK  10 active torsions:
REMARK  status: ('A' for Active; 'I' for Inactive)
REMARK    1  A    between atoms: N1_1  and  C1_4 
REMARK    2  A    between atoms: N4_9  and  C2_10 
REMARK    3  A    between atoms: C2_10  and  C3_11 
REMARK    4  A    between atoms: C3_11  and  O1_12 
REMARK    5  A    between atoms: C3_11  and  C4_14 
REMARK    6  A    between atoms: N5_15  and  S1_17 
REMARK    7  A    between atoms: S1_17  and  N6_19 
REMARK    8  A    between atoms: S1_17  and  C5_23 
REMARK    9  A    between atoms: N6_19  and  O3_21 
REMARK   10  A    between atoms: C7_27  and  N8_28 
ROOT
HETATM    1  C4  UNL     1     -23.683  37.000  47.194  1.00  0.00     0.105 C 
HETATM    2  N5  UNL     1     -24.490  37.862  46.783  1.00  0.00    -0.307 N 
ATOM      3  H5  UNL     1     -24.135  38.806  46.636  1.00  0.00     0.176 HD
ENDROOT
BRANCH   2   4
HETATM    4  S1  UNL     1     -26.114  37.587  46.452  1.00  0.00     0.168 S 
HETATM    5  O2  UNL     1     -26.871  36.873  47.520  1.00  0.00    -0.221 OA
BRANCH   4   6
HETATM    6  N6  UNL     1     -26.894  38.941  46.175  1.00  0.00    -0.207 N 
ATOM      7  H6  UNL     1     -27.848  39.091  46.503  1.00  0.00     0.206 HD
BRANCH   6   8
HETATM    8  O3  UNL     1     -26.212  39.898  45.471  1.00  0.00    -0.281 OA
ATOM      9  H3  UNL     1     -26.738  40.480  44.937  1.00  0.00     0.245 HD
ENDBRANCH   6   8
ENDBRANCH   4   6
BRANCH   4  10
HETATM   10  C5  UNL     1     -26.296  36.627  44.978  1.00  0.00     0.144 A 
HETATM   11  C6  UNL     1     -27.182  35.577  44.895  1.00  0.00     0.135 A 
HETATM   12  N7  UNL     1     -27.322  34.840  43.766  1.00  0.00    -0.200 N 
HETATM   13  C7  UNL     1     -26.574  35.144  42.696  1.00  0.00     0.678 A 
ATOM     14  H7  UNL     1     -27.987  34.067  43.731  1.00  0.00     0.183 HD
HETATM   15  N9  UNL     1     -25.704  36.160  42.748  1.00  0.00    -0.155 N 
HETATM   16  C8  UNL     1     -25.539  36.915  43.857  1.00  0.00     0.282 A 
ATOM     17  H9  UNL     1     -25.146  36.371  41.922  1.00  0.00     0.187 HD
HETATM   18  O4  UNL     1     -24.729  37.864  43.916  1.00  0.00    -0.266 OA
BRANCH  13  19
HETATM   19  N8  UNL     1     -26.679  34.466  41.603  1.00  0.00    -0.234 N 
ATOM     20  H82 UNL     1     -27.110  33.542  41.634  1.00  0.00     0.174 HD
ATOM     21  H81 UNL     1     -26.338  34.845  40.719  1.00  0.00     0.174 HD
ENDBRANCH  13  19
ENDBRANCH   4  10
ENDBRANCH   2   4
BRANCH   1  22
HETATM   22  C3  UNL     1     -24.035  35.589  47.459  1.00  0.00     0.178 C 
BRANCH  22  23
HETATM   23  C2  UNL     1     -22.839  34.678  47.269  1.00  0.00     0.208 C 
BRANCH  23  24
HETATM   24  N4  UNL     1     -21.854  34.882  48.326  1.00  0.00    -0.202 N 
HETATM   25  N3  UNL     1     -20.765  34.164  48.575  1.00  0.00    -0.211 N 
HETATM   26  N2  UNL     1     -20.115  34.638  49.605  1.00  0.00    -0.115 N 
ATOM     27  H3  UNL     1     -20.475  33.349  48.034  1.00  0.00     0.210 HD
HETATM   28  C1  UNL     1     -20.784  35.696  50.051  1.00  0.00     0.707 A 
ATOM     29  H2  UNL     1     -19.250  34.264  49.996  1.00  0.00     0.207 HD
HETATM   30  N10 UNL     1     -21.852  35.829  49.250  1.00  0.00    -0.113 N 
ATOM     31  H10 UNL     1     -22.561  36.556  49.340  1.00  0.00     0.207 HD
BRANCH  28  32
HETATM   32  N1  UNL     1     -20.498  36.473  51.057  1.00  0.00    -0.232 N 
ATOM     33  H12 UNL     1     -19.583  36.548  51.500  1.00  0.00     0.174 HD
ATOM     34  H11 UNL     1     -21.111  37.116  51.557  1.00  0.00     0.174 HD
ENDBRANCH  28  32
ENDBRANCH  23  24
ENDBRANCH  22  23
BRANCH  22  35
HETATM   35  O1  UNL     1     -24.579  35.478  48.721  1.00  0.00    -0.389 OA
ATOM     36  H1  UNL     1     -24.277  36.165  49.304  1.00  0.00     0.210 HD
ENDBRANCH  22  35
ENDBRANCH   1  22
TORSDOF 10
ENDMDL
MODEL 3
REMARK VINA RESULT: -7.838809934      3.411      5.707
REMARK  10 active torsions:
REMARK  status: ('A' for Active; 'I' for Inactive)
REMARK    1  A    between atoms: N1_1  and  C1_4 
REMARK    2  A    between atoms: N4_9  and  C2_10 
REMARK    3  A    between atoms: C2_10  and  C3_11 
REMARK    4  A    between atoms: C3_11  and  O1_12 
REMARK    5  A    between atoms: C3_11  and  C4_14 
REMARK    6  A    between atoms: N5_15  and  S1_17 
REMARK    7  A    between atoms: S1_17  and  N6_19 
REMARK    8  A    between atoms: S1_17  and  C5_23 
REMARK    9  A    between atoms: N6_19  and  O3_21 
REMARK   10  A    between atoms: C7_27  and  N8_28 
ROOT
HETATM    1  C4  UNL     1     -26.588  36.933  47.621  1.00  0.00     0.105 C 
HETATM    2  N5  UNL     1     -25.527  36.422  48.042  1.00  0.00    -0.307 N 
ATOM      3  H5  UNL     1     -25.476  36.197  49.035  1.00  0.00     0.176 HD
ENDROOT
BRANCH   2   4
HETATM    4  S1  UNL     1     -24.179  36.078  47.100  1.00  0.00     0.168 S 
HETATM    5  O2  UNL     1     -24.360  34.986  46.101  1.00  0.00    -0.221 OA
BRANCH   4   6
HETATM    6  N6  UNL     1     -23.687  37.352  46.292  1.00  0.00    -0.207 N 
ATOM      7  H6  UNL     1     -23.358  37.286  45.329  1.00  0.00     0.206 HD
BRANCH   6   8
HETATM    8  O3  UNL     1     -23.729  38.546  46.963  1.00  0.00    -0.281 OA
ATOM      9  H3  UNL     1     -24.538  39.039  46.889  1.00  0.00     0.245 HD
ENDBRANCH   6   8
ENDBRANCH   4   6
BRANCH   4  10
HETATM   10  C5  UNL     1     -22.812  35.607  48.118  1.00  0.00     0.144 A 
HETATM   11  C6  UNL     1     -21.943  34.604  47.755  1.00  0.00     0.135 A 
HETATM   12  N7  UNL     1     -20.894  34.241  48.534  1.00  0.00    -0.200 N 
HETATM   13  C7  UNL     1     -20.699  34.881  49.696  1.00  0.00     0.678 A 
ATOM     14  H7  UNL     1     -20.265  33.494  48.241  1.00  0.00     0.183 HD
HETATM   15  N9  UNL     1     -21.528  35.860  50.075  1.00  0.00    -0.155 N 
HETATM   16  C8  UNL     1     -22.583  36.247  49.323  1.00  0.00     0.282 A 
ATOM     17  H9  UNL     1     -21.359  36.331  50.963  1.00  0.00     0.187 HD
HETATM   18  O4  UNL     1     -23.363  37.159  49.668  1.00  0.00    -0.266 OA
BRANCH  13  19
HETATM   19  N8  UNL     1     -19.712  34.564  50.465  1.00  0.00    -0.234 N 
ATOM     20  H82 UNL     1     -18.767  34.838  50.197  1.00  0.00     0.174 HD
ATOM     21  H81 UNL     1     -19.870  34.047  51.331  1.00  0.00     0.174 HD
ENDBRANCH  13  19
ENDBRANCH   4  10
ENDBRANCH   2   4
BRANCH   1  22
HETATM   22  C3  UNL     1     -26.825  37.319  46.214  1.00  0.00     0.178 C 
BRANCH  22  23
HETATM   23  C2  UNL     1     -27.609  36.253  45.475  1.00  0.00     0.208 C 
BRANCH  23  24
HETATM   24  N4  UNL     1     -26.952  35.895  44.222  1.00  0.00    -0.202 N 
HETATM   25  N3  UNL     1     -25.788  36.334  43.758  1.00  0.00    -0.211 N 
HETATM   26  N2  UNL     1     -25.512  35.798  42.599  1.00  0.00    -0.115 N 
ATOM     27  H3  UNL     1     -25.189  37.002  44.242  1.00  0.00     0.210 HD
HETATM   28  C1  UNL     1     -26.513  34.983  42.283  1.00  0.00     0.707 A 
ATOM     29  H2  UNL     1     -24.679  35.974  42.037  1.00  0.00     0.207 HD
HETATM   30  N10 UNL     1     -27.390  35.057  43.296  1.00  0.00    -0.113 N 
ATOM     31  H10 UNL     1     -28.269  34.542  43.345  1.00  0.00     0.207 HD
BRANCH  28  32
HETATM   32  N1  UNL     1     -26.655  34.245  41.220  1.00  0.00    -0.232 N 
ATOM     33  H12 UNL     1     -26.131  34.356  40.353  1.00  0.00     0.174 HD
ATOM     34  H11 UNL     1     -27.287  33.459  41.071  1.00  0.00     0.174 HD
ENDBRANCH  28  32
ENDBRANCH  23  24
ENDBRANCH  22  23
BRANCH  22  35
HETATM   35  O1  UNL     1     -27.449  38.548  46.172  1.00  0.00    -0.389 OA
ATOM     36  H1  UNL     1     -26.884  39.224  45.816  1.00  0.00     0.210 HD
ENDBRANCH  22  35
ENDBRANCH   1  22
TORSDOF 10
ENDMDL
MODEL 4
REMARK VINA RESULT: -7.770733198      3.488      6.611
REMARK  10 active torsions:
REMARK  status: ('A' for Active; 'I' for Inactive)
REMARK    1  A    between atoms: N1_1  and  C1_4 
REMARK    2  A    between atoms: N4_9  and  C2_10 
REMARK    3  A    between atoms: C2_10  and  C3_11 
REMARK    4  A    between atoms: C3_11  and  O1_12 
REMARK    5  A    between atoms: C3_11  and  C4_14 
REMARK    6  A    between atoms: N5_15  and  S1_17 
REMARK    7  A    between atoms: S1_17  and  N6_19 
REMARK    8  A    between atoms: S1_17  and  C5_23 
REMARK    9  A    between atoms: N6_19  and  O3_21 
REMARK   10  A    between atoms: C7_27  and  N8_28 
ROOT
HETATM    1  C4  UNL     1     -23.702  37.136  47.217  1.00  0.00     0.105 C 
HETATM    2  N5  UNL     1     -24.556  37.931  46.766  1.00  0.00    -0.307 N 
ATOM      3  H5  UNL     1     -24.245  38.875  46.539  1.00  0.00     0.176 HD
ENDROOT
BRANCH   2   4
HETATM    4  S1  UNL     1     -26.174  37.565  46.503  1.00  0.00     0.168 S 
HETATM    5  O2  UNL     1     -26.840  36.793  47.590  1.00  0.00    -0.221 OA
BRANCH   4   6
HETATM    6  N6  UNL     1     -27.043  38.875  46.283  1.00  0.00    -0.207 N 
ATOM      7  H6  UNL     1     -26.659  39.709  45.837  1.00  0.00     0.206 HD
BRANCH   6   8
HETATM    8  O3  UNL     1     -28.338  38.823  46.726  1.00  0.00    -0.281 OA
ATOM      9  H3  UNL     1     -29.008  39.045  46.090  1.00  0.00     0.245 HD
ENDBRANCH   6   8
ENDBRANCH   4   6
BRANCH   4  10
HETATM   10  C5  UNL     1     -26.366  36.618  45.022  1.00  0.00     0.144 A 
HETATM   11  C6  UNL     1     -25.361  36.510  44.089  1.00  0.00     0.135 A 
HETATM   12  N7  UNL     1     -25.507  35.784  42.953  1.00  0.00    -0.200 N 
HETATM   13  C7  UNL     1     -26.668  35.151  42.733  1.00  0.00     0.678 A 
ATOM     14  H7  UNL     1     -24.745  35.720  42.277  1.00  0.00     0.183 HD
HETATM   15  N9  UNL     1     -27.663  35.239  43.623  1.00  0.00    -0.155 N 
HETATM   16  C8  UNL     1     -27.552  35.953  44.765  1.00  0.00     0.282 A 
ATOM     17  H9  UNL     1     -28.537  34.749  43.432  1.00  0.00     0.187 HD
HETATM   18  O4  UNL     1     -28.475  36.041  45.601  1.00  0.00    -0.266 OA
BRANCH  13  19
HETATM   19  N8  UNL     1     -26.845  34.451  41.663  1.00  0.00    -0.234 N 
ATOM     20  H82 UNL     1     -26.044  34.251  41.064  1.00  0.00     0.174 HD
ATOM     21  H81 UNL     1     -27.770  34.099  41.417  1.00  0.00     0.174 HD
ENDBRANCH  13  19
ENDBRANCH   4  10
ENDBRANCH   2   4
BRANCH   1  22
HETATM   22  C3  UNL     1     -23.987  35.736  47.596  1.00  0.00     0.178 C 
BRANCH  22  23
HETATM   23  C2  UNL     1     -22.797  34.838  47.322  1.00  0.00     0.208 C 
BRANCH  23  24
HETATM   24  N4  UNL     1     -21.805  34.947  48.387  1.00  0.00    -0.202 N 
HETATM   25  N3  UNL     1     -20.765  34.154  48.617  1.00  0.00    -0.211 N 
HETATM   26  N2  UNL     1     -20.090  34.555  49.662  1.00  0.00    -0.115 N 
ATOM     27  H3  UNL     1     -20.525  33.339  48.053  1.00  0.00     0.210 HD
HETATM   28  C1  UNL     1     -20.692  35.640  50.138  1.00  0.00     0.707 A 
ATOM     29  H2  UNL     1     -19.253  34.115  50.043  1.00  0.00     0.207 HD
HETATM   30  N10 UNL     1     -21.746  35.864  49.339  1.00  0.00    -0.113 N 
ATOM     31  H10 UNL     1     -22.409  36.632  49.450  1.00  0.00     0.207 HD
BRANCH  28  32
HETATM   32  N1  UNL     1     -20.362  36.366  51.167  1.00  0.00    -0.232 N 
ATOM     33  H12 UNL     1     -19.707  37.147  51.150  1.00  0.00     0.174 HD
ATOM     34  H11 UNL     1     -20.686  36.288  52.131  1.00  0.00     0.174 HD
ENDBRANCH  28  32
ENDBRANCH  23  24
ENDBRANCH  22  23
BRANCH  22  35
HETATM   35  O1  UNL     1     -24.385  35.687  48.915  1.00  0.00    -0.389 OA
ATOM     36  H1  UNL     1     -24.646  36.539  49.243  1.00  0.00     0.210 HD
ENDBRANCH  22  35
ENDBRANCH   1  22
TORSDOF 10
ENDMDL
MODEL 5
REMARK VINA RESULT: -7.617097388      3.353      5.567
REMARK  10 active torsions:
REMARK  status: ('A' for Active; 'I' for Inactive)
REMARK    1  A    between atoms: N1_1  and  C1_4 
REMARK    2  A    between atoms: N4_9  and  C2_10 
REMARK    3  A    between atoms: C2_10  and  C3_11 
REMARK    4  A    between atoms: C3_11  and  O1_12 
REMARK    5  A    between atoms: C3_11  and  C4_14 
REMARK    6  A    between atoms: N5_15  and  S1_17 
REMARK    7  A    between atoms: S1_17  and  N6_19 
REMARK    8  A    between atoms: S1_17  and  C5_23 
REMARK    9  A    between atoms: N6_19  and  O3_21 
REMARK   10  A    between atoms: C7_27  and  N8_28 
ROOT
HETATM    1  C4  UNL     1     -25.327  35.203  45.512  1.00  0.00     0.105 C 
HETATM    2  N5  UNL     1     -24.502  35.025  46.435  1.00  0.00    -0.307 N 
ATOM      3  H5  UNL     1     -24.132  34.083  46.559  1.00  0.00     0.176 HD
ENDROOT
BRANCH   2   4
HETATM    4  S1  UNL     1     -23.955  36.216  47.486  1.00  0.00     0.168 S 
HETATM    5  O2  UNL     1     -23.532  37.492  46.842  1.00  0.00    -0.221 OA
BRANCH   4   6
HETATM    6  N6  UNL     1     -25.057  36.598  48.563  1.00  0.00    -0.207 N 
ATOM      7  H6  UNL     1     -25.052  36.202  49.503  1.00  0.00     0.206 HD
BRANCH   6   8
HETATM    8  O3  UNL     1     -26.014  37.491  48.159  1.00  0.00    -0.281 OA
ATOM      9  H3  UNL     1     -26.897  37.327  48.467  1.00  0.00     0.245 HD
ENDBRANCH   6   8
ENDBRANCH   4   6
BRANCH   4  10
HETATM   10  C5  UNL     1     -22.567  35.636  48.416  1.00  0.00     0.144 A 
HETATM   11  C6  UNL     1     -22.138  36.271  49.559  1.00  0.00     0.135 A 
HETATM   12  N7  UNL     1     -21.074  35.828  50.273  1.00  0.00    -0.200 N 
HETATM   13  C7  UNL     1     -20.419  34.736  49.851  1.00  0.00     0.678 A 
ATOM     14  H7  UNL     1     -20.775  36.317  51.117  1.00  0.00     0.183 HD
HETATM   15  N9  UNL     1     -20.815  34.099  48.744  1.00  0.00    -0.155 N 
HETATM   16  C8  UNL     1     -21.871  34.513  48.008  1.00  0.00     0.282 A 
ATOM     17  H9  UNL     1     -20.300  33.272  48.443  1.00  0.00     0.187 HD
HETATM   18  O4  UNL     1     -22.247  33.925  46.973  1.00  0.00    -0.266 OA
BRANCH  13  19
HETATM   19  N8  UNL     1     -19.402  34.284  50.504  1.00  0.00    -0.234 N 
ATOM     20  H82 UNL     1     -18.561  34.859  50.570  1.00  0.00     0.174 HD
ATOM     21  H81 UNL     1     -19.433  33.367  50.949  1.00  0.00     0.174 HD
ENDBRANCH  13  19
ENDBRANCH   4  10
ENDBRANCH   2   4
BRANCH   1  22
HETATM   22  C3  UNL     1     -25.958  36.502  45.199  1.00  0.00     0.178 C 
BRANCH  22  23
HETATM   23  C2  UNL     1     -25.234  37.209  44.070  1.00  0.00     0.208 C 
BRANCH  23  24
HETATM   24  N4  UNL     1     -24.652  38.466  44.530  1.00  0.00    -0.202 N 
HETATM   25  N3  UNL     1     -25.138  39.306  45.435  1.00  0.00    -0.211 N 
HETATM   26  N2  UNL     1     -24.346  40.334  45.594  1.00  0.00    -0.115 N 
ATOM     27  H3  UNL     1     -26.013  39.169  45.940  1.00  0.00     0.210 HD
HETATM   28  C1  UNL     1     -23.310  40.174  44.778  1.00  0.00     0.707 A 
ATOM     29  H2  UNL     1     -24.497  41.118  46.230  1.00  0.00     0.207 HD
HETATM   30  N10 UNL     1     -23.517  39.018  44.131  1.00  0.00    -0.113 N 
ATOM     31  H10 UNL     1     -22.891  38.621  43.431  1.00  0.00     0.207 HD
BRANCH  28  32
HETATM   32  N1  UNL     1     -22.282  40.956  44.608  1.00  0.00    -0.232 N 
ATOM     33  H12 UNL     1     -22.083  41.490  43.763  1.00  0.00     0.174 HD
ATOM     34  H11 UNL     1     -21.528  41.166  45.262  1.00  0.00     0.174 HD
ENDBRANCH  28  32
ENDBRANCH  23  24
ENDBRANCH  22  23
BRANCH  22  35
HETATM   35  O1  UNL     1     -27.295  36.310  44.922  1.00  0.00    -0.389 OA
ATOM     36  H1  UNL     1     -27.539  35.392  44.949  1.00  0.00     0.210 HD
ENDBRANCH  22  35
ENDBRANCH   1  22
TORSDOF 10
ENDMDL
