MODEL 1
REMARK VINA RESULT: -8.084202282      0.000      0.000
REMARK  15 active torsions:
REMARK  status: ('A' for Active; 'I' for Inactive)
REMARK    1  A    between atoms: C5_7  and  N2_8 
REMARK    2  A    between atoms: N2_8  and  C6_10 
REMARK    3  A    between atoms: C6_10  and  O1_11 
REMARK    4  A    between atoms: C6_10  and  C7_13 
REMARK    5  A    between atoms: C7_13  and  O2_14 
REMARK    6  A    between atoms: C7_13  and  C11_22 
REMARK    7  A    between atoms: O2_14  and  C8_15 
REMARK    8  A    between atoms: C8_15  and  C9_17 
REMARK    9  A    between atoms: C10_18  and  N3_19 
REMARK   10  A    between atoms: C11_22  and  O4_23 
REMARK   11  A    between atoms: C11_22  and  C12_25 
REMARK   12  A    between atoms: C12_25  and  O5_26 
REMARK   13  A    between atoms: C12_25  and  C13_28 
REMARK   14  A    between atoms: C13_28  and  N4_29 
REMARK   15  A    between atoms: C13_28  and  O6_33 
ROOT
HETATM    1  C1  UNL     1     -19.824  34.873  51.479  1.00  0.00     0.019 C 
HETATM    2  C2  UNL     1     -20.608  35.000  50.567  1.00  0.00    -0.058 C 
HETATM    3  C3  UNL     1     -21.525  35.131  49.477  1.00  0.00     0.101 A 
HETATM    4  C4  UNL     1     -21.539  34.246  48.420  1.00  0.00     0.128 A 
HETATM    5  N1  UNL     1     -22.411  34.379  47.397  1.00  0.00    -0.349 N 
ATOM      6  H1  UNL     1     -22.397  33.707  46.631  1.00  0.00     0.167 HD
HETATM    7  C5  UNL     1     -23.291  35.385  47.381  1.00  0.00     0.118 A 
HETATM    8  C14 UNL     1     -23.297  36.279  48.422  1.00  0.00     0.137 A 
HETATM    9  N5  UNL     1     -22.426  36.124  49.421  1.00  0.00    -0.354 N 
ATOM     10  H5  UNL     1     -22.446  36.798  50.186  1.00  0.00     0.166 HD
ENDROOT
BRANCH   7  11
HETATM   11  N2  UNL     1     -24.116  35.502  46.400  1.00  0.00    -0.347 N 
ATOM     12  H2  UNL     1     -24.451  34.654  45.943  1.00  0.00     0.163 HD
BRANCH  11  13
HETATM   13  C6  UNL     1     -24.584  36.766  45.921  1.00  0.00     0.251 C 
BRANCH  13  14
HETATM   14  O1  UNL     1     -24.121  36.889  44.581  1.00  0.00    -0.374 OA
ATOM     15  H1  UNL     1     -24.877  37.118  44.053  1.00  0.00     0.212 HD
ENDBRANCH  13  14
BRANCH  13  16
HETATM   16  C7  UNL     1     -26.086  36.815  45.915  1.00  0.00     0.212 C 
BRANCH  16  17
HETATM   17  O2  UNL     1     -26.623  36.776  44.618  1.00  0.00    -0.298 OA
BRANCH  17  18
HETATM   18  C8  UNL     1     -27.209  35.610  44.163  1.00  0.00     0.341 C 
HETATM   19  O3  UNL     1     -28.064  34.979  44.873  1.00  0.00    -0.249 OA
BRANCH  18  20
HETATM   20  C9  UNL     1     -26.867  35.075  42.867  1.00  0.00     0.025 C 
HETATM   21  C10 UNL     1     -26.590  34.639  41.774  1.00  0.00     0.014 C 
BRANCH  21  22
HETATM   22  N3  UNL     1     -26.270  34.146  40.487  1.00  0.00    -0.359 N 
ATOM     23  H32 UNL     1     -26.276  34.983  41.070  1.00  0.00     0.166 HD
ATOM     24  H31 UNL     1     -26.043  33.778  39.564  1.00  0.00     0.166 HD
ENDBRANCH  21  22
ENDBRANCH  18  20
ENDBRANCH  17  18
ENDBRANCH  16  17
BRANCH  16  25
HETATM   25  C11 UNL     1     -26.675  37.890  46.789  1.00  0.00     0.185 C 
BRANCH  25  26
HETATM   26  O4  UNL     1     -26.547  37.502  48.139  1.00  0.00    -0.390 OA
ATOM     27  H4  UNL     1     -27.247  36.896  48.353  1.00  0.00     0.210 HD
ENDBRANCH  25  26
BRANCH  25  28
HETATM   28  C12 UNL     1     -28.094  38.241  46.502  1.00  0.00     0.205 C 
BRANCH  28  29
HETATM   29  O5  UNL     1     -28.382  39.567  46.923  1.00  0.00    -0.389 OA
ATOM     30  H5  UNL     1     -28.429  40.156  46.179  1.00  0.00     0.210 HD
ENDBRANCH  28  29
BRANCH  28  31
HETATM   31  C13 UNL     1     -29.000  37.288  47.267  1.00  0.00     0.347 C 
BRANCH  31  32
HETATM   32  N4  UNL     1     -30.066  36.776  46.482  1.00  0.00    -0.051 N 
ATOM     33  H43 UNL     1     -30.116  37.253  45.582  1.00  0.00     0.277 HD
ATOM     34  H42 UNL     1     -29.858  35.830  46.159  1.00  0.00     0.277 HD
ATOM     35  H41 UNL     1     -30.968  36.806  46.958  1.00  0.00     0.277 HD
ENDBRANCH  31  32
BRANCH  31  36
HETATM   36  O6  UNL     1     -29.477  37.893  48.441  1.00  0.00    -0.368 OA
ATOM     37  H6  UNL     1     -29.559  37.253  49.137  1.00  0.00     0.212 HD
ENDBRANCH  31  36
ENDBRANCH  28  31
ENDBRANCH  25  28
ENDBRANCH  16  25
ENDBRANCH  13  16
ENDBRANCH  11  13
ENDBRANCH   7  11
TORSDOF 15
ENDMDL
MODEL 2
REMARK VINA RESULT: -7.898997327      2.103      3.320
REMARK  15 active torsions:
REMARK  status: ('A' for Active; 'I' for Inactive)
REMARK    1  A    between atoms: C5_7  and  N2_8 
REMARK    2  A    between atoms: N2_8  and  C6_10 
REMARK    3  A    between atoms: C6_10  and  O1_11 
REMARK    4  A    between atoms: C6_10  and  C7_13 
REMARK    5  A    between atoms: C7_13  and  O2_14 
REMARK    6  A    between atoms: C7_13  and  C11_22 
REMARK    7  A    between atoms: O2_14  and  C8_15 
REMARK    8  A    between atoms: C8_15  and  C9_17 
REMARK    9  A    between atoms: C10_18  and  N3_19 
REMARK   10  A    between atoms: C11_22  and  O4_23 
REMARK   11  A    between atoms: C11_22  and  C12_25 
REMARK   12  A    between atoms: C12_25  and  O5_26 
REMARK   13  A    between atoms: C12_25  and  C13_28 
REMARK   14  A    between atoms: C13_28  and  N4_29 
REMARK   15  A    between atoms: C13_28  and  O6_33 
ROOT
HETATM    1  C1  UNL     1     -19.857  34.264  48.934  1.00  0.00     0.019 C 
HETATM    2  C2  UNL     1     -20.952  34.753  48.774  1.00  0.00    -0.058 C 
HETATM    3  C3  UNL     1     -22.241  35.346  48.603  1.00  0.00     0.101 A 
HETATM    4  C4  UNL     1     -22.647  36.441  49.335  1.00  0.00     0.128 A 
HETATM    5  N1  UNL     1     -23.868  36.994  49.163  1.00  0.00    -0.349 N 
ATOM      6  H1  UNL     1     -24.139  37.805  49.720  1.00  0.00     0.167 HD
HETATM    7  C5  UNL     1     -24.724  36.487  48.270  1.00  0.00     0.118 A 
HETATM    8  C14 UNL     1     -24.342  35.398  47.529  1.00  0.00     0.137 A 
HETATM    9  N5  UNL     1     -23.130  34.871  47.718  1.00  0.00    -0.354 N 
ATOM     10  H5  UNL     1     -22.865  34.062  47.156  1.00  0.00     0.166 HD
ENDROOT
BRANCH   7  11
HETATM   11  N2  UNL     1     -25.885  37.022  48.117  1.00  0.00    -0.347 N 
ATOM     12  H2  UNL     1     -26.158  37.779  48.743  1.00  0.00     0.163 HD
BRANCH  11  13
HETATM   13  C6  UNL     1     -26.809  36.605  47.108  1.00  0.00     0.251 C 
BRANCH  13  14
HETATM   14  O1  UNL     1     -28.112  36.795  47.647  1.00  0.00    -0.374 OA
ATOM     15  H1  UNL     1     -28.701  36.262  47.127  1.00  0.00     0.212 HD
ENDBRANCH  13  14
BRANCH  13  16
HETATM   16  C7  UNL     1     -26.673  37.449  45.873  1.00  0.00     0.212 C 
BRANCH  16  17
HETATM   17  O2  UNL     1     -26.166  36.729  44.779  1.00  0.00    -0.298 OA
BRANCH  17  18
HETATM   18  C8  UNL     1     -26.968  35.795  44.152  1.00  0.00     0.341 C 
HETATM   19  O3  UNL     1     -28.030  35.353  44.709  1.00  0.00    -0.249 OA
BRANCH  18  20
HETATM   20  C9  UNL     1     -26.624  35.293  42.844  1.00  0.00     0.025 C 
HETATM   21  C10 UNL     1     -26.339  34.887  41.741  1.00  0.00     0.014 C 
BRANCH  21  22
HETATM   22  N3  UNL     1     -26.004  34.431  40.444  1.00  0.00    -0.359 N 
ATOM     23  H32 UNL     1     -26.605  35.072  40.961  1.00  0.00     0.166 HD
ATOM     24  H31 UNL     1     -25.752  34.094  39.515  1.00  0.00     0.166 HD
ENDBRANCH  21  22
ENDBRANCH  18  20
ENDBRANCH  17  18
ENDBRANCH  16  17
BRANCH  16  25
HETATM   25  C11 UNL     1     -26.000  38.776  46.098  1.00  0.00     0.185 C 
BRANCH  25  26
HETATM   26  O4  UNL     1     -26.835  39.801  45.609  1.00  0.00    -0.390 OA
ATOM     27  H4  UNL     1     -26.294  40.522  45.308  1.00  0.00     0.210 HD
ENDBRANCH  25  26
BRANCH  25  28
HETATM   28  C12 UNL     1     -24.641  38.912  45.504  1.00  0.00     0.205 C 
BRANCH  28  29
HETATM   29  O5  UNL     1     -23.641  38.883  46.514  1.00  0.00    -0.389 OA
ATOM     30  H5  UNL     1     -22.780  38.757  46.134  1.00  0.00     0.210 HD
ENDBRANCH  28  29
BRANCH  28  31
HETATM   31  C13 UNL     1     -24.553  40.247  44.780  1.00  0.00     0.347 C 
BRANCH  31  32
HETATM   32  N4  UNL     1     -23.515  40.293  43.811  1.00  0.00    -0.051 N 
ATOM     33  H43 UNL     1     -23.045  41.197  43.827  1.00  0.00     0.277 HD
ATOM     34  H42 UNL     1     -22.737  39.693  44.085  1.00  0.00     0.277 HD
ATOM     35  H41 UNL     1     -23.833  40.067  42.869  1.00  0.00     0.277 HD
ENDBRANCH  31  32
BRANCH  31  36
HETATM   36  O6  UNL     1     -24.437  41.302  45.699  1.00  0.00    -0.368 OA
ATOM     37  H6  UNL     1     -25.234  41.817  45.719  1.00  0.00     0.212 HD
ENDBRANCH  31  36
ENDBRANCH  28  31
ENDBRANCH  25  28
ENDBRANCH  16  25
ENDBRANCH  13  16
ENDBRANCH  11  13
ENDBRANCH   7  11
TORSDOF 15
ENDMDL
MODEL 3
REMARK VINA RESULT: -7.777725648      2.250      3.778
REMARK  15 active torsions:
REMARK  status: ('A' for Active; 'I' for Inactive)
REMARK    1  A    between atoms: C5_7  and  N2_8 
REMARK    2  A    between atoms: N2_8  and  C6_10 
REMARK    3  A    between atoms: C6_10  and  O1_11 
REMARK    4  A    between atoms: C6_10  and  C7_13 
REMARK    5  A    between atoms: C7_13  and  O2_14 
REMARK    6  A    between atoms: C7_13  and  C11_22 
REMARK    7  A    between atoms: O2_14  and  C8_15 
REMARK    8  A    between atoms: C8_15  and  C9_17 
REMARK    9  A    between atoms: C10_18  and  N3_19 
REMARK   10  A    between atoms: C11_22  and  O4_23 
REMARK   11  A    between atoms: C11_22  and  C12_25 
REMARK   12  A    between atoms: C12_25  and  O5_26 
REMARK   13  A    between atoms: C12_25  and  C13_28 
REMARK   14  A    between atoms: C13_28  and  N4_29 
REMARK   15  A    between atoms: C13_28  and  O6_33 
ROOT
HETATM    1  C1  UNL     1     -19.769  34.609  51.877  1.00  0.00     0.019 C 
HETATM    2  C2  UNL     1     -20.448  34.775  50.890  1.00  0.00    -0.058 C 
HETATM    3  C3  UNL     1     -21.259  34.993  49.732  1.00  0.00     0.101 A 
HETATM    4  C4  UNL     1     -22.024  36.130  49.576  1.00  0.00     0.128 A 
HETATM    5  N1  UNL     1     -22.785  36.324  48.478  1.00  0.00    -0.349 N 
ATOM      6  H1  UNL     1     -23.339  37.176  48.391  1.00  0.00     0.167 HD
HETATM    7  C5  UNL     1     -22.818  35.410  47.503  1.00  0.00     0.118 A 
HETATM    8  C14 UNL     1     -22.065  34.271  47.635  1.00  0.00     0.137 A 
HETATM    9  N5  UNL     1     -21.321  34.104  48.730  1.00  0.00    -0.354 N 
ATOM     10  H5  UNL     1     -20.767  33.251  48.809  1.00  0.00     0.166 HD
ENDROOT
BRANCH   7  11
HETATM   11  N2  UNL     1     -23.548  35.607  46.461  1.00  0.00    -0.347 N 
ATOM     12  H2  UNL     1     -23.093  35.654  45.550  1.00  0.00     0.163 HD
BRANCH  11  13
HETATM   13  C6  UNL     1     -24.969  35.764  46.522  1.00  0.00     0.251 C 
BRANCH  13  14
HETATM   14  O1  UNL     1     -25.281  36.122  47.863  1.00  0.00    -0.374 OA
ATOM     15  H1  UNL     1     -25.470  35.313  48.323  1.00  0.00     0.212 HD
ENDBRANCH  13  14
BRANCH  13  16
HETATM   16  C7  UNL     1     -25.427  36.868  45.612  1.00  0.00     0.212 C 
BRANCH  16  17
HETATM   17  O2  UNL     1     -25.986  36.388  44.417  1.00  0.00    -0.298 OA
BRANCH  17  18
HETATM   18  C8  UNL     1     -27.185  35.703  44.458  1.00  0.00     0.341 C 
HETATM   19  O3  UNL     1     -27.357  34.628  43.788  1.00  0.00    -0.249 OA
BRANCH  18  20
HETATM   20  C9  UNL     1     -28.279  36.187  45.265  1.00  0.00     0.025 C 
HETATM   21  C10 UNL     1     -29.189  36.585  45.954  1.00  0.00     0.014 C 
BRANCH  21  22
HETATM   22  N3  UNL     1     -30.243  37.047  46.778  1.00  0.00    -0.359 N 
ATOM     23  H32 UNL     1     -29.590  36.277  46.631  1.00  0.00     0.166 HD
ATOM     24  H31 UNL     1     -31.003  37.392  47.363  1.00  0.00     0.166 HD
ENDBRANCH  21  22
ENDBRANCH  18  20
ENDBRANCH  17  18
ENDBRANCH  16  17
BRANCH  16  25
HETATM   25  C11 UNL     1     -24.420  37.970  45.418  1.00  0.00     0.185 C 
BRANCH  25  26
HETATM   26  O4  UNL     1     -24.170  38.586  46.661  1.00  0.00    -0.390 OA
ATOM     27  H4  UNL     1     -24.108  39.526  46.532  1.00  0.00     0.210 HD
ENDBRANCH  25  26
BRANCH  25  28
HETATM   28  C12 UNL     1     -24.791  39.005  44.413  1.00  0.00     0.205 C 
BRANCH  28  29
HETATM   29  O5  UNL     1     -24.588  38.524  43.091  1.00  0.00    -0.389 OA
ATOM     30  H5  UNL     1     -24.075  39.140  42.581  1.00  0.00     0.210 HD
ENDBRANCH  28  29
BRANCH  28  31
HETATM   31  C13 UNL     1     -23.910  40.228  44.619  1.00  0.00     0.347 C 
BRANCH  31  32
HETATM   32  N4  UNL     1     -22.563  39.904  44.930  1.00  0.00    -0.051 N 
ATOM     33  H43 UNL     1     -22.359  40.102  45.909  1.00  0.00     0.277 HD
ATOM     34  H42 UNL     1     -22.424  38.893  44.931  1.00  0.00     0.277 HD
ATOM     35  H41 UNL     1     -21.886  40.362  44.320  1.00  0.00     0.277 HD
ENDBRANCH  31  32
BRANCH  31  36
HETATM   36  O6  UNL     1     -24.465  41.080  45.587  1.00  0.00    -0.368 OA
ATOM     37  H6  UNL     1     -24.565  41.959  45.241  1.00  0.00     0.212 HD
ENDBRANCH  31  36
ENDBRANCH  28  31
ENDBRANCH  25  28
ENDBRANCH  16  25
ENDBRANCH  13  16
ENDBRANCH  11  13
ENDBRANCH   7  11
TORSDOF 15
ENDMDL
MODEL 4
REMARK VINA RESULT: -7.764067816      2.060      3.669
REMARK  15 active torsions:
REMARK  status: ('A' for Active; 'I' for Inactive)
REMARK    1  A    between atoms: C5_7  and  N2_8 
REMARK    2  A    between atoms: N2_8  and  C6_10 
REMARK    3  A    between atoms: C6_10  and  O1_11 
REMARK    4  A    between atoms: C6_10  and  C7_13 
REMARK    5  A    between atoms: C7_13  and  O2_14 
REMARK    6  A    between atoms: C7_13  and  C11_22 
REMARK    7  A    between atoms: O2_14  and  C8_15 
REMARK    8  A    between atoms: C8_15  and  C9_17 
REMARK    9  A    between atoms: C10_18  and  N3_19 
REMARK   10  A    between atoms: C11_22  and  O4_23 
REMARK   11  A    between atoms: C11_22  and  C12_25 
REMARK   12  A    between atoms: C12_25  and  O5_26 
REMARK   13  A    between atoms: C12_25  and  C13_28 
REMARK   14  A    between atoms: C13_28  and  N4_29 
REMARK   15  A    between atoms: C13_28  and  O6_33 
ROOT
HETATM    1  C1  UNL     1     -19.866  35.159  51.483  1.00  0.00     0.019 C 
HETATM    2  C2  UNL     1     -20.649  35.179  50.560  1.00  0.00    -0.058 C 
HETATM    3  C3  UNL     1     -21.562  35.182  49.460  1.00  0.00     0.101 A 
HETATM    4  C4  UNL     1     -21.508  34.235  48.460  1.00  0.00     0.128 A 
HETATM    5  N1  UNL     1     -22.378  34.248  47.426  1.00  0.00    -0.349 N 
ATOM      6  H1  UNL     1     -22.314  33.532  46.703  1.00  0.00     0.167 HD
HETATM    7  C5  UNL     1     -23.322  35.190  47.344  1.00  0.00     0.118 A 
HETATM    8  C14 UNL     1     -23.396  36.143  48.328  1.00  0.00     0.137 A 
HETATM    9  N5  UNL     1     -22.525  36.108  49.339  1.00  0.00    -0.354 N 
ATOM     10  H5  UNL     1     -22.597  36.825  50.061  1.00  0.00     0.166 HD
ENDROOT
BRANCH   7  11
HETATM   11  N2  UNL     1     -24.144  35.192  46.354  1.00  0.00    -0.347 N 
ATOM     12  H2  UNL     1     -24.882  34.489  46.333  1.00  0.00     0.163 HD
BRANCH  11  13
HETATM   13  C6  UNL     1     -24.071  36.135  45.280  1.00  0.00     0.251 C 
BRANCH  13  14
HETATM   14  O1  UNL     1     -23.974  35.377  44.080  1.00  0.00    -0.374 OA
ATOM     15  H1  UNL     1     -23.127  35.578  43.700  1.00  0.00     0.212 HD
ENDBRANCH  13  14
BRANCH  13  16
HETATM   16  C7  UNL     1     -25.314  36.976  45.218  1.00  0.00     0.212 C 
BRANCH  16  17
HETATM   17  O2  UNL     1     -26.210  36.543  44.227  1.00  0.00    -0.298 OA
BRANCH  17  18
HETATM   18  C8  UNL     1     -27.316  35.799  44.592  1.00  0.00     0.341 C 
HETATM   19  O3  UNL     1     -27.508  34.626  44.124  1.00  0.00    -0.249 OA
BRANCH  18  20
HETATM   20  C9  UNL     1     -28.285  36.334  45.518  1.00  0.00     0.025 C 
HETATM   21  C10 UNL     1     -29.090  36.796  46.292  1.00  0.00     0.014 C 
BRANCH  21  22
HETATM   22  N3  UNL     1     -30.030  37.356  47.190  1.00  0.00    -0.359 N 
ATOM     23  H32 UNL     1     -29.039  37.152  47.056  1.00  0.00     0.166 HD
ATOM     24  H31 UNL     1     -30.717  37.757  47.827  1.00  0.00     0.166 HD
ENDBRANCH  21  22
ENDBRANCH  18  20
ENDBRANCH  17  18
ENDBRANCH  16  17
BRANCH  16  25
HETATM   25  C11 UNL     1     -25.060  38.460  45.208  1.00  0.00     0.185 C 
BRANCH  25  26
HETATM   26  O4  UNL     1     -26.229  39.127  45.629  1.00  0.00    -0.390 OA
ATOM     27  H4  UNL     1     -26.052  40.059  45.672  1.00  0.00     0.210 HD
ENDBRANCH  25  26
BRANCH  25  28
HETATM   28  C12 UNL     1     -24.606  39.022  43.905  1.00  0.00     0.205 C 
BRANCH  28  29
HETATM   29  O5  UNL     1     -23.379  38.432  43.498  1.00  0.00    -0.389 OA
ATOM     30  H5  UNL     1     -22.676  39.071  43.508  1.00  0.00     0.210 HD
ENDBRANCH  28  29
BRANCH  28  31
HETATM   31  C13 UNL     1     -24.388  40.519  44.066  1.00  0.00     0.347 C 
BRANCH  31  32
HETATM   32  N4  UNL     1     -23.853  40.876  45.332  1.00  0.00    -0.051 N 
ATOM     33  H43 UNL     1     -24.594  40.967  46.026  1.00  0.00     0.277 HD
ATOM     34  H42 UNL     1     -23.335  40.097  45.739  1.00  0.00     0.277 HD
ATOM     35  H41 UNL     1     -23.278  41.718  45.304  1.00  0.00     0.277 HD
ENDBRANCH  31  32
BRANCH  31  36
HETATM   36  O6  UNL     1     -25.573  41.223  43.798  1.00  0.00    -0.368 OA
ATOM     37  H6  UNL     1     -25.521  41.656  42.954  1.00  0.00     0.212 HD
ENDBRANCH  31  36
ENDBRANCH  28  31
ENDBRANCH  25  28
ENDBRANCH  16  25
ENDBRANCH  13  16
ENDBRANCH  11  13
ENDBRANCH   7  11
TORSDOF 15
ENDMDL
MODEL 5
REMARK VINA RESULT: -7.750458926      2.270      3.044
REMARK  15 active torsions:
REMARK  status: ('A' for Active; 'I' for Inactive)
REMARK    1  A    between atoms: C5_7  and  N2_8 
REMARK    2  A    between atoms: N2_8  and  C6_10 
REMARK    3  A    between atoms: C6_10  and  O1_11 
REMARK    4  A    between atoms: C6_10  and  C7_13 
REMARK    5  A    between atoms: C7_13  and  O2_14 
REMARK    6  A    between atoms: C7_13  and  C11_22 
REMARK    7  A    between atoms: O2_14  and  C8_15 
REMARK    8  A    between atoms: C8_15  and  C9_17 
REMARK    9  A    between atoms: C10_18  and  N3_19 
REMARK   10  A    between atoms: C11_22  and  O4_23 
REMARK   11  A    between atoms: C11_22  and  C12_25 
REMARK   12  A    between atoms: C12_25  and  O5_26 
REMARK   13  A    between atoms: C12_25  and  C13_28 
REMARK   14  A    between atoms: C13_28  and  N4_29 
REMARK   15  A    between atoms: C13_28  and  O6_33 
ROOT
HETATM    1  C1  UNL     1     -20.185  35.358  51.107  1.00  0.00     0.019 C 
HETATM    2  C2  UNL     1     -20.986  35.368  50.200  1.00  0.00    -0.058 C 
HETATM    3  C3  UNL     1     -21.921  35.362  49.118  1.00  0.00     0.101 A 
HETATM    4  C4  UNL     1     -21.869  34.422  48.110  1.00  0.00     0.128 A 
HETATM    5  N1  UNL     1     -22.759  34.426  47.094  1.00  0.00    -0.349 N 
ATOM      6  H1  UNL     1     -22.696  33.717  46.364  1.00  0.00     0.167 HD
HETATM    7  C5  UNL     1     -23.723  35.351  47.038  1.00  0.00     0.118 A 
HETATM    8  C14 UNL     1     -23.795  36.296  48.030  1.00  0.00     0.137 A 
HETATM    9  N5  UNL     1     -22.904  36.269  49.023  1.00  0.00    -0.354 N 
ATOM     10  H5  UNL     1     -22.975  36.980  49.751  1.00  0.00     0.166 HD
ENDROOT
BRANCH   7  11
HETATM   11  N2  UNL     1     -24.564  35.344  46.064  1.00  0.00    -0.347 N 
ATOM     12  H2  UNL     1     -25.242  34.584  46.012  1.00  0.00     0.163 HD
BRANCH  11  13
HETATM   13  C6  UNL     1     -24.593  36.353  45.050  1.00  0.00     0.251 C 
BRANCH  13  14
HETATM   14  O1  UNL     1     -24.859  35.686  43.821  1.00  0.00    -0.374 OA
ATOM     15  H1  UNL     1     -24.120  35.862  43.251  1.00  0.00     0.212 HD
ENDBRANCH  13  14
BRANCH  13  16
HETATM   16  C7  UNL     1     -25.694  37.342  45.307  1.00  0.00     0.212 C 
BRANCH  16  17
HETATM   17  O2  UNL     1     -25.218  38.557  45.828  1.00  0.00    -0.298 OA
BRANCH  17  18
HETATM   18  C8  UNL     1     -24.267  39.269  45.125  1.00  0.00     0.341 C 
HETATM   19  O3  UNL     1     -23.027  39.195  45.427  1.00  0.00    -0.249 OA
BRANCH  18  20
HETATM   20  C9  UNL     1     -24.653  40.118  44.024  1.00  0.00     0.025 C 
HETATM   21  C10 UNL     1     -24.980  40.817  43.093  1.00  0.00     0.014 C 
BRANCH  21  22
HETATM   22  N3  UNL     1     -25.376  41.619  41.996  1.00  0.00    -0.359 N 
ATOM     23  H32 UNL     1     -25.256  40.656  42.311  1.00  0.00     0.166 HD
ATOM     24  H31 UNL     1     -25.658  42.209  41.214  1.00  0.00     0.166 HD
ENDBRANCH  21  22
ENDBRANCH  18  20
ENDBRANCH  17  18
ENDBRANCH  16  17
BRANCH  16  25
HETATM   25  C11 UNL     1     -26.875  36.777  46.049  1.00  0.00     0.185 C 
BRANCH  25  26
HETATM   26  O4  UNL     1     -27.609  35.948  45.177  1.00  0.00    -0.390 OA
ATOM     27  H4  UNL     1     -27.367  35.043  45.336  1.00  0.00     0.210 HD
ENDBRANCH  25  26
BRANCH  25  28
HETATM   28  C12 UNL     1     -27.784  37.784  46.665  1.00  0.00     0.205 C 
BRANCH  28  29
HETATM   29  O5  UNL     1     -27.145  38.451  47.745  1.00  0.00    -0.389 OA
ATOM     30  H5  UNL     1     -26.581  39.147  47.428  1.00  0.00     0.210 HD
ENDBRANCH  28  29
BRANCH  28  31
HETATM   31  C13 UNL     1     -29.015  37.071  47.203  1.00  0.00     0.347 C 
BRANCH  31  32
HETATM   32  N4  UNL     1     -30.035  36.899  46.230  1.00  0.00    -0.051 N 
ATOM     33  H43 UNL     1     -29.767  37.328  45.345  1.00  0.00     0.277 HD
ATOM     34  H42 UNL     1     -30.094  35.925  45.935  1.00  0.00     0.277 HD
ATOM     35  H41 UNL     1     -30.946  37.241  46.536  1.00  0.00     0.277 HD
ENDBRANCH  31  32
BRANCH  31  36
HETATM   36  O6  UNL     1     -29.506  37.723  48.345  1.00  0.00    -0.368 OA
ATOM     37  H6  UNL     1     -30.319  37.327  48.634  1.00  0.00     0.212 HD
ENDBRANCH  31  36
ENDBRANCH  28  31
ENDBRANCH  25  28
ENDBRANCH  16  25
ENDBRANCH  13  16
ENDBRANCH  11  13
ENDBRANCH   7  11
TORSDOF 15
ENDMDL
