MODEL 1
REMARK VINA RESULT: -8.644887497      0.000      0.000
REMARK  8 active torsions:
REMARK  status: ('A' for Active; 'I' for Inactive)
REMARK    1  A    between atoms: N1_2  and  C2_3 
REMARK       I    between atoms: N1_2  and  C4_7 
REMARK    2  A    between atoms: C2_3  and  C3_4 
REMARK    3  A    between atoms: C4_7  and  C5_9 
REMARK    4  A    between atoms: N2_11  and  C7_12 
REMARK    5  A    between atoms: C7_12  and  C8_13 
REMARK       I    between atoms: C8_13  and  N3_15 
REMARK    6  A    between atoms: N3_15  and  N4_17 
REMARK    7  A    between atoms: N4_17  and  C9_19 
REMARK    8  A    between atoms: C10_22  and  N6_23 
ROOT
HETATM    1  C8  UNL     1     -28.212  36.627  46.019  1.00  0.00     0.256 C 
HETATM    2  O4  UNL     1     -29.359  36.796  45.537  1.00  0.00    -0.270 OA
HETATM    3  N3  UNL     1     -27.311  35.723  45.362  1.00  0.00    -0.266 N 
ATOM      4  H3  UNL     1     -26.378  35.580  45.747  1.00  0.00     0.190 HD
ENDROOT
BRANCH   1   5
HETATM    5  C7  UNL     1     -27.814  37.356  47.243  1.00  0.00     0.254 C 
BRANCH   5   6
HETATM    6  N2  UNL     1     -26.345  37.345  47.365  1.00  0.00    -0.278 N 
HETATM    7  C6  UNL     1     -25.635  36.558  48.163  1.00  0.00     0.148 A 
HETATM    8  C5  UNL     1     -24.299  36.879  47.962  1.00  0.00     0.134 A 
HETATM    9  N10 UNL     1     -24.292  37.849  47.047  1.00  0.00    -0.280 N 
HETATM   10  N9  UNL     1     -25.528  38.113  46.703  1.00  0.00    -0.240 N 
ATOM     11  H10 UNL     1     -23.461  38.310  46.676  1.00  0.00     0.189 HD
ATOM     12  H9  UNL     1     -25.809  38.815  46.019  1.00  0.00     0.208 HD
BRANCH   8  13
HETATM   13  C4  UNL     1     -23.220  36.216  48.672  1.00  0.00     0.273 C 
HETATM   14  N1  UNL     1     -22.577  35.106  48.104  1.00  0.00    -0.341 N 
HETATM   15  C1  UNL     1     -22.955  34.590  46.820  1.00  0.00     0.153 C 
HETATM   16  O3  UNL     1     -22.861  36.646  49.807  1.00  0.00    -0.266 OA
BRANCH  14  17
HETATM   17  C2  UNL     1     -21.504  34.467  48.829  1.00  0.00     0.238 C 
BRANCH  17  18
HETATM   18  C3  UNL     1     -20.246  35.220  48.824  1.00  0.00     0.191 C 
HETATM   19  O1  UNL     1     -19.559  35.315  47.784  1.00  0.00    -0.647 OA
HETATM   20  O2  UNL     1     -19.806  35.839  49.987  1.00  0.00    -0.647 OA
ENDBRANCH  17  18
ENDBRANCH  14  17
ENDBRANCH   8  13
ENDBRANCH   5   6
ENDBRANCH   1   5
BRANCH   3  21
HETATM   21  N4  UNL     1     -27.684  35.045  44.220  1.00  0.00    -0.268 N 
ATOM     22  H4  UNL     1     -28.497  34.430  44.235  1.00  0.00     0.190 HD
BRANCH  21  23
HETATM   23  C9  UNL     1     -26.935  35.204  43.023  1.00  0.00     0.209 C 
HETATM   24  N5  UNL     1     -25.876  35.919  42.891  1.00  0.00    -0.318 N 
HETATM   25  C10 UNL     1     -25.441  35.800  41.523  1.00  0.00     0.399 C 
ATOM     26  H5  UNL     1     -25.425  36.469  43.621  1.00  0.00     0.166 HD
HETATM   27  N7  UNL     1     -25.986  34.528  41.104  1.00  0.00    -0.084 NA
HETATM   28  N8  UNL     1     -27.245  34.580  41.763  1.00  0.00    -0.270 N 
ATOM     29  H8  UNL     1     -28.150  34.253  41.424  1.00  0.00     0.185 HD
BRANCH  25  30
HETATM   30  N6  UNL     1     -26.107  36.852  40.774  1.00  0.00    -0.042 N 
ATOM     31  H63 UNL     1     -26.381  36.564  39.835  1.00  0.00     0.278 HD
ATOM     32  H62 UNL     1     -27.042  37.063  41.123  1.00  0.00     0.278 HD
ATOM     33  H61 UNL     1     -25.485  37.660  40.780  1.00  0.00     0.278 HD
ENDBRANCH  25  30
ENDBRANCH  21  23
ENDBRANCH   3  21
TORSDOF 8
ENDMDL
MODEL 2
REMARK VINA RESULT: -8.621493542      1.357      1.704
REMARK  8 active torsions:
REMARK  status: ('A' for Active; 'I' for Inactive)
REMARK    1  A    between atoms: N1_2  and  C2_3 
REMARK       I    between atoms: N1_2  and  C4_7 
REMARK    2  A    between atoms: C2_3  and  C3_4 
REMARK    3  A    between atoms: C4_7  and  C5_9 
REMARK    4  A    between atoms: N2_11  and  C7_12 
REMARK    5  A    between atoms: C7_12  and  C8_13 
REMARK       I    between atoms: C8_13  and  N3_15 
REMARK    6  A    between atoms: N3_15  and  N4_17 
REMARK    7  A    between atoms: N4_17  and  C9_19 
REMARK    8  A    between atoms: C10_22  and  N6_23 
ROOT
HETATM    1  C8  UNL     1     -27.368  37.071  46.720  1.00  0.00     0.256 C 
HETATM    2  O4  UNL     1     -28.045  38.030  46.278  1.00  0.00    -0.270 OA
HETATM    3  N3  UNL     1     -27.340  35.842  45.977  1.00  0.00    -0.266 N 
ATOM      4  H3  UNL     1     -26.793  35.057  46.330  1.00  0.00     0.190 HD
ENDROOT
BRANCH   1   5
HETATM    5  C7  UNL     1     -26.618  37.221  47.986  1.00  0.00     0.254 C 
BRANCH   5   6
HETATM    6  N2  UNL     1     -25.197  36.906  47.756  1.00  0.00    -0.278 N 
HETATM    7  C6  UNL     1     -24.536  35.872  48.261  1.00  0.00     0.148 A 
HETATM    8  C5  UNL     1     -23.233  35.957  47.792  1.00  0.00     0.134 A 
HETATM    9  N10 UNL     1     -23.193  37.049  47.027  1.00  0.00    -0.280 N 
HETATM   10  N9  UNL     1     -24.380  37.602  47.020  1.00  0.00    -0.240 N 
ATOM     11  H10 UNL     1     -22.373  37.397  46.530  1.00  0.00     0.189 HD
ATOM     12  H9  UNL     1     -24.627  38.451  46.512  1.00  0.00     0.208 HD
BRANCH   8  13
HETATM   13  C4  UNL     1     -22.210  34.987  48.140  1.00  0.00     0.273 C 
HETATM   14  N1  UNL     1     -21.366  35.213  49.238  1.00  0.00    -0.341 N 
HETATM   15  C1  UNL     1     -21.479  36.392  50.046  1.00  0.00     0.153 C 
HETATM   16  O3  UNL     1     -22.083  33.935  47.448  1.00  0.00    -0.266 OA
BRANCH  14  17
HETATM   17  C2  UNL     1     -20.359  34.231  49.565  1.00  0.00     0.238 C 
BRANCH  17  18
HETATM   18  C3  UNL     1     -19.116  34.371  48.800  1.00  0.00     0.191 C 
HETATM   19  O1  UNL     1     -19.008  35.239  47.906  1.00  0.00    -0.647 OA
HETATM   20  O2  UNL     1     -18.041  33.533  49.066  1.00  0.00    -0.647 OA
ENDBRANCH  17  18
ENDBRANCH  14  17
ENDBRANCH   8  13
ENDBRANCH   5   6
ENDBRANCH   1   5
BRANCH   3  21
HETATM   21  N4  UNL     1     -28.039  35.704  44.796  1.00  0.00    -0.268 N 
ATOM     22  H4  UNL     1     -29.056  35.770  44.795  1.00  0.00     0.190 HD
BRANCH  21  23
HETATM   23  C9  UNL     1     -27.342  35.470  43.582  1.00  0.00     0.209 C 
HETATM   24  N5  UNL     1     -26.094  35.699  43.377  1.00  0.00    -0.318 N 
HETATM   25  C10 UNL     1     -25.801  35.322  42.018  1.00  0.00     0.399 C 
ATOM     26  H5  UNL     1     -25.432  36.079  44.053  1.00  0.00     0.166 HD
HETATM   27  N7  UNL     1     -26.817  34.340  41.713  1.00  0.00    -0.084 NA
HETATM   28  N8  UNL     1     -27.925  34.929  42.381  1.00  0.00    -0.270 N 
ATOM     29  H8  UNL     1     -28.900  34.961  42.082  1.00  0.00     0.185 HD
BRANCH  25  30
HETATM   30  N6  UNL     1     -26.035  36.494  41.193  1.00  0.00    -0.042 N 
ATOM     31  H63 UNL     1     -26.322  37.312  41.730  1.00  0.00     0.278 HD
ATOM     32  H62 UNL     1     -25.178  36.889  40.805  1.00  0.00     0.278 HD
ATOM     33  H61 UNL     1     -26.711  36.224  40.479  1.00  0.00     0.278 HD
ENDBRANCH  25  30
ENDBRANCH  21  23
ENDBRANCH   3  21
TORSDOF 8
ENDMDL
MODEL 3
REMARK VINA RESULT: -8.377466434      3.550      7.628
REMARK  8 active torsions:
REMARK  status: ('A' for Active; 'I' for Inactive)
REMARK    1  A    between atoms: N1_2  and  C2_3 
REMARK       I    between atoms: N1_2  and  C4_7 
REMARK    2  A    between atoms: C2_3  and  C3_4 
REMARK    3  A    between atoms: C4_7  and  C5_9 
REMARK    4  A    between atoms: N2_11  and  C7_12 
REMARK    5  A    between atoms: C7_12  and  C8_13 
REMARK       I    between atoms: C8_13  and  N3_15 
REMARK    6  A    between atoms: N3_15  and  N4_17 
REMARK    7  A    between atoms: N4_17  and  C9_19 
REMARK    8  A    between atoms: C10_22  and  N6_23 
ROOT
HETATM    1  C8  UNL     1     -23.902  35.687  48.108  1.00  0.00     0.256 C 
HETATM    2  O4  UNL     1     -23.344  35.968  49.197  1.00  0.00    -0.270 OA
HETATM    3  N3  UNL     1     -23.347  34.643  47.294  1.00  0.00    -0.266 N 
ATOM      4  H3  UNL     1     -23.793  34.408  46.408  1.00  0.00     0.190 HD
ENDROOT
BRANCH   1   5
HETATM    5  C7  UNL     1     -25.110  36.430  47.687  1.00  0.00     0.254 C 
BRANCH   5   6
HETATM    6  N2  UNL     1     -24.713  37.599  46.882  1.00  0.00    -0.278 N 
HETATM    7  C6  UNL     1     -25.408  38.131  45.885  1.00  0.00     0.148 A 
HETATM    8  C5  UNL     1     -24.672  39.207  45.410  1.00  0.00     0.134 A 
HETATM    9  N10 UNL     1     -23.570  39.253  46.159  1.00  0.00    -0.280 N 
HETATM   10  N9  UNL     1     -23.614  38.281  47.034  1.00  0.00    -0.240 N 
ATOM     11  H10 UNL     1     -22.815  39.933  46.065  1.00  0.00     0.189 HD
ATOM     12  H9  UNL     1     -22.896  38.086  47.732  1.00  0.00     0.208 HD
BRANCH   8  13
HETATM   13  C4  UNL     1     -25.124  40.038  44.308  1.00  0.00     0.273 C 
HETATM   14  N1  UNL     1     -24.593  39.857  43.022  1.00  0.00    -0.341 N 
HETATM   15  C1  UNL     1     -23.599  38.859  42.750  1.00  0.00     0.153 C 
HETATM   16  O3  UNL     1     -26.000  40.929  44.513  1.00  0.00    -0.266 OA
BRANCH  14  17
HETATM   17  C2  UNL     1     -25.060  40.694  41.943  1.00  0.00     0.238 C 
BRANCH  17  18
HETATM   18  C3  UNL     1     -25.216  39.993  40.665  1.00  0.00     0.191 C 
HETATM   19  O1  UNL     1     -24.501  40.285  39.681  1.00  0.00    -0.647 OA
HETATM   20  O2  UNL     1     -26.169  38.990  40.537  1.00  0.00    -0.647 OA
ENDBRANCH  17  18
ENDBRANCH  14  17
ENDBRANCH   8  13
ENDBRANCH   5   6
ENDBRANCH   1   5
BRANCH   3  21
HETATM   21  N4  UNL     1     -22.220  33.951  47.689  1.00  0.00    -0.268 N 
ATOM     22  H4  UNL     1     -22.058  33.004  47.348  1.00  0.00     0.190 HD
BRANCH  21  23
HETATM   23  C9  UNL     1     -21.287  34.558  48.571  1.00  0.00     0.209 C 
HETATM   24  N5  UNL     1     -21.181  34.322  49.829  1.00  0.00    -0.318 N 
HETATM   25  C10 UNL     1     -20.115  35.147  50.338  1.00  0.00     0.399 C 
ATOM     26  H5  UNL     1     -21.748  33.669  50.370  1.00  0.00     0.166 HD
HETATM   27  N7  UNL     1     -19.288  35.384  49.176  1.00  0.00    -0.084 NA
HETATM   28  N8  UNL     1     -20.301  35.536  48.189  1.00  0.00    -0.270 N 
ATOM     29  H8  UNL     1     -20.324  36.183  47.401  1.00  0.00     0.185 HD
BRANCH  25  30
HETATM   30  N6  UNL     1     -20.711  36.409  50.740  1.00  0.00    -0.042 N 
ATOM     31  H63 UNL     1     -21.194  36.356  51.637  1.00  0.00     0.278 HD
ATOM     32  H62 UNL     1     -20.022  37.112  51.005  1.00  0.00     0.278 HD
ATOM     33  H61 UNL     1     -21.317  36.709  49.976  1.00  0.00     0.278 HD
ENDBRANCH  25  30
ENDBRANCH  21  23
ENDBRANCH   3  21
TORSDOF 8
ENDMDL
MODEL 4
REMARK VINA RESULT: -8.377011982      1.896      2.403
REMARK  8 active torsions:
REMARK  status: ('A' for Active; 'I' for Inactive)
REMARK    1  A    between atoms: N1_2  and  C2_3 
REMARK       I    between atoms: N1_2  and  C4_7 
REMARK    2  A    between atoms: C2_3  and  C3_4 
REMARK    3  A    between atoms: C4_7  and  C5_9 
REMARK    4  A    between atoms: N2_11  and  C7_12 
REMARK    5  A    between atoms: C7_12  and  C8_13 
REMARK       I    between atoms: C8_13  and  N3_15 
REMARK    6  A    between atoms: N3_15  and  N4_17 
REMARK    7  A    between atoms: N4_17  and  C9_19 
REMARK    8  A    between atoms: C10_22  and  N6_23 
ROOT
HETATM    1  C8  UNL     1     -25.595  37.764  45.627  1.00  0.00     0.256 C 
HETATM    2  O4  UNL     1     -26.680  38.392  45.692  1.00  0.00    -0.270 OA
HETATM    3  N3  UNL     1     -25.542  36.550  44.861  1.00  0.00    -0.266 N 
ATOM      4  H3  UNL     1     -24.665  36.034  44.803  1.00  0.00     0.190 HD
ENDROOT
BRANCH   1   5
HETATM    5  C7  UNL     1     -24.402  38.280  46.333  1.00  0.00     0.254 C 
BRANCH   5   6
HETATM    6  N2  UNL     1     -23.960  37.294  47.336  1.00  0.00    -0.278 N 
HETATM    7  C6  UNL     1     -22.886  36.520  47.247  1.00  0.00     0.148 A 
HETATM    8  C5  UNL     1     -22.847  35.750  48.401  1.00  0.00     0.134 A 
HETATM    9  N10 UNL     1     -23.912  36.114  49.117  1.00  0.00    -0.280 N 
HETATM   10  N9  UNL     1     -24.564  37.040  48.461  1.00  0.00    -0.240 N 
ATOM     11  H10 UNL     1     -24.174  35.733  50.026  1.00  0.00     0.189 HD
ATOM     12  H9  UNL     1     -25.418  37.495  48.783  1.00  0.00     0.208 HD
BRANCH   8  13
HETATM   13  C4  UNL     1     -21.802  34.775  48.656  1.00  0.00     0.273 C 
HETATM   14  N1  UNL     1     -20.833  35.019  49.641  1.00  0.00    -0.341 N 
HETATM   15  C1  UNL     1     -20.837  36.222  50.422  1.00  0.00     0.153 C 
HETATM   16  O3  UNL     1     -21.768  33.702  47.985  1.00  0.00    -0.266 OA
BRANCH  14  17
HETATM   17  C2  UNL     1     -19.805  34.032  49.877  1.00  0.00     0.238 C 
BRANCH  17  18
HETATM   18  C3  UNL     1     -18.669  34.119  48.955  1.00  0.00     0.191 C 
HETATM   19  O1  UNL     1     -18.641  34.983  48.051  1.00  0.00    -0.647 OA
HETATM   20  O2  UNL     1     -17.606  33.234  49.081  1.00  0.00    -0.647 OA
ENDBRANCH  17  18
ENDBRANCH  14  17
ENDBRANCH   8  13
ENDBRANCH   5   6
ENDBRANCH   1   5
BRANCH   3  21
HETATM   21  N4  UNL     1     -26.656  36.071  44.203  1.00  0.00    -0.268 N 
ATOM     22  H4  UNL     1     -27.577  36.154  44.632  1.00  0.00     0.190 HD
BRANCH  21  23
HETATM   23  C9  UNL     1     -26.518  35.462  42.927  1.00  0.00     0.209 C 
HETATM   24  N5  UNL     1     -25.411  35.264  42.306  1.00  0.00    -0.318 N 
HETATM   25  C10 UNL     1     -25.725  34.625  41.054  1.00  0.00     0.399 C 
ATOM     26  H5  UNL     1     -24.480  35.514  42.638  1.00  0.00     0.166 HD
HETATM   27  N7  UNL     1     -26.987  33.970  41.315  1.00  0.00    -0.084 NA
HETATM   28  N8  UNL     1     -27.606  34.961  42.126  1.00  0.00    -0.270 N 
ATOM     29  H8  UNL     1     -28.584  35.248  42.138  1.00  0.00     0.185 HD
BRANCH  25  30
HETATM   30  N6  UNL     1     -25.950  35.681  40.083  1.00  0.00    -0.042 N 
ATOM     31  H63 UNL     1     -26.854  35.611  39.616  1.00  0.00     0.278 HD
ATOM     32  H62 UNL     1     -26.096  36.595  40.511  1.00  0.00     0.278 HD
ATOM     33  H61 UNL     1     -25.162  35.663  39.435  1.00  0.00     0.278 HD
ENDBRANCH  25  30
ENDBRANCH  21  23
ENDBRANCH   3  21
TORSDOF 8
ENDMDL
MODEL 5
REMARK VINA RESULT: -8.274313643      1.081      1.387
REMARK  8 active torsions:
REMARK  status: ('A' for Active; 'I' for Inactive)
REMARK    1  A    between atoms: N1_2  and  C2_3 
REMARK       I    between atoms: N1_2  and  C4_7 
REMARK    2  A    between atoms: C2_3  and  C3_4 
REMARK    3  A    between atoms: C4_7  and  C5_9 
REMARK    4  A    between atoms: N2_11  and  C7_12 
REMARK    5  A    between atoms: C7_12  and  C8_13 
REMARK       I    between atoms: C8_13  and  N3_15 
REMARK    6  A    between atoms: N3_15  and  N4_17 
REMARK    7  A    between atoms: N4_17  and  C9_19 
REMARK    8  A    between atoms: C10_22  and  N6_23 
ROOT
HETATM    1  C8  UNL     1     -28.214  36.721  46.137  1.00  0.00     0.256 C 
HETATM    2  O4  UNL     1     -29.443  36.865  45.930  1.00  0.00    -0.270 OA
HETATM    3  N3  UNL     1     -27.442  35.941  45.211  1.00  0.00    -0.266 N 
ATOM      4  H3  UNL     1     -26.443  35.818  45.371  1.00  0.00     0.190 HD
ENDROOT
BRANCH   1   5
HETATM    5  C7  UNL     1     -27.587  37.352  47.319  1.00  0.00     0.254 C 
BRANCH   5   6
HETATM    6  N2  UNL     1     -26.123  37.197  47.241  1.00  0.00    -0.278 N 
HETATM    7  C6  UNL     1     -25.436  36.113  47.576  1.00  0.00     0.148 A 
HETATM    8  C5  UNL     1     -24.096  36.398  47.348  1.00  0.00     0.134 A 
HETATM    9  N10 UNL     1     -24.065  37.649  46.886  1.00  0.00    -0.280 N 
HETATM   10  N9  UNL     1     -25.289  38.109  46.830  1.00  0.00    -0.240 N 
ATOM     11  H10 UNL     1     -23.224  38.163  46.621  1.00  0.00     0.189 HD
ATOM     12  H9  UNL     1     -25.551  39.041  46.512  1.00  0.00     0.208 HD
BRANCH   8  13
HETATM   13  C4  UNL     1     -23.037  35.438  47.603  1.00  0.00     0.273 C 
HETATM   14  N1  UNL     1     -22.272  35.526  48.776  1.00  0.00    -0.341 N 
HETATM   15  C1  UNL     1     -22.502  36.551  49.752  1.00  0.00     0.153 C 
HETATM   16  O3  UNL     1     -22.807  34.520  46.762  1.00  0.00    -0.266 OA
BRANCH  14  17
HETATM   17  C2  UNL     1     -21.226  34.558  49.008  1.00  0.00     0.238 C 
BRANCH  17  18
HETATM   18  C3  UNL     1     -20.384  34.853  50.172  1.00  0.00     0.191 C 
HETATM   19  O1  UNL     1     -19.454  35.686  50.096  1.00  0.00    -0.647 OA
HETATM   20  O2  UNL     1     -20.617  34.204  51.377  1.00  0.00    -0.647 OA
ENDBRANCH  17  18
ENDBRANCH  14  17
ENDBRANCH   8  13
ENDBRANCH   5   6
ENDBRANCH   1   5
BRANCH   3  21
HETATM   21  N4  UNL     1     -28.028  35.354  44.109  1.00  0.00    -0.268 N 
ATOM     22  H4  UNL     1     -29.005  35.065  44.144  1.00  0.00     0.190 HD
BRANCH  21  23
HETATM   23  C9  UNL     1     -27.270  35.152  42.925  1.00  0.00     0.209 C 
HETATM   24  N5  UNL     1     -26.032  35.455  42.766  1.00  0.00    -0.318 N 
HETATM   25  C10 UNL     1     -25.662  35.085  41.425  1.00  0.00     0.399 C 
ATOM     26  H5  UNL     1     -25.421  35.879  43.464  1.00  0.00     0.166 HD
HETATM   27  N7  UNL     1     -26.605  34.041  41.090  1.00  0.00    -0.084 NA
HETATM   28  N8  UNL     1     -27.773  34.567  41.708  1.00  0.00    -0.270 N 
ATOM     29  H8  UNL     1     -28.735  34.538  41.371  1.00  0.00     0.185 HD
BRANCH  25  30
HETATM   30  N6  UNL     1     -25.934  36.234  40.578  1.00  0.00    -0.042 N 
ATOM     31  H63 UNL     1     -26.749  36.769  40.877  1.00  0.00     0.278 HD
ATOM     32  H62 UNL     1     -25.245  36.979  40.681  1.00  0.00     0.278 HD
ATOM     33  H61 UNL     1     -26.010  35.887  39.622  1.00  0.00     0.278 HD
ENDBRANCH  25  30
ENDBRANCH  21  23
ENDBRANCH   3  21
TORSDOF 8
ENDMDL
