MODEL 1
REMARK VINA RESULT: -7.278833692      0.000      0.000
REMARK  8 active torsions:
REMARK  status: ('A' for Active; 'I' for Inactive)
REMARK    1  A    between atoms: N1_2  and  C3_4 
REMARK    2  A    between atoms: C4_7  and  N3_8 
REMARK    3  A    between atoms: N3_8  and  N4_10 
REMARK    4  A    between atoms: N4_10  and  O1_11 
REMARK    5  A    between atoms: N4_10  and  C5_13 
REMARK    6  A    between atoms: C7_16  and  N5_17 
REMARK    7  A    between atoms: N5_17  and  N6_19 
REMARK       I    between atoms: N6_19  and  C8_20 
REMARK       I    between atoms: C8_20  and  N7_22 
REMARK    8  A    between atoms: N7_22  and  N8_24 
ROOT
HETATM    1  C3  UNL     1     -25.532  36.423  42.427  1.00  0.00     0.682 A 
HETATM    2  N2  UNL     1     -26.032  36.108  43.661  1.00  0.00    -0.174 N 
ATOM      3  H2  UNL     1     -26.702  35.342  43.724  1.00  0.00     0.186 HD
HETATM    4  C4  UNL     1     -25.694  36.747  44.796  1.00  0.00     0.155 A 
HETATM    5  C6  UNL     1     -24.761  37.799  44.645  1.00  0.00     0.101 A 
HETATM    6  C7  UNL     1     -24.325  38.529  45.720  1.00  0.00     0.153 A 
HETATM    7  N9  UNL     1     -23.440  39.523  45.565  1.00  0.00    -0.292 N 
ATOM      8  H9  UNL     1     -23.139  40.047  46.386  1.00  0.00     0.172 HD
HETATM    9  C9  UNL     1     -22.932  39.856  44.351  1.00  0.00     0.327 A 
HETATM   10  O4  UNL     1     -22.101  40.801  44.233  1.00  0.00    -0.247 OA
HETATM   11  N10 UNL     1     -23.346  39.149  43.290  1.00  0.00    -0.293 N 
ATOM     12  H10 UNL     1     -22.981  39.376  42.365  1.00  0.00     0.172 HD
HETATM   13  C10 UNL     1     -24.249  38.129  43.426  1.00  0.00     0.142 A 
HETATM   14  N11 UNL     1     -24.655  37.425  42.355  1.00  0.00    -0.175 N 
ATOM     15  H11 UNL     1     -24.274  37.670  41.441  1.00  0.00     0.186 HD
ENDROOT
BRANCH   6  16
HETATM   16  N5  UNL     1     -24.826  38.183  46.883  1.00  0.00    -0.213 N 
ATOM     17  H5  UNL     1     -25.707  38.587  47.202  1.00  0.00     0.204 HD
BRANCH  16  18
HETATM   18  N6  UNL     1     -24.187  37.310  47.638  1.00  0.00    -0.262 NA
HETATM   19  C8  UNL     1     -23.528  36.412  48.414  1.00  0.00     0.430 C 
HETATM   20  O3  UNL     1     -23.313  36.445  49.659  1.00  0.00    -0.227 OA
HETATM   21  N7  UNL     1     -22.955  35.210  47.802  1.00  0.00    -0.245 N 
ATOM     22  H7  UNL     1     -23.068  35.069  46.798  1.00  0.00     0.192 HD
BRANCH  21  23
HETATM   23  N8  UNL     1     -22.261  34.254  48.539  1.00  0.00    -0.340 N 
ATOM     24  H82 UNL     1     -22.326  33.282  48.237  1.00  0.00     0.177 HD
ATOM     25  H81 UNL     1     -21.702  34.495  49.357  1.00  0.00     0.177 HD
ENDBRANCH  21  23
ENDBRANCH  16  18
ENDBRANCH   6  16
BRANCH   4  26
HETATM   26  N3  UNL     1     -26.149  36.476  45.918  1.00  0.00    -0.255 N 
ATOM     27  H3  UNL     1     -25.431  36.005  46.469  1.00  0.00     0.191 HD
BRANCH  26  28
HETATM   28  N4  UNL     1     -27.249  36.592  46.641  1.00  0.00    -0.135 N 
BRANCH  28  29
HETATM   29  O1  UNL     1     -27.068  36.901  48.006  1.00  0.00    -0.266 OA
ATOM     30  H1  UNL     1     -27.160  37.816  48.246  1.00  0.00     0.247 HD
ENDBRANCH  28  29
BRANCH  28  31
HETATM   31  C5  UNL     1     -28.624  36.468  46.320  1.00  0.00     0.401 C 
HETATM   32  O2  UNL     1     -29.094  36.416  45.172  1.00  0.00    -0.279 OA
ENDBRANCH  28  31
ENDBRANCH  26  28
ENDBRANCH   4  26
BRANCH   1  33
HETATM   33  N1  UNL     1     -25.958  35.678  41.297  1.00  0.00    -0.226 N 
HETATM   34  C1  UNL     1     -25.932  36.235  39.974  1.00  0.00     0.168 C 
HETATM   35  C2  UNL     1     -26.442  34.301  41.457  1.00  0.00     0.168 C 
ENDBRANCH   1  33
TORSDOF 8
ENDMDL
MODEL 2
REMARK VINA RESULT: -6.780574826      1.212      4.064
REMARK  8 active torsions:
REMARK  status: ('A' for Active; 'I' for Inactive)
REMARK    1  A    between atoms: N1_2  and  C3_4 
REMARK    2  A    between atoms: C4_7  and  N3_8 
REMARK    3  A    between atoms: N3_8  and  N4_10 
REMARK    4  A    between atoms: N4_10  and  O1_11 
REMARK    5  A    between atoms: N4_10  and  C5_13 
REMARK    6  A    between atoms: C7_16  and  N5_17 
REMARK    7  A    between atoms: N5_17  and  N6_19 
REMARK       I    between atoms: N6_19  and  C8_20 
REMARK       I    between atoms: C8_20  and  N7_22 
REMARK    8  A    between atoms: N7_22  and  N8_24 
ROOT
HETATM    1  C3  UNL     1     -26.152  35.795  42.776  1.00  0.00     0.682 A 
HETATM    2  N2  UNL     1     -25.054  36.425  43.298  1.00  0.00    -0.174 N 
ATOM      3  H2  UNL     1     -24.216  36.485  42.719  1.00  0.00     0.186 HD
HETATM    4  C4  UNL     1     -25.013  36.970  44.527  1.00  0.00     0.155 A 
HETATM    5  C6  UNL     1     -26.204  36.856  45.283  1.00  0.00     0.101 A 
HETATM    6  C7  UNL     1     -26.301  37.373  46.548  1.00  0.00     0.153 A 
HETATM    7  N9  UNL     1     -27.435  37.260  47.253  1.00  0.00    -0.292 N 
ATOM      8  H9  UNL     1     -27.473  37.654  48.192  1.00  0.00     0.172 HD
HETATM    9  C9  UNL     1     -28.535  36.638  46.758  1.00  0.00     0.327 A 
HETATM   10  O4  UNL     1     -29.591  36.543  47.446  1.00  0.00    -0.247 OA
HETATM   11  N10 UNL     1     -28.457  36.130  45.520  1.00  0.00    -0.293 N 
ATOM     12  H10 UNL     1     -29.268  35.657  45.121  1.00  0.00     0.172 HD
HETATM   13  C10 UNL     1     -27.309  36.235  44.782  1.00  0.00     0.142 A 
HETATM   14  N11 UNL     1     -27.242  35.724  43.540  1.00  0.00    -0.175 N 
ATOM     15  H11 UNL     1     -28.068  35.258  43.163  1.00  0.00     0.186 HD
ENDROOT
BRANCH   6  16
HETATM   16  N5  UNL     1     -25.226  37.975  47.001  1.00  0.00    -0.213 N 
ATOM     17  H5  UNL     1     -25.052  38.953  46.770  1.00  0.00     0.204 HD
BRANCH  16  18
HETATM   18  N6  UNL     1     -24.372  37.310  47.755  1.00  0.00    -0.262 NA
HETATM   19  C8  UNL     1     -23.492  36.626  48.531  1.00  0.00     0.430 C 
HETATM   20  O3  UNL     1     -23.207  36.798  49.749  1.00  0.00    -0.227 OA
HETATM   21  N7  UNL     1     -22.724  35.521  47.950  1.00  0.00    -0.245 N 
ATOM     22  H7  UNL     1     -22.872  35.283  46.970  1.00  0.00     0.192 HD
BRANCH  21  23
HETATM   23  N8  UNL     1     -21.801  34.784  48.688  1.00  0.00    -0.340 N 
ATOM     24  H82 UNL     1     -21.656  33.809  48.428  1.00  0.00     0.177 HD
ATOM     25  H81 UNL     1     -21.276  35.186  49.465  1.00  0.00     0.177 HD
ENDBRANCH  21  23
ENDBRANCH  16  18
ENDBRANCH   6  16
BRANCH   4  26
HETATM   26  N3  UNL     1     -24.021  37.534  45.014  1.00  0.00    -0.255 N 
ATOM     27  H3  UNL     1     -23.572  36.909  45.685  1.00  0.00     0.191 HD
BRANCH  26  28
HETATM   28  N4  UNL     1     -23.349  38.670  44.959  1.00  0.00    -0.135 N 
BRANCH  28  29
HETATM   29  O1  UNL     1     -22.516  38.957  46.061  1.00  0.00    -0.266 OA
ATOM     30  H1  UNL     1     -21.834  39.602  45.915  1.00  0.00     0.247 HD
ENDBRANCH  28  29
BRANCH  28  31
HETATM   31  C5  UNL     1     -23.287  39.699  43.986  1.00  0.00     0.401 C 
HETATM   32  O2  UNL     1     -22.455  40.622  43.965  1.00  0.00    -0.279 OA
ENDBRANCH  28  31
ENDBRANCH  26  28
ENDBRANCH   4  26
BRANCH   1  33
HETATM   33  N1  UNL     1     -26.083  35.260  41.465  1.00  0.00    -0.226 N 
HETATM   34  C1  UNL     1     -26.233  33.854  41.216  1.00  0.00     0.168 C 
HETATM   35  C2  UNL     1     -25.852  36.142  40.314  1.00  0.00     0.168 C 
ENDBRANCH   1  33
TORSDOF 8
ENDMDL
MODEL 3
REMARK VINA RESULT: -6.749796732      2.737      6.473
REMARK  8 active torsions:
REMARK  status: ('A' for Active; 'I' for Inactive)
REMARK    1  A    between atoms: N1_2  and  C3_4 
REMARK    2  A    between atoms: C4_7  and  N3_8 
REMARK    3  A    between atoms: N3_8  and  N4_10 
REMARK    4  A    between atoms: N4_10  and  O1_11 
REMARK    5  A    between atoms: N4_10  and  C5_13 
REMARK    6  A    between atoms: C7_16  and  N5_17 
REMARK    7  A    between atoms: N5_17  and  N6_19 
REMARK       I    between atoms: N6_19  and  C8_20 
REMARK       I    between atoms: C8_20  and  N7_22 
REMARK    8  A    between atoms: N7_22  and  N8_24 
ROOT
HETATM    1  C3  UNL     1     -27.016  37.167  46.699  1.00  0.00     0.682 A 
HETATM    2  N2  UNL     1     -25.973  37.977  46.335  1.00  0.00    -0.174 N 
ATOM      3  H2  UNL     1     -25.646  38.668  47.010  1.00  0.00     0.186 HD
HETATM    4  C4  UNL     1     -25.353  37.916  45.143  1.00  0.00     0.155 A 
HETATM    5  C6  UNL     1     -25.850  36.937  44.249  1.00  0.00     0.101 A 
HETATM    6  C7  UNL     1     -25.306  36.764  43.003  1.00  0.00     0.153 A 
HETATM    7  N9  UNL     1     -25.785  35.833  42.167  1.00  0.00    -0.292 N 
ATOM      8  H9  UNL     1     -25.358  35.732  41.246  1.00  0.00     0.172 HD
HETATM    9  C9  UNL     1     -26.819  35.021  42.503  1.00  0.00     0.327 A 
HETATM   10  O4  UNL     1     -27.253  34.154  41.693  1.00  0.00    -0.247 OA
HETATM   11  N10 UNL     1     -27.360  35.176  43.720  1.00  0.00    -0.293 N 
ATOM     12  H10 UNL     1     -28.138  34.580  44.002  1.00  0.00     0.172 HD
HETATM   13  C10 UNL     1     -26.886  36.121  44.591  1.00  0.00     0.142 A 
HETATM   14  N11 UNL     1     -27.434  36.266  45.810  1.00  0.00    -0.175 N 
ATOM     15  H11 UNL     1     -28.210  35.656  46.068  1.00  0.00     0.186 HD
ENDROOT
BRANCH   6  16
HETATM   16  N5  UNL     1     -24.304  37.556  42.705  1.00  0.00    -0.213 N 
ATOM     17  H5  UNL     1     -23.346  37.269  42.907  1.00  0.00     0.204 HD
BRANCH  16  18
HETATM   18  N6  UNL     1     -24.539  38.727  42.143  1.00  0.00    -0.262 NA
HETATM   19  C8  UNL     1     -24.780  39.931  41.564  1.00  0.00     0.430 C 
HETATM   20  O3  UNL     1     -24.662  40.268  40.353  1.00  0.00    -0.227 OA
HETATM   21  N7  UNL     1     -25.243  41.050  42.391  1.00  0.00    -0.245 N 
ATOM     22  H7  UNL     1     -25.380  40.898  43.390  1.00  0.00     0.192 HD
BRANCH  21  23
HETATM   23  N8  UNL     1     -25.501  42.312  41.862  1.00  0.00    -0.340 N 
ATOM     24  H82 UNL     1     -25.098  43.118  42.339  1.00  0.00     0.177 HD
ATOM     25  H81 UNL     1     -26.072  42.449  41.028  1.00  0.00     0.177 HD
ENDBRANCH  21  23
ENDBRANCH  16  18
ENDBRANCH   6  16
BRANCH   4  26
HETATM   26  N3  UNL     1     -24.414  38.650  44.799  1.00  0.00    -0.255 N 
ATOM     27  H3  UNL     1     -23.895  38.204  44.043  1.00  0.00     0.191 HD
BRANCH  26  28
HETATM   28  N4  UNL     1     -23.860  39.816  45.081  1.00  0.00    -0.135 N 
BRANCH  28  29
HETATM   29  O1  UNL     1     -24.740  40.846  45.478  1.00  0.00    -0.266 OA
ATOM     30  H1  UNL     1     -24.393  41.729  45.448  1.00  0.00     0.247 HD
ENDBRANCH  28  29
BRANCH  28  31
HETATM   31  C5  UNL     1     -22.516  40.266  45.069  1.00  0.00     0.401 C 
HETATM   32  O2  UNL     1     -21.969  40.876  44.136  1.00  0.00    -0.279 OA
ENDBRANCH  28  31
ENDBRANCH  26  28
ENDBRANCH   4  26
BRANCH   1  33
HETATM   33  N1  UNL     1     -27.591  37.319  47.986  1.00  0.00    -0.226 N 
HETATM   34  C1  UNL     1     -28.997  37.553  48.159  1.00  0.00     0.168 C 
HETATM   35  C2  UNL     1     -26.752  37.239  49.188  1.00  0.00     0.168 C 
ENDBRANCH   1  33
TORSDOF 8
ENDMDL
MODEL 4
REMARK VINA RESULT: -6.520436224      2.084      6.416
REMARK  8 active torsions:
REMARK  status: ('A' for Active; 'I' for Inactive)
REMARK    1  A    between atoms: N1_2  and  C3_4 
REMARK    2  A    between atoms: C4_7  and  N3_8 
REMARK    3  A    between atoms: N3_8  and  N4_10 
REMARK    4  A    between atoms: N4_10  and  O1_11 
REMARK    5  A    between atoms: N4_10  and  C5_13 
REMARK    6  A    between atoms: C7_16  and  N5_17 
REMARK    7  A    between atoms: N5_17  and  N6_19 
REMARK       I    between atoms: N6_19  and  C8_20 
REMARK       I    between atoms: C8_20  and  N7_22 
REMARK    8  A    between atoms: N7_22  and  N8_24 
ROOT
HETATM    1  C3  UNL     1     -23.326  36.095  48.158  1.00  0.00     0.682 A 
HETATM    2  N2  UNL     1     -23.156  36.395  46.834  1.00  0.00    -0.174 N 
ATOM      3  H2  UNL     1     -22.217  36.320  46.442  1.00  0.00     0.186 HD
HETATM    4  C4  UNL     1     -24.151  36.784  46.016  1.00  0.00     0.155 A 
HETATM    5  C6  UNL     1     -25.430  36.869  46.615  1.00  0.00     0.101 A 
HETATM    6  C7  UNL     1     -26.534  37.247  45.896  1.00  0.00     0.153 A 
HETATM    7  N9  UNL     1     -27.740  37.324  46.474  1.00  0.00    -0.292 N 
ATOM      8  H9  UNL     1     -28.540  37.609  45.910  1.00  0.00     0.172 HD
HETATM    9  C9  UNL     1     -27.933  37.034  47.786  1.00  0.00     0.327 A 
HETATM   10  O4  UNL     1     -29.082  37.118  48.306  1.00  0.00    -0.247 OA
HETATM   11  N10 UNL     1     -26.864  36.660  48.503  1.00  0.00    -0.293 N 
ATOM     12  H10 UNL     1     -26.977  36.435  49.491  1.00  0.00     0.172 HD
HETATM   13  C10 UNL     1     -25.622  36.574  47.932  1.00  0.00     0.142 A 
HETATM   14  N11 UNL     1     -24.557  36.196  48.659  1.00  0.00    -0.175 N 
ATOM     15  H11 UNL     1     -24.698  35.974  49.645  1.00  0.00     0.186 HD
ENDROOT
BRANCH   6  16
HETATM   16  N5  UNL     1     -26.322  37.515  44.629  1.00  0.00    -0.213 N 
ATOM     17  H5  UNL     1     -25.959  38.427  44.352  1.00  0.00     0.204 HD
BRANCH  16  18
HETATM   18  N6  UNL     1     -26.581  36.600  43.714  1.00  0.00    -0.262 NA
HETATM   19  C8  UNL     1     -26.847  35.658  42.773  1.00  0.00     0.430 C 
HETATM   20  O3  UNL     1     -27.857  34.908  42.663  1.00  0.00    -0.227 OA
HETATM   21  N7  UNL     1     -25.877  35.413  41.701  1.00  0.00    -0.245 N 
ATOM     22  H7  UNL     1     -25.019  35.964  41.681  1.00  0.00     0.192 HD
BRANCH  21  23
HETATM   23  N8  UNL     1     -26.084  34.457  40.710  1.00  0.00    -0.340 N 
ATOM     24  H82 UNL     1     -27.035  34.115  40.572  1.00  0.00     0.177 HD
ATOM     25  H81 UNL     1     -25.326  34.097  40.131  1.00  0.00     0.177 HD
ENDBRANCH  21  23
ENDBRANCH  16  18
ENDBRANCH   6  16
BRANCH   4  26
HETATM   26  N3  UNL     1     -24.007  37.068  44.817  1.00  0.00    -0.255 N 
ATOM     27  H3  UNL     1     -23.999  36.209  44.265  1.00  0.00     0.191 HD
BRANCH  26  28
HETATM   28  N4  UNL     1     -23.862  38.106  44.013  1.00  0.00    -0.135 N 
BRANCH  28  29
HETATM   29  O1  UNL     1     -24.181  37.893  42.655  1.00  0.00    -0.266 OA
ATOM     30  H1  UNL     1     -23.932  38.583  42.052  1.00  0.00     0.247 HD
ENDBRANCH  28  29
BRANCH  28  31
HETATM   31  C5  UNL     1     -23.437  39.440  44.238  1.00  0.00     0.401 C 
HETATM   32  O2  UNL     1     -22.348  39.919  43.881  1.00  0.00    -0.279 OA
ENDBRANCH  28  31
ENDBRANCH  26  28
ENDBRANCH   4  26
BRANCH   1  33
HETATM   33  N1  UNL     1     -22.202  35.692  48.925  1.00  0.00    -0.226 N 
HETATM   34  C1  UNL     1     -21.766  36.439  50.071  1.00  0.00     0.168 C 
HETATM   35  C2  UNL     1     -21.449  34.486  48.560  1.00  0.00     0.168 C 
ENDBRANCH   1  33
TORSDOF 8
ENDMDL
MODEL 5
REMARK VINA RESULT: -6.173037739      2.493      6.711
REMARK  8 active torsions:
REMARK  status: ('A' for Active; 'I' for Inactive)
REMARK    1  A    between atoms: N1_2  and  C3_4 
REMARK    2  A    between atoms: C4_7  and  N3_8 
REMARK    3  A    between atoms: N3_8  and  N4_10 
REMARK    4  A    between atoms: N4_10  and  O1_11 
REMARK    5  A    between atoms: N4_10  and  C5_13 
REMARK    6  A    between atoms: C7_16  and  N5_17 
REMARK    7  A    between atoms: N5_17  and  N6_19 
REMARK       I    between atoms: N6_19  and  C8_20 
REMARK       I    between atoms: C8_20  and  N7_22 
REMARK    8  A    between atoms: N7_22  and  N8_24 
ROOT
HETATM    1  C3  UNL     1     -24.257  36.686  47.496  1.00  0.00     0.682 A 
HETATM    2  N2  UNL     1     -23.645  37.688  46.792  1.00  0.00    -0.174 N 
ATOM      3  H2  UNL     1     -22.998  38.298  47.291  1.00  0.00     0.186 HD
HETATM    4  C4  UNL     1     -23.845  37.916  45.481  1.00  0.00     0.155 A 
HETATM    5  C6  UNL     1     -24.752  37.038  44.843  1.00  0.00     0.101 A 
HETATM    6  C7  UNL     1     -25.042  37.155  43.508  1.00  0.00     0.153 A 
HETATM    7  N9  UNL     1     -25.902  36.316  42.915  1.00  0.00    -0.292 N 
ATOM      8  H9  UNL     1     -26.097  36.432  41.921  1.00  0.00     0.172 HD
HETATM    9  C9  UNL     1     -26.523  35.317  43.593  1.00  0.00     0.327 A 
HETATM   10  O4  UNL     1     -27.332  34.542  43.008  1.00  0.00    -0.247 OA
HETATM   11  N10 UNL     1     -26.246  35.188  44.898  1.00  0.00    -0.293 N 
ATOM     12  H10 UNL     1     -26.697  34.446  45.434  1.00  0.00     0.172 HD
HETATM   13  C10 UNL     1     -25.371  36.033  45.525  1.00  0.00     0.142 A 
HETATM   14  N11 UNL     1     -25.099  35.893  46.834  1.00  0.00    -0.175 N 
ATOM     15  H11 UNL     1     -25.562  35.142  47.346  1.00  0.00     0.186 HD
ENDROOT
BRANCH   6  16
HETATM   16  N5  UNL     1     -24.424  38.124  42.875  1.00  0.00    -0.213 N 
ATOM     17  H5  UNL     1     -23.555  38.507  43.248  1.00  0.00     0.204 HD
BRANCH  16  18
HETATM   18  N6  UNL     1     -24.930  38.600  41.753  1.00  0.00    -0.262 NA
HETATM   19  C8  UNL     1     -25.451  39.089  40.599  1.00  0.00     0.430 C 
HETATM   20  O3  UNL     1     -26.482  38.717  39.972  1.00  0.00    -0.227 OA
HETATM   21  N7  UNL     1     -24.783  40.204  39.921  1.00  0.00    -0.245 N 
ATOM     22  H7  UNL     1     -23.938  40.596  40.336  1.00  0.00     0.192 HD
BRANCH  21  23
HETATM   23  N8  UNL     1     -25.260  40.748  38.730  1.00  0.00    -0.340 N 
ATOM     24  H82 UNL     1     -26.031  40.270  38.266  1.00  0.00     0.177 HD
ATOM     25  H81 UNL     1     -24.865  41.594  38.320  1.00  0.00     0.177 HD
ENDBRANCH  21  23
ENDBRANCH  16  18
ENDBRANCH   6  16
BRANCH   4  26
HETATM   26  N3  UNL     1     -23.304  38.827  44.835  1.00  0.00    -0.255 N 
ATOM     27  H3  UNL     1     -22.536  38.441  44.285  1.00  0.00     0.191 HD
BRANCH  26  28
HETATM   28  N4  UNL     1     -23.387  40.128  44.619  1.00  0.00    -0.135 N 
BRANCH  28  29
HETATM   29  O1  UNL     1     -22.170  40.796  44.361  1.00  0.00    -0.266 OA
ATOM     30  H1  UNL     1     -21.392  40.253  44.328  1.00  0.00     0.247 HD
ENDBRANCH  28  29
BRANCH  28  31
HETATM   31  C5  UNL     1     -24.483  41.027  44.590  1.00  0.00     0.401 C 
HETATM   32  O2  UNL     1     -25.678  40.703  44.506  1.00  0.00    -0.279 OA
ENDBRANCH  28  31
ENDBRANCH  26  28
ENDBRANCH   4  26
BRANCH   1  33
HETATM   33  N1  UNL     1     -23.968  36.536  48.877  1.00  0.00    -0.226 N 
HETATM   34  C1  UNL     1     -24.897  36.948  49.890  1.00  0.00     0.168 C 
HETATM   35  C2  UNL     1     -22.693  35.947  49.308  1.00  0.00     0.168 C 
ENDBRANCH   1  33
TORSDOF 8
ENDMDL
