MODEL 1
REMARK VINA RESULT: -7.417890249      0.000      0.000
REMARK  3 active torsions:
REMARK  status: ('A' for Active; 'I' for Inactive)
REMARK    1  A    between atoms: C1_2  and  C2_4 
REMARK    2  A    between atoms: C4_8  and  C5_9 
REMARK    3  A    between atoms: C7_15  and  N5_16 
ROOT
HETATM    1  C2  UNL     1     -15.553 -29.574 -28.564  1.00  0.00     0.172 A 
HETATM    2  N2  UNL     1     -15.517 -28.852 -27.436  1.00  0.00    -0.334 N 
ATOM      3  H2  UNL     1     -16.319 -28.653 -26.839  1.00  0.00     0.168 HD
HETATM    4  C3  UNL     1     -14.249 -28.428 -27.210  1.00  0.00     0.095 A 
HETATM    5  C4  UNL     1     -13.710 -27.668 -26.195  1.00  0.00     0.127 A 
HETATM    6  N4  UNL     1     -12.401 -27.374 -26.184  1.00  0.00    -0.357 N 
ATOM      7  H4  UNL     1     -12.013 -26.811 -25.428  1.00  0.00     0.165 HD
HETATM    8  C6  UNL     1     -11.606 -27.813 -27.157  1.00  0.00     0.127 A 
HETATM    9  C7  UNL     1     -12.107 -28.591 -28.214  1.00  0.00     0.147 A 
HETATM   10  C8  UNL     1     -13.452 -28.894 -28.226  1.00  0.00     0.098 A 
HETATM   11  N6  UNL     1     -14.284 -29.587 -29.027  1.00  0.00    -0.334 N 
ATOM     12  H6  UNL     1     -13.992 -30.063 -29.880  1.00  0.00     0.168 HD
ENDROOT
BRANCH   1  13
HETATM   13  C1  UNL     1     -16.672 -30.233 -29.211  1.00  0.00     0.298 C 
HETATM   14  N1  UNL     1     -16.451 -31.258 -30.178  1.00  0.00    -0.054 NA
HETATM   15  O1  UNL     1     -17.857 -29.908 -28.927  1.00  0.00    -0.268 OA
ENDBRANCH   1  13
BRANCH   5  16
HETATM   16  C5  UNL     1     -14.599 -27.198 -25.142  1.00  0.00     0.283 C 
HETATM   17  N3  UNL     1     -15.581 -26.236 -25.433  1.00  0.00    -0.056 NA
HETATM   18  O2  UNL     1     -14.465 -27.666 -23.998  1.00  0.00    -0.269 OA
ENDBRANCH   5  16
BRANCH   9  19
HETATM   19  N5  UNL     1     -11.277 -29.058 -29.237  1.00  0.00    -0.112 N 
HETATM   20  O3  UNL     1     -10.080 -28.714 -29.276  1.00  0.00    -0.532 OA
HETATM   21  O4  UNL     1     -11.749 -29.886 -30.201  1.00  0.00    -0.532 OA
ENDBRANCH   9  19
TORSDOF 3
ENDMDL
MODEL 2
REMARK VINA RESULT: -7.280420259      0.760      1.049
REMARK  3 active torsions:
REMARK  status: ('A' for Active; 'I' for Inactive)
REMARK    1  A    between atoms: C1_2  and  C2_4 
REMARK    2  A    between atoms: C4_8  and  C5_9 
REMARK    3  A    between atoms: C7_15  and  N5_16 
ROOT
HETATM    1  C2  UNL     1     -15.583 -29.526 -28.498  1.00  0.00     0.172 A 
HETATM    2  N2  UNL     1     -15.439 -28.765 -27.404  1.00  0.00    -0.334 N 
ATOM      3  H2  UNL     1     -16.195 -28.481 -26.781  1.00  0.00     0.168 HD
HETATM    4  C3  UNL     1     -14.134 -28.431 -27.253  1.00  0.00     0.095 A 
HETATM    5  C4  UNL     1     -13.491 -27.676 -26.297  1.00  0.00     0.127 A 
HETATM    6  N4  UNL     1     -12.165 -27.483 -26.357  1.00  0.00    -0.357 N 
ATOM      7  H4  UNL     1     -11.701 -26.922 -25.643  1.00  0.00     0.165 HD
HETATM    8  C6  UNL     1     -11.452 -28.019 -27.344  1.00  0.00     0.127 A 
HETATM    9  C7  UNL     1     -12.060 -28.798 -28.344  1.00  0.00     0.147 A 
HETATM   10  C8  UNL     1     -13.423 -28.997 -28.283  1.00  0.00     0.098 A 
HETATM   11  N6  UNL     1     -14.342 -29.654 -29.015  1.00  0.00    -0.334 N 
ATOM     12  H6  UNL     1     -14.127 -30.185 -29.860  1.00  0.00     0.168 HD
ENDROOT
BRANCH   1  13
HETATM   13  C1  UNL     1     -16.778 -30.121 -29.065  1.00  0.00     0.298 C 
HETATM   14  N1  UNL     1     -16.679 -31.166 -30.031  1.00  0.00    -0.054 NA
HETATM   15  O1  UNL     1     -17.921 -29.722 -28.713  1.00  0.00    -0.268 OA
ENDBRANCH   1  13
BRANCH   5  16
HETATM   16  C5  UNL     1     -14.292 -27.097 -25.227  1.00  0.00     0.283 C 
HETATM   17  N3  UNL     1     -14.978 -27.937 -24.333  1.00  0.00    -0.056 NA
HETATM   18  O2  UNL     1     -14.349 -25.858 -25.130  1.00  0.00    -0.269 OA
ENDBRANCH   5  16
BRANCH   9  19
HETATM   19  N5  UNL     1     -11.317 -29.368 -29.382  1.00  0.00    -0.112 N 
HETATM   20  O3  UNL     1     -11.898 -29.849 -30.373  1.00  0.00    -0.532 OA
HETATM   21  O4  UNL     1      -9.963 -29.411 -29.334  1.00  0.00    -0.532 OA
ENDBRANCH   9  19
TORSDOF 3
ENDMDL
MODEL 3
REMARK VINA RESULT: -7.239404291      1.619      4.308
REMARK  3 active torsions:
REMARK  status: ('A' for Active; 'I' for Inactive)
REMARK    1  A    between atoms: C1_2  and  C2_4 
REMARK    2  A    between atoms: C4_8  and  C5_9 
REMARK    3  A    between atoms: C7_15  and  N5_16 
ROOT
HETATM    1  C2  UNL     1     -11.939 -28.696 -27.516  1.00  0.00     0.172 A 
HETATM    2  N2  UNL     1     -12.504 -28.080 -26.469  1.00  0.00    -0.334 N 
ATOM      3  H2  UNL     1     -11.997 -27.614 -25.716  1.00  0.00     0.168 HD
HETATM    4  C3  UNL     1     -13.854 -28.171 -26.564  1.00  0.00     0.095 A 
HETATM    5  C4  UNL     1     -14.859 -27.703 -25.746  1.00  0.00     0.127 A 
HETATM    6  N4  UNL     1     -16.147 -27.918 -26.055  1.00  0.00    -0.357 N 
ATOM      7  H4  UNL     1     -16.881 -27.565 -25.442  1.00  0.00     0.165 HD
HETATM    8  C6  UNL     1     -16.469 -28.589 -27.158  1.00  0.00     0.127 A 
HETATM    9  C7  UNL     1     -15.482 -29.087 -28.024  1.00  0.00     0.147 A 
HETATM   10  C8  UNL     1     -14.159 -28.866 -27.708  1.00  0.00     0.098 A 
HETATM   11  N6  UNL     1     -12.965 -29.166 -28.257  1.00  0.00    -0.334 N 
ATOM     12  H6  UNL     1     -12.851 -29.685 -29.127  1.00  0.00     0.168 HD
ENDROOT
BRANCH   1  13
HETATM   13  C1  UNL     1     -10.538 -28.861 -27.852  1.00  0.00     0.298 C 
HETATM   14  N1  UNL     1     -10.056 -28.516 -29.149  1.00  0.00    -0.054 NA
HETATM   15  O1  UNL     1      -9.724 -29.314 -27.000  1.00  0.00    -0.268 OA
ENDBRANCH   1  13
BRANCH   5  16
HETATM   16  C5  UNL     1     -14.481 -26.972 -24.544  1.00  0.00     0.283 C 
HETATM   17  N3  UNL     1     -14.828 -27.477 -23.280  1.00  0.00    -0.056 NA
HETATM   18  O2  UNL     1     -13.853 -25.905 -24.670  1.00  0.00    -0.269 OA
ENDBRANCH   5  16
BRANCH   9  19
HETATM   19  N5  UNL     1     -15.814 -29.790 -29.187  1.00  0.00    -0.112 N 
HETATM   20  O3  UNL     1     -17.010 -29.971 -29.486  1.00  0.00    -0.532 OA
HETATM   21  O4  UNL     1     -14.854 -30.287 -30.005  1.00  0.00    -0.532 OA
ENDBRANCH   9  19
TORSDOF 3
ENDMDL
MODEL 4
REMARK VINA RESULT: -7.187575230      2.392      4.740
REMARK  3 active torsions:
REMARK  status: ('A' for Active; 'I' for Inactive)
REMARK    1  A    between atoms: C1_2  and  C2_4 
REMARK    2  A    between atoms: C4_8  and  C5_9 
REMARK    3  A    between atoms: C7_15  and  N5_16 
ROOT
HETATM    1  C2  UNL     1     -10.070 -29.859 -26.881  1.00  0.00     0.172 A 
HETATM    2  N2  UNL     1     -11.075 -29.157 -26.339  1.00  0.00    -0.334 N 
ATOM      3  H2  UNL     1     -11.043 -28.689 -25.434  1.00  0.00     0.168 HD
HETATM    4  C3  UNL     1     -12.139 -29.166 -27.179  1.00  0.00     0.095 A 
HETATM    5  C4  UNL     1     -13.388 -28.594 -27.074  1.00  0.00     0.127 A 
HETATM    6  N4  UNL     1     -14.291 -28.741 -28.055  1.00  0.00    -0.357 N 
ATOM      7  H4  UNL     1     -15.212 -28.313 -27.966  1.00  0.00     0.165 HD
HETATM    8  C6  UNL     1     -13.990 -29.444 -29.145  1.00  0.00     0.127 A 
HETATM    9  C7  UNL     1     -12.731 -30.047 -29.300  1.00  0.00     0.147 A 
HETATM   10  C8  UNL     1     -11.802 -29.896 -28.292  1.00  0.00     0.098 A 
HETATM   11  N6  UNL     1     -10.536 -30.298 -28.070  1.00  0.00    -0.334 N 
ATOM     12  H6  UNL     1      -9.994 -30.866 -28.722  1.00  0.00     0.168 HD
ENDROOT
BRANCH   1  13
HETATM   13  C1  UNL     1      -8.742 -30.130 -26.366  1.00  0.00     0.298 C 
HETATM   14  N1  UNL     1      -8.047 -31.319 -26.738  1.00  0.00    -0.054 NA
HETATM   15  O1  UNL     1      -8.182 -29.318 -25.579  1.00  0.00    -0.268 OA
ENDBRANCH   1  13
BRANCH   5  16
HETATM   16  C5  UNL     1     -13.694 -27.831 -25.872  1.00  0.00     0.283 C 
HETATM   17  N3  UNL     1     -14.603 -28.342 -24.931  1.00  0.00    -0.056 NA
HETATM   18  O2  UNL     1     -13.136 -26.731 -25.708  1.00  0.00    -0.269 OA
ENDBRANCH   5  16
BRANCH   9  19
HETATM   19  N5  UNL     1     -12.407 -30.783 -30.443  1.00  0.00    -0.112 N 
HETATM   20  O3  UNL     1     -13.101 -31.765 -30.770  1.00  0.00    -0.532 OA
HETATM   21  O4  UNL     1     -11.342 -30.451 -31.214  1.00  0.00    -0.532 OA
ENDBRANCH   9  19
TORSDOF 3
ENDMDL
MODEL 5
REMARK VINA RESULT: -7.079298272      1.686      4.354
REMARK  3 active torsions:
REMARK  status: ('A' for Active; 'I' for Inactive)
REMARK    1  A    between atoms: C1_2  and  C2_4 
REMARK    2  A    between atoms: C4_8  and  C5_9 
REMARK    3  A    between atoms: C7_15  and  N5_16 
ROOT
HETATM    1  C2  UNL     1     -11.862 -28.492 -27.393  1.00  0.00     0.172 A 
HETATM    2  N2  UNL     1     -12.326 -27.590 -26.517  1.00  0.00    -0.334 N 
ATOM      3  H2  UNL     1     -11.751 -26.940 -25.982  1.00  0.00     0.168 HD
HETATM    4  C3  UNL     1     -13.678 -27.676 -26.452  1.00  0.00     0.095 A 
HETATM    5  C4  UNL     1     -14.601 -26.972 -25.711  1.00  0.00     0.127 A 
HETATM    6  N4  UNL     1     -15.911 -27.239 -25.820  1.00  0.00    -0.357 N 
ATOM      7  H4  UNL     1     -16.585 -26.710 -25.266  1.00  0.00     0.165 HD
HETATM    8  C6  UNL     1     -16.335 -28.191 -26.647  1.00  0.00     0.127 A 
HETATM    9  C7  UNL     1     -15.434 -28.937 -27.425  1.00  0.00     0.147 A 
HETATM   10  C8  UNL     1     -14.088 -28.663 -27.314  1.00  0.00     0.098 A 
HETATM   11  N6  UNL     1     -12.952 -29.132 -27.866  1.00  0.00    -0.334 N 
ATOM     12  H6  UNL     1     -12.920 -29.882 -28.557  1.00  0.00     0.168 HD
ENDROOT
BRANCH   1  13
HETATM   13  C1  UNL     1     -10.499 -28.776 -27.800  1.00  0.00     0.298 C 
HETATM   14  N1  UNL     1     -10.063 -28.492 -29.128  1.00  0.00    -0.054 NA
HETATM   15  O1  UNL     1      -9.679 -29.281 -26.984  1.00  0.00    -0.268 OA
ENDBRANCH   1  13
BRANCH   5  16
HETATM   16  C5  UNL     1     -14.112 -25.936 -24.811  1.00  0.00     0.283 C 
HETATM   17  N3  UNL     1     -13.763 -24.674 -25.320  1.00  0.00    -0.056 NA
HETATM   18  O2  UNL     1     -14.016 -26.198 -23.599  1.00  0.00    -0.269 OA
ENDBRANCH   5  16
BRANCH   9  19
HETATM   19  N5  UNL     1     -15.874 -29.936 -28.299  1.00  0.00    -0.112 N 
HETATM   20  O3  UNL     1     -15.461 -29.962 -29.475  1.00  0.00    -0.532 OA
HETATM   21  O4  UNL     1     -16.749 -30.888 -27.893  1.00  0.00    -0.532 OA
ENDBRANCH   9  19
TORSDOF 3
ENDMDL
