MODEL 1
REMARK VINA RESULT: -7.254672628      0.000      0.000
REMARK  5 active torsions:
REMARK  status: ('A' for Active; 'I' for Inactive)
REMARK    1  A    between atoms: N1_1  and  S1_4 
REMARK    2  A    between atoms: S1_4  and  C1_7 
REMARK    3  A    between atoms: C4_10  and  N2_11 
REMARK    4  A    between atoms: N2_11  and  N3_13 
REMARK    5  A    between atoms: N3_13  and  C5_15 
ROOT
HETATM    1  C1  UNL     1     -14.525 -29.427 -28.471  1.00  0.00     0.079 A 
HETATM    2  C2  UNL     1     -13.778 -28.693 -27.578  1.00  0.00     0.027 A 
HETATM    3  C3  UNL     1     -12.450 -28.485 -27.892  1.00  0.00     0.032 A 
HETATM    4  C4  UNL     1     -11.878 -28.981 -29.041  1.00  0.00     0.048 A 
HETATM    5  C7  UNL     1     -12.636 -29.707 -29.915  1.00  0.00     0.032 A 
HETATM    6  C8  UNL     1     -13.973 -29.931 -29.624  1.00  0.00     0.027 A 
ENDROOT
BRANCH   4   7
HETATM    7  N2  UNL     1     -10.510 -28.746 -29.328  1.00  0.00    -0.298 N 
ATOM      8  H2  UNL     1     -10.165 -28.816 -30.285  1.00  0.00     0.187 HD
BRANCH   7   9
HETATM    9  N3  UNL     1      -9.642 -28.419 -28.297  1.00  0.00    -0.270 N 
ATOM     10  H3  UNL     1      -9.360 -27.449 -28.156  1.00  0.00     0.190 HD
BRANCH   9  11
HETATM   11  C5  UNL     1      -9.141 -29.449 -27.424  1.00  0.00     0.200 A 
HETATM   12  N4  UNL     1      -9.105 -30.700 -27.490  1.00  0.00    -0.323 N 
HETATM   13  C6  UNL     1      -8.465 -30.850 -26.250  1.00  0.00     0.186 A 
ATOM     14  H4  UNL     1      -9.425 -31.368 -28.192  1.00  0.00     0.169 HD
HETATM   15  N5  UNL     1      -8.507 -29.431 -26.177  1.00  0.00    -0.323 N 
ATOM     16  H5  UNL     1      -8.208 -28.717 -25.513  1.00  0.00     0.169 HD
ENDBRANCH   9  11
ENDBRANCH   7   9
ENDBRANCH   4   7
BRANCH   1  17
HETATM   17  S1  UNL     1     -16.217 -29.700 -28.086  1.00  0.00     0.256 S 
HETATM   18  O1  UNL     1     -16.286 -30.976 -27.296  1.00  0.00    -0.201 OA
HETATM   19  O2  UNL     1     -17.033 -29.782 -29.341  1.00  0.00    -0.201 OA
BRANCH  17  20
HETATM   20  N1  UNL     1     -16.732 -28.370 -27.084  1.00  0.00    -0.324 N 
ATOM     21  H12 UNL     1     -16.099 -27.728 -26.606  1.00  0.00     0.169 HD
ATOM     22  H11 UNL     1     -17.751 -28.342 -27.055  1.00  0.00     0.169 HD
ENDBRANCH  17  20
ENDBRANCH   1  17
TORSDOF 5
ENDMDL
MODEL 2
REMARK VINA RESULT: -7.182147001      1.724      2.315
REMARK  5 active torsions:
REMARK  status: ('A' for Active; 'I' for Inactive)
REMARK    1  A    between atoms: N1_1  and  S1_4 
REMARK    2  A    between atoms: S1_4  and  C1_7 
REMARK    3  A    between atoms: C4_10  and  N2_11 
REMARK    4  A    between atoms: N2_11  and  N3_13 
REMARK    5  A    between atoms: N3_13  and  C5_15 
ROOT
HETATM    1  C1  UNL     1     -14.354 -28.285 -26.894  1.00  0.00     0.079 A 
HETATM    2  C2  UNL     1     -14.314 -29.100 -28.002  1.00  0.00     0.027 A 
HETATM    3  C3  UNL     1     -13.112 -29.188 -28.675  1.00  0.00     0.032 A 
HETATM    4  C4  UNL     1     -11.991 -28.498 -28.273  1.00  0.00     0.048 A 
HETATM    5  C7  UNL     1     -12.051 -27.694 -27.170  1.00  0.00     0.032 A 
HETATM    6  C8  UNL     1     -13.245 -27.588 -26.476  1.00  0.00     0.027 A 
ENDROOT
BRANCH   4   7
HETATM    7  N2  UNL     1     -10.774 -28.614 -28.991  1.00  0.00    -0.298 N 
ATOM      8  H2  UNL     1     -10.785 -28.810 -29.992  1.00  0.00     0.187 HD
BRANCH   7   9
HETATM    9  N3  UNL     1      -9.569 -28.459 -28.323  1.00  0.00    -0.270 N 
ATOM     10  H3  UNL     1      -9.009 -27.619 -28.470  1.00  0.00     0.190 HD
BRANCH   9  11
HETATM   11  C5  UNL     1      -9.109 -29.483 -27.422  1.00  0.00     0.200 A 
HETATM   12  N4  UNL     1      -9.085 -30.735 -27.472  1.00  0.00    -0.323 N 
HETATM   13  C6  UNL     1      -8.487 -30.877 -26.209  1.00  0.00     0.186 A 
ATOM     14  H4  UNL     1      -9.389 -31.408 -28.175  1.00  0.00     0.169 HD
HETATM   15  N5  UNL     1      -8.515 -29.456 -26.155  1.00  0.00    -0.323 N 
ATOM     16  H5  UNL     1      -8.230 -28.737 -25.490  1.00  0.00     0.169 HD
ENDBRANCH   9  11
ENDBRANCH   7   9
ENDBRANCH   4   7
BRANCH   1  17
HETATM   17  S1  UNL     1     -15.877 -28.164 -26.026  1.00  0.00     0.256 S 
HETATM   18  O1  UNL     1     -16.115 -26.705 -25.762  1.00  0.00    -0.201 OA
HETATM   19  O2  UNL     1     -15.818 -28.955 -24.755  1.00  0.00    -0.201 OA
BRANCH  17  20
HETATM   20  N1  UNL     1     -17.117 -28.770 -27.091  1.00  0.00    -0.324 N 
ATOM     21  H12 UNL     1     -18.086 -28.450 -27.090  1.00  0.00     0.169 HD
ATOM     22  H11 UNL     1     -16.721 -29.485 -27.702  1.00  0.00     0.169 HD
ENDBRANCH  17  20
ENDBRANCH   1  17
TORSDOF 5
ENDMDL
MODEL 3
REMARK VINA RESULT: -7.164855179      1.758      2.062
REMARK  5 active torsions:
REMARK  status: ('A' for Active; 'I' for Inactive)
REMARK    1  A    between atoms: N1_1  and  S1_4 
REMARK    2  A    between atoms: S1_4  and  C1_7 
REMARK    3  A    between atoms: C4_10  and  N2_11 
REMARK    4  A    between atoms: N2_11  and  N3_13 
REMARK    5  A    between atoms: N3_13  and  C5_15 
ROOT
HETATM    1  C1  UNL     1     -14.405 -28.283 -26.854  1.00  0.00     0.079 A 
HETATM    2  C2  UNL     1     -13.328 -27.534 -26.438  1.00  0.00     0.027 A 
HETATM    3  C3  UNL     1     -12.160 -27.657 -27.162  1.00  0.00     0.032 A 
HETATM    4  C4  UNL     1     -12.053 -28.488 -28.254  1.00  0.00     0.048 A 
HETATM    5  C7  UNL     1     -13.133 -29.224 -28.651  1.00  0.00     0.032 A 
HETATM    6  C8  UNL     1     -14.319 -29.119 -27.942  1.00  0.00     0.027 A 
ENDROOT
BRANCH   4   7
HETATM    7  N2  UNL     1     -10.834 -28.587 -28.971  1.00  0.00    -0.298 N 
ATOM      8  H2  UNL     1     -10.842 -28.775 -29.974  1.00  0.00     0.187 HD
BRANCH   7   9
HETATM    9  N3  UNL     1      -9.632 -28.427 -28.300  1.00  0.00    -0.270 N 
ATOM     10  H3  UNL     1      -9.082 -27.579 -28.434  1.00  0.00     0.190 HD
BRANCH   9  11
HETATM   11  C5  UNL     1      -9.161 -29.458 -27.412  1.00  0.00     0.200 A 
HETATM   12  N4  UNL     1      -9.161 -30.711 -27.460  1.00  0.00    -0.323 N 
HETATM   13  C6  UNL     1      -8.525 -30.861 -26.218  1.00  0.00     0.186 A 
ATOM     14  H4  UNL     1      -9.502 -31.379 -28.150  1.00  0.00     0.169 HD
HETATM   15  N5  UNL     1      -8.524 -29.440 -26.166  1.00  0.00    -0.323 N 
ATOM     16  H5  UNL     1      -8.203 -28.725 -25.513  1.00  0.00     0.169 HD
ENDBRANCH   9  11
ENDBRANCH   7   9
ENDBRANCH   4   7
BRANCH   1  17
HETATM   17  S1  UNL     1     -15.900 -28.137 -25.943  1.00  0.00     0.256 S 
HETATM   18  O1  UNL     1     -16.153 -26.669 -25.750  1.00  0.00    -0.201 OA
HETATM   19  O2  UNL     1     -15.786 -28.856 -24.633  1.00  0.00    -0.201 OA
BRANCH  17  20
HETATM   20  N1  UNL     1     -17.166 -28.818 -26.930  1.00  0.00    -0.324 N 
ATOM     21  H12 UNL     1     -17.749 -28.282 -27.572  1.00  0.00     0.169 HD
ATOM     22  H11 UNL     1     -17.224 -29.823 -26.760  1.00  0.00     0.169 HD
ENDBRANCH  17  20
ENDBRANCH   1  17
TORSDOF 5
ENDMDL
MODEL 4
REMARK VINA RESULT: -7.082876616      1.387      1.507
REMARK  5 active torsions:
REMARK  status: ('A' for Active; 'I' for Inactive)
REMARK    1  A    between atoms: N1_1  and  S1_4 
REMARK    2  A    between atoms: S1_4  and  C1_7 
REMARK    3  A    between atoms: C4_10  and  N2_11 
REMARK    4  A    between atoms: N2_11  and  N3_13 
REMARK    5  A    between atoms: N3_13  and  C5_15 
ROOT
HETATM    1  C1  UNL     1     -14.459 -28.623 -27.434  1.00  0.00     0.079 A 
HETATM    2  C2  UNL     1     -13.458 -27.888 -26.841  1.00  0.00     0.027 A 
HETATM    3  C3  UNL     1     -12.209 -27.943 -27.426  1.00  0.00     0.032 A 
HETATM    4  C4  UNL     1     -11.954 -28.694 -28.551  1.00  0.00     0.048 A 
HETATM    5  C7  UNL     1     -12.961 -29.416 -29.124  1.00  0.00     0.032 A 
HETATM    6  C8  UNL     1     -14.225 -29.379 -28.558  1.00  0.00     0.027 A 
ENDROOT
BRANCH   4   7
HETATM    7  N2  UNL     1     -10.656 -28.725 -29.121  1.00  0.00    -0.298 N 
ATOM      8  H2  UNL     1     -10.535 -28.928 -30.113  1.00  0.00     0.187 HD
BRANCH   7   9
HETATM    9  N3  UNL     1      -9.552 -28.478 -28.319  1.00  0.00    -0.270 N 
ATOM     10  H3  UNL     1      -9.068 -27.582 -28.380  1.00  0.00     0.190 HD
BRANCH   9  11
HETATM   11  C5  UNL     1      -9.089 -29.486 -27.401  1.00  0.00     0.200 A 
HETATM   12  N4  UNL     1      -9.073 -30.739 -27.424  1.00  0.00    -0.323 N 
HETATM   13  C6  UNL     1      -8.465 -30.857 -26.165  1.00  0.00     0.186 A 
ATOM     14  H4  UNL     1      -9.388 -31.425 -28.110  1.00  0.00     0.169 HD
HETATM   15  N5  UNL     1      -8.483 -29.436 -26.141  1.00  0.00    -0.323 N 
ATOM     16  H5  UNL     1      -8.187 -28.705 -25.494  1.00  0.00     0.169 HD
ENDBRANCH   9  11
ENDBRANCH   7   9
ENDBRANCH   4   7
BRANCH   1  17
HETATM   17  S1  UNL     1     -16.055 -28.562 -26.702  1.00  0.00     0.256 S 
HETATM   18  O1  UNL     1     -17.035 -29.009 -27.750  1.00  0.00    -0.201 OA
HETATM   19  O2  UNL     1     -16.356 -27.176 -26.218  1.00  0.00    -0.201 OA
BRANCH  17  20
HETATM   20  N1  UNL     1     -16.055 -29.705 -25.386  1.00  0.00    -0.324 N 
ATOM     21  H12 UNL     1     -16.408 -30.660 -25.449  1.00  0.00     0.169 HD
ATOM     22  H11 UNL     1     -15.651 -29.267 -24.557  1.00  0.00     0.169 HD
ENDBRANCH  17  20
ENDBRANCH   1  17
TORSDOF 5
ENDMDL
MODEL 5
REMARK VINA RESULT: -7.082098774      1.902      2.095
REMARK  5 active torsions:
REMARK  status: ('A' for Active; 'I' for Inactive)
REMARK    1  A    between atoms: N1_1  and  S1_4 
REMARK    2  A    between atoms: S1_4  and  C1_7 
REMARK    3  A    between atoms: C4_10  and  N2_11 
REMARK    4  A    between atoms: N2_11  and  N3_13 
REMARK    5  A    between atoms: N3_13  and  C5_15 
ROOT
HETATM    1  C1  UNL     1     -14.228 -28.165 -26.454  1.00  0.00     0.079 A 
HETATM    2  C2  UNL     1     -13.144 -27.356 -26.197  1.00  0.00     0.027 A 
HETATM    3  C3  UNL     1     -12.056 -27.479 -27.036  1.00  0.00     0.032 A 
HETATM    4  C4  UNL     1     -12.033 -28.365 -28.090  1.00  0.00     0.048 A 
HETATM    5  C7  UNL     1     -13.119 -29.159 -28.328  1.00  0.00     0.032 A 
HETATM    6  C8  UNL     1     -14.225 -29.056 -27.501  1.00  0.00     0.027 A 
ENDROOT
BRANCH   4   7
HETATM    7  N2  UNL     1     -10.895 -28.461 -28.930  1.00  0.00    -0.298 N 
ATOM      8  H2  UNL     1     -11.008 -28.586 -29.935  1.00  0.00     0.187 HD
BRANCH   7   9
HETATM    9  N3  UNL     1      -9.628 -28.385 -28.373  1.00  0.00    -0.270 N 
ATOM     10  H3  UNL     1      -9.022 -27.594 -28.591  1.00  0.00     0.190 HD
BRANCH   9  11
HETATM   11  C5  UNL     1      -9.167 -29.422 -27.487  1.00  0.00     0.200 A 
HETATM   12  N4  UNL     1      -9.165 -30.674 -27.544  1.00  0.00    -0.323 N 
HETATM   13  C6  UNL     1      -8.546 -30.833 -26.294  1.00  0.00     0.186 A 
ATOM     14  H4  UNL     1      -9.494 -31.338 -28.244  1.00  0.00     0.169 HD
HETATM   15  N5  UNL     1      -8.548 -29.412 -26.232  1.00  0.00    -0.323 N 
ATOM     16  H5  UNL     1      -8.238 -28.702 -25.568  1.00  0.00     0.169 HD
ENDBRANCH   9  11
ENDBRANCH   7   9
ENDBRANCH   4   7
BRANCH   1  17
HETATM   17  S1  UNL     1     -15.622 -28.020 -25.394  1.00  0.00     0.256 S 
HETATM   18  O1  UNL     1     -15.948 -29.403 -24.908  1.00  0.00    -0.201 OA
HETATM   19  O2  UNL     1     -16.775 -27.404 -26.128  1.00  0.00    -0.201 OA
BRANCH  17  20
HETATM   20  N1  UNL     1     -15.133 -27.032 -24.044  1.00  0.00    -0.324 N 
ATOM     21  H12 UNL     1     -15.735 -26.791 -23.256  1.00  0.00     0.169 HD
ATOM     22  H11 UNL     1     -14.164 -26.739 -24.171  1.00  0.00     0.169 HD
ENDBRANCH  17  20
ENDBRANCH   1  17
TORSDOF 5
ENDMDL
