MODEL 1
REMARK VINA RESULT: -7.666766567      0.000      0.000
REMARK  4 active torsions:
REMARK  status: ('A' for Active; 'I' for Inactive)
REMARK    1  A    between atoms: C2_3  and  N2_4 
REMARK    2  A    between atoms: N2_4  and  C3_6 
REMARK    3  A    between atoms: C3_6  and  N3_7 
REMARK    4  A    between atoms: N3_7  and  O1_9 
ROOT
HETATM    1  N1  UNL     1     -13.273 -29.543 -28.913  1.00  0.00    -0.092 NA
HETATM    2  C1  UNL     1     -13.761 -28.954 -27.705  1.00  0.00     0.158 A 
HETATM    3  C2  UNL     1     -12.838 -28.539 -26.765  1.00  0.00     0.137 A 
HETATM    4  N4  UNL     1     -13.347 -27.992 -25.649  1.00  0.00    -0.293 N 
ATOM      5  H4  UNL     1     -12.701 -27.671 -24.929  1.00  0.00     0.172 HD
HETATM    6  C8  UNL     1     -14.665 -27.850 -25.438  1.00  0.00     0.328 A 
HETATM    7  O2  UNL     1     -15.088 -27.329 -24.369  1.00  0.00    -0.247 OA
HETATM    8  N5  UNL     1     -15.563 -28.255 -26.355  1.00  0.00    -0.274 N 
ATOM      9  H5  UNL     1     -16.564 -28.144 -26.188  1.00  0.00     0.173 HD
HETATM   10  C9  UNL     1     -15.117 -28.810 -27.494  1.00  0.00     0.277 A 
HETATM   11  O3  UNL     1     -15.950 -29.188 -28.348  1.00  0.00    -0.266 OA
ENDROOT
BRANCH   3  12
HETATM   12  N2  UNL     1     -11.457 -28.665 -26.944  1.00  0.00    -0.346 N 
ATOM     13  H2  UNL     1     -10.913 -27.801 -26.929  1.00  0.00     0.163 HD
BRANCH  12  14
HETATM   14  C3  UNL     1     -10.731 -29.872 -27.143  1.00  0.00     0.133 A 
HETATM   15  C4  UNL     1      -9.807 -29.887 -28.383  1.00  0.00     0.070 A 
HETATM   16  C5  UNL     1      -9.315 -30.051 -27.067  1.00  0.00     0.010 A 
HETATM   17  C6  UNL     1      -8.485 -31.027 -26.443  1.00  0.00     0.015 A 
HETATM   18  C7  UNL     1      -8.291 -29.486 -26.279  1.00  0.00     0.015 A 
BRANCH  14  19
HETATM   19  N3  UNL     1     -11.544 -31.064 -26.938  1.00  0.00    -0.275 N 
ATOM     20  H3  UNL     1     -12.014 -31.533 -27.712  1.00  0.00     0.190 HD
BRANCH  19  21
HETATM   21  O1  UNL     1     -11.629 -31.457 -25.832  1.00  0.00    -0.292 OA
ATOM     22  H1  UNL     1     -12.500 -31.683 -25.528  1.00  0.00     0.244 HD
ENDBRANCH  19  21
ENDBRANCH  14  19
ENDBRANCH  12  14
ENDBRANCH   3  12
TORSDOF 4
ENDMDL
MODEL 2
REMARK VINA RESULT: -7.449030344      2.120      5.242
REMARK  4 active torsions:
REMARK  status: ('A' for Active; 'I' for Inactive)
REMARK    1  A    between atoms: C2_3  and  N2_4 
REMARK    2  A    between atoms: N2_4  and  C3_6 
REMARK    3  A    between atoms: C3_6  and  N3_7 
REMARK    4  A    between atoms: N3_7  and  O1_9 
ROOT
HETATM    1  N1  UNL     1     -13.042 -29.905 -29.506  1.00  0.00    -0.092 NA
HETATM    2  C1  UNL     1     -11.927 -29.764 -28.621  1.00  0.00     0.158 A 
HETATM    3  C2  UNL     1     -12.178 -29.724 -27.264  1.00  0.00     0.137 A 
HETATM    4  N4  UNL     1     -11.099 -29.592 -26.475  1.00  0.00    -0.293 N 
ATOM      5  H4  UNL     1     -11.237 -29.559 -25.466  1.00  0.00     0.172 HD
HETATM    6  C8  UNL     1      -9.848 -29.502 -26.953  1.00  0.00     0.328 A 
HETATM    7  O2  UNL     1      -8.870 -29.378 -26.166  1.00  0.00    -0.247 OA
HETATM    8  N5  UNL     1      -9.606 -29.541 -28.278  1.00  0.00    -0.274 N 
ATOM      9  H5  UNL     1      -8.653 -29.472 -28.635  1.00  0.00     0.173 HD
HETATM   10  C9  UNL     1     -10.644 -29.673 -29.119  1.00  0.00     0.277 A 
HETATM   11  O3  UNL     1     -10.422 -29.710 -30.351  1.00  0.00    -0.266 OA
ENDROOT
BRANCH   3  12
HETATM   12  N2  UNL     1     -13.463 -29.817 -26.721  1.00  0.00    -0.346 N 
ATOM     13  H2  UNL     1     -13.781 -30.750 -26.457  1.00  0.00     0.163 HD
BRANCH  12  14
HETATM   14  C3  UNL     1     -14.373 -28.747 -26.498  1.00  0.00     0.133 A 
HETATM   15  C4  UNL     1     -15.617 -28.739 -27.416  1.00  0.00     0.070 A 
HETATM   16  C5  UNL     1     -15.712 -28.838 -26.008  1.00  0.00     0.010 A 
HETATM   17  C6  UNL     1     -16.443 -28.119 -25.019  1.00  0.00     0.015 A 
HETATM   18  C7  UNL     1     -16.368 -29.677 -25.083  1.00  0.00     0.015 A 
BRANCH  14  19
HETATM   19  N3  UNL     1     -13.705 -27.463 -26.315  1.00  0.00    -0.275 N 
ATOM     20  H3  UNL     1     -13.752 -26.728 -27.021  1.00  0.00     0.190 HD
BRANCH  19  21
HETATM   21  O1  UNL     1     -13.111 -27.320 -25.309  1.00  0.00    -0.292 OA
ATOM     22  H1  UNL     1     -13.376 -26.591 -24.761  1.00  0.00     0.244 HD
ENDBRANCH  19  21
ENDBRANCH  14  19
ENDBRANCH  12  14
ENDBRANCH   3  12
TORSDOF 4
ENDMDL
MODEL 3
REMARK VINA RESULT: -7.342756714      2.017      5.007
REMARK  4 active torsions:
REMARK  status: ('A' for Active; 'I' for Inactive)
REMARK    1  A    between atoms: C2_3  and  N2_4 
REMARK    2  A    between atoms: N2_4  and  C3_6 
REMARK    3  A    between atoms: C3_6  and  N3_7 
REMARK    4  A    between atoms: N3_7  and  O1_9 
ROOT
HETATM    1  N1  UNL     1     -12.986 -30.057 -29.580  1.00  0.00    -0.092 NA
HETATM    2  C1  UNL     1     -11.944 -29.785 -28.640  1.00  0.00     0.158 A 
HETATM    3  C2  UNL     1     -12.257 -29.818 -27.296  1.00  0.00     0.137 A 
HETATM    4  N4  UNL     1     -11.245 -29.556 -26.454  1.00  0.00    -0.293 N 
ATOM      5  H4  UNL     1     -11.430 -29.571 -25.452  1.00  0.00     0.172 HD
HETATM    6  C8  UNL     1      -9.999 -29.277 -26.869  1.00  0.00     0.328 A 
HETATM    7  O2  UNL     1      -9.084 -29.038 -26.033  1.00  0.00    -0.247 OA
HETATM    8  N5  UNL     1      -9.695 -29.246 -28.181  1.00  0.00    -0.274 N 
ATOM      9  H5  UNL     1      -8.747 -29.033 -28.491  1.00  0.00     0.173 HD
HETATM   10  C9  UNL     1     -10.666 -29.500 -29.074  1.00  0.00     0.277 A 
HETATM   11  O3  UNL     1     -10.387 -29.471 -30.294  1.00  0.00    -0.266 OA
ENDROOT
BRANCH   3  12
HETATM   12  N2  UNL     1     -13.539 -30.106 -26.817  1.00  0.00    -0.346 N 
ATOM     13  H2  UNL     1     -13.709 -31.066 -26.513  1.00  0.00     0.163 HD
BRANCH  12  14
HETATM   14  C3  UNL     1     -14.631 -29.201 -26.708  1.00  0.00     0.133 A 
HETATM   15  C4  UNL     1     -15.539 -29.410 -25.473  1.00  0.00     0.070 A 
HETATM   16  C5  UNL     1     -14.832 -28.206 -25.702  1.00  0.00     0.010 A 
HETATM   17  C6  UNL     1     -15.216 -26.835 -25.747  1.00  0.00     0.015 A 
HETATM   18  C7  UNL     1     -13.974 -27.365 -24.963  1.00  0.00     0.015 A 
BRANCH  14  19
HETATM   19  N3  UNL     1     -15.317 -28.985 -27.976  1.00  0.00    -0.275 N 
ATOM     20  H3  UNL     1     -15.534 -28.048 -28.316  1.00  0.00     0.190 HD
BRANCH  19  21
HETATM   21  O1  UNL     1     -15.608 -29.948 -28.587  1.00  0.00    -0.292 OA
ATOM     22  H1  UNL     1     -15.062 -30.155 -29.335  1.00  0.00     0.244 HD
ENDBRANCH  19  21
ENDBRANCH  14  19
ENDBRANCH  12  14
ENDBRANCH   3  12
TORSDOF 4
ENDMDL
MODEL 4
REMARK VINA RESULT: -7.210438294      2.497      5.677
REMARK  4 active torsions:
REMARK  status: ('A' for Active; 'I' for Inactive)
REMARK    1  A    between atoms: C2_3  and  N2_4 
REMARK    2  A    between atoms: N2_4  and  C3_6 
REMARK    3  A    between atoms: C3_6  and  N3_7 
REMARK    4  A    between atoms: N3_7  and  O1_9 
ROOT
HETATM    1  N1  UNL     1     -11.423 -27.774 -27.102  1.00  0.00    -0.092 NA
HETATM    2  C1  UNL     1     -11.622 -28.626 -28.232  1.00  0.00     0.158 A 
HETATM    3  C2  UNL     1     -12.917 -28.971 -28.565  1.00  0.00     0.137 A 
HETATM    4  N4  UNL     1     -13.052 -29.772 -29.635  1.00  0.00    -0.293 N 
ATOM      5  H4  UNL     1     -13.990 -30.050 -29.917  1.00  0.00     0.172 HD
HETATM    6  C8  UNL     1     -12.008 -30.223 -30.349  1.00  0.00     0.328 A 
HETATM    7  O2  UNL     1     -12.192 -30.974 -31.346  1.00  0.00    -0.247 OA
HETATM    8  N5  UNL     1     -10.746 -29.886 -30.022  1.00  0.00    -0.274 N 
ATOM      9  H5  UNL     1      -9.957 -30.232 -30.569  1.00  0.00     0.173 HD
HETATM   10  C9  UNL     1     -10.545 -29.086 -28.963  1.00  0.00     0.277 A 
HETATM   11  O3  UNL     1      -9.373 -28.771 -28.656  1.00  0.00    -0.266 OA
ENDROOT
BRANCH   3  12
HETATM   12  N2  UNL     1     -14.034 -28.523 -27.853  1.00  0.00    -0.346 N 
ATOM     13  H2  UNL     1     -14.070 -27.525 -27.640  1.00  0.00     0.163 HD
BRANCH  12  14
HETATM   14  C3  UNL     1     -15.124 -29.313 -27.394  1.00  0.00     0.133 A 
HETATM   15  C4  UNL     1     -16.462 -28.555 -27.227  1.00  0.00     0.070 A 
HETATM   16  C5  UNL     1     -16.312 -29.647 -28.114  1.00  0.00     0.010 A 
HETATM   17  C6  UNL     1     -17.030 -30.863 -28.304  1.00  0.00     0.015 A 
HETATM   18  C7  UNL     1     -16.602 -29.914 -29.468  1.00  0.00     0.015 A 
BRANCH  14  19
HETATM   19  N3  UNL     1     -14.757 -30.208 -26.304  1.00  0.00    -0.275 N 
ATOM     20  H3  UNL     1     -15.349 -30.324 -25.481  1.00  0.00     0.190 HD
BRANCH  19  21
HETATM   21  O1  UNL     1     -13.741 -30.790 -26.422  1.00  0.00    -0.292 OA
ATOM     22  H1  UNL     1     -12.964 -30.359 -26.088  1.00  0.00     0.244 HD
ENDBRANCH  19  21
ENDBRANCH  14  19
ENDBRANCH  12  14
ENDBRANCH   3  12
TORSDOF 4
ENDMDL
MODEL 5
REMARK VINA RESULT: -7.166449470      0.945      2.281
REMARK  4 active torsions:
REMARK  status: ('A' for Active; 'I' for Inactive)
REMARK    1  A    between atoms: C2_3  and  N2_4 
REMARK    2  A    between atoms: N2_4  and  C3_6 
REMARK    3  A    between atoms: C3_6  and  N3_7 
REMARK    4  A    between atoms: N3_7  and  O1_9 
ROOT
HETATM    1  N1  UNL     1     -13.488 -27.150 -25.452  1.00  0.00    -0.092 NA
HETATM    2  C1  UNL     1     -14.051 -27.946 -26.498  1.00  0.00     0.158 A 
HETATM    3  C2  UNL     1     -13.194 -28.710 -27.265  1.00  0.00     0.137 A 
HETATM    4  N4  UNL     1     -13.770 -29.440 -28.233  1.00  0.00    -0.293 N 
ATOM      5  H4  UNL     1     -13.175 -30.020 -28.823  1.00  0.00     0.172 HD
HETATM    6  C8  UNL     1     -15.094 -29.442 -28.461  1.00  0.00     0.328 A 
HETATM    7  O2  UNL     1     -15.583 -30.147 -29.386  1.00  0.00    -0.247 OA
HETATM    8  N5  UNL     1     -15.928 -28.696 -27.711  1.00  0.00    -0.274 N 
ATOM      9  H5  UNL     1     -16.933 -28.702 -27.889  1.00  0.00     0.173 HD
HETATM   10  C9  UNL     1     -15.412 -27.944 -26.726  1.00  0.00     0.277 A 
HETATM   11  O3  UNL     1     -16.185 -27.249 -26.028  1.00  0.00    -0.266 OA
ENDROOT
BRANCH   3  12
HETATM   12  N2  UNL     1     -11.810 -28.741 -27.063  1.00  0.00    -0.346 N 
ATOM     13  H2  UNL     1     -11.374 -27.873 -26.752  1.00  0.00     0.163 HD
BRANCH  12  14
HETATM   14  C3  UNL     1     -10.948 -29.857 -27.246  1.00  0.00     0.133 A 
HETATM   15  C4  UNL     1     -10.067 -29.807 -28.517  1.00  0.00     0.070 A 
HETATM   16  C5  UNL     1      -9.519 -29.860 -27.214  1.00  0.00     0.010 A 
HETATM   17  C6  UNL     1      -8.558 -30.703 -26.586  1.00  0.00     0.015 A 
HETATM   18  C7  UNL     1      -8.549 -29.146 -26.481  1.00  0.00     0.015 A 
BRANCH  14  19
HETATM   19  N3  UNL     1     -11.602 -31.131 -26.972  1.00  0.00    -0.275 N 
ATOM     20  H3  UNL     1     -11.967 -31.720 -27.721  1.00  0.00     0.190 HD
BRANCH  19  21
HETATM   21  O1  UNL     1     -11.687 -31.444 -25.841  1.00  0.00    -0.292 OA
ATOM     22  H1  UNL     1     -11.302 -32.279 -25.603  1.00  0.00     0.244 HD
ENDBRANCH  19  21
ENDBRANCH  14  19
ENDBRANCH  12  14
ENDBRANCH   3  12
TORSDOF 4
ENDMDL
