MODEL 1
REMARK VINA RESULT: -5.680144117      0.000      0.000
REMARK  7 active torsions:
REMARK  status: ('A' for Active; 'I' for Inactive)
REMARK    1  A    between atoms: N1_1  and  O1_4 
REMARK    2  A    between atoms: O1_4  and  N2_5 
REMARK    3  A    between atoms: N2_5  and  C1_7 
REMARK    4  A    between atoms: C1_7  and  N3_9 
REMARK    5  A    between atoms: N3_9  and  C2_11 
REMARK    6  A    between atoms: C2_11  and  N4_13 
REMARK    7  A    between atoms: N4_13  and  N5_15 
ROOT
HETATM    1  N3  UNL     1     -11.648 -29.658 -26.386  1.00  0.00    -0.308 N 
ATOM      2  H3  UNL     1     -11.592 -30.452 -25.748  1.00  0.00     0.170 HD
ENDROOT
BRANCH   1   3
HETATM    3  C1  UNL     1     -10.430 -29.308 -26.983  1.00  0.00     0.200 C 
HETATM    4  S1  UNL     1     -10.141 -29.144 -28.574  1.00  0.00    -0.039 SA
BRANCH   3   5
HETATM    5  N2  UNL     1      -9.287 -29.058 -26.142  1.00  0.00    -0.216 N 
ATOM      6  H2  UNL     1      -9.277 -28.282 -25.480  1.00  0.00     0.199 HD
BRANCH   5   7
HETATM    7  O1  UNL     1      -8.227 -29.893 -26.265  1.00  0.00    -0.162 OA
BRANCH   7   8
HETATM    8  N1  UNL     1      -8.556 -31.074 -25.701  1.00  0.00    -0.286 N 
ATOM      9  H12 UNL     1      -8.964 -31.189 -24.774  1.00  0.00     0.186 HD
ATOM     10  H11 UNL     1      -8.324 -31.816 -26.362  1.00  0.00     0.186 HD
ENDBRANCH   7   8
ENDBRANCH   5   7
ENDBRANCH   3   5
ENDBRANCH   1   3
BRANCH   1  11
HETATM   11  C2  UNL     1     -12.916 -29.113 -26.511  1.00  0.00     0.188 C 
HETATM   12  S2  UNL     1     -13.053 -27.453 -26.367  1.00  0.00    -0.040 SA
BRANCH  11  13
HETATM   13  N4  UNL     1     -14.120 -29.782 -26.747  1.00  0.00    -0.295 N 
ATOM     14  H4  UNL     1     -14.279 -30.687 -26.306  1.00  0.00     0.183 HD
BRANCH  13  15
HETATM   15  N5  UNL     1     -15.135 -29.234 -27.590  1.00  0.00    -0.229 NA
HETATM   16  C3  UNL     1     -16.407 -29.783 -27.199  1.00  0.00     0.113 C 
HETATM   17  C4  UNL     1     -17.201 -29.701 -28.478  1.00  0.00     0.017 C 
HETATM   18  C5  UNL     1     -16.206 -30.048 -29.550  1.00  0.00     0.017 C 
HETATM   19  C6  UNL     1     -14.910 -29.588 -28.972  1.00  0.00     0.113 C 
ENDBRANCH  13  15
ENDBRANCH  11  13
ENDBRANCH   1  11
TORSDOF 7
ENDMDL
MODEL 2
REMARK VINA RESULT: -5.661640282      2.743      3.600
REMARK  7 active torsions:
REMARK  status: ('A' for Active; 'I' for Inactive)
REMARK    1  A    between atoms: N1_1  and  O1_4 
REMARK    2  A    between atoms: O1_4  and  N2_5 
REMARK    3  A    between atoms: N2_5  and  C1_7 
REMARK    4  A    between atoms: C1_7  and  N3_9 
REMARK    5  A    between atoms: N3_9  and  C2_11 
REMARK    6  A    between atoms: C2_11  and  N4_13 
REMARK    7  A    between atoms: N4_13  and  N5_15 
ROOT
HETATM    1  N3  UNL     1     -11.745 -29.165 -26.498  1.00  0.00    -0.308 N 
ATOM      2  H3  UNL     1     -11.917 -29.970 -25.897  1.00  0.00     0.170 HD
ENDROOT
BRANCH   1   3
HETATM    3  C1  UNL     1     -10.459 -29.117 -27.049  1.00  0.00     0.200 C 
HETATM    4  S1  UNL     1     -10.075 -29.176 -28.628  1.00  0.00    -0.039 SA
BRANCH   3   5
HETATM    5  N2  UNL     1      -9.325 -29.005 -26.166  1.00  0.00    -0.216 N 
ATOM      6  H2  UNL     1      -9.296 -28.301 -25.429  1.00  0.00     0.199 HD
BRANCH   5   7
HETATM    7  O1  UNL     1      -8.300 -29.872 -26.353  1.00  0.00    -0.162 OA
BRANCH   7   8
HETATM    8  N1  UNL     1      -8.605 -31.025 -25.721  1.00  0.00    -0.286 N 
ATOM      9  H12 UNL     1      -7.938 -31.622 -25.233  1.00  0.00     0.186 HD
ATOM     10  H11 UNL     1      -9.608 -31.186 -25.822  1.00  0.00     0.186 HD
ENDBRANCH   7   8
ENDBRANCH   5   7
ENDBRANCH   3   5
ENDBRANCH   1   3
BRANCH   1  11
HETATM   11  C2  UNL     1     -12.826 -28.307 -26.628  1.00  0.00     0.188 C 
HETATM   12  S2  UNL     1     -14.072 -28.793 -27.631  1.00  0.00    -0.040 SA
BRANCH  11  13
HETATM   13  N4  UNL     1     -13.016 -27.064 -26.018  1.00  0.00    -0.295 N 
ATOM     14  H4  UNL     1     -12.227 -26.423 -25.942  1.00  0.00     0.183 HD
BRANCH  13  15
HETATM   15  N5  UNL     1     -14.285 -26.665 -25.496  1.00  0.00    -0.229 NA
HETATM   16  C3  UNL     1     -14.263 -25.245 -25.262  1.00  0.00     0.113 C 
HETATM   17  C4  UNL     1     -15.279 -25.083 -24.161  1.00  0.00     0.017 C 
HETATM   18  C5  UNL     1     -15.061 -26.283 -23.282  1.00  0.00     0.017 C 
HETATM   19  C6  UNL     1     -14.555 -27.314 -24.235  1.00  0.00     0.113 C 
ENDBRANCH  13  15
ENDBRANCH  11  13
ENDBRANCH   1  11
TORSDOF 7
ENDMDL
MODEL 3
REMARK VINA RESULT: -5.656927062      2.483      2.935
REMARK  7 active torsions:
REMARK  status: ('A' for Active; 'I' for Inactive)
REMARK    1  A    between atoms: N1_1  and  O1_4 
REMARK    2  A    between atoms: O1_4  and  N2_5 
REMARK    3  A    between atoms: N2_5  and  C1_7 
REMARK    4  A    between atoms: C1_7  and  N3_9 
REMARK    5  A    between atoms: N3_9  and  C2_11 
REMARK    6  A    between atoms: C2_11  and  N4_13 
REMARK    7  A    between atoms: N4_13  and  N5_15 
ROOT
HETATM    1  N3  UNL     1     -12.211 -29.919 -27.906  1.00  0.00    -0.308 N 
ATOM      2  H3  UNL     1     -12.567 -30.851 -27.696  1.00  0.00     0.170 HD
ENDROOT
BRANCH   1   3
HETATM    3  C1  UNL     1     -10.910 -29.899 -28.424  1.00  0.00     0.200 C 
HETATM    4  S1  UNL     1      -9.525 -29.900 -27.572  1.00  0.00    -0.039 SA
BRANCH   3   5
HETATM    5  N2  UNL     1     -10.729 -29.875 -29.853  1.00  0.00    -0.216 N 
ATOM      6  H2  UNL     1      -9.825 -29.647 -30.268  1.00  0.00     0.199 HD
BRANCH   5   7
HETATM    7  O1  UNL     1     -11.804 -30.167 -30.625  1.00  0.00    -0.162 OA
BRANCH   7   8
HETATM    8  N1  UNL     1     -11.484 -31.216 -31.411  1.00  0.00    -0.286 N 
ATOM      9  H12 UNL     1     -10.537 -31.481 -31.680  1.00  0.00     0.186 HD
ATOM     10  H11 UNL     1     -12.349 -31.686 -31.680  1.00  0.00     0.186 HD
ENDBRANCH   7   8
ENDBRANCH   5   7
ENDBRANCH   3   5
ENDBRANCH   1   3
BRANCH   1  11
HETATM   11  C2  UNL     1     -13.098 -28.891 -27.628  1.00  0.00     0.188 C 
HETATM   12  S2  UNL     1     -12.544 -27.638 -26.669  1.00  0.00    -0.040 SA
BRANCH  11  13
HETATM   13  N4  UNL     1     -14.424 -28.760 -28.052  1.00  0.00    -0.295 N 
ATOM     14  H4  UNL     1     -14.840 -27.831 -28.100  1.00  0.00     0.183 HD
BRANCH  13  15
HETATM   15  N5  UNL     1     -15.213 -29.892 -28.422  1.00  0.00    -0.229 NA
HETATM   16  C3  UNL     1     -15.320 -29.933 -29.857  1.00  0.00     0.113 C 
HETATM   17  C4  UNL     1     -16.624 -30.660 -30.063  1.00  0.00     0.017 C 
HETATM   18  C5  UNL     1     -17.513 -30.135 -28.970  1.00  0.00     0.017 C 
HETATM   19  C6  UNL     1     -16.549 -29.792 -27.884  1.00  0.00     0.113 C 
ENDBRANCH  13  15
ENDBRANCH  11  13
ENDBRANCH   1  11
TORSDOF 7
ENDMDL
MODEL 4
REMARK VINA RESULT: -5.600288494      1.690      1.925
REMARK  7 active torsions:
REMARK  status: ('A' for Active; 'I' for Inactive)
REMARK    1  A    between atoms: N1_1  and  O1_4 
REMARK    2  A    between atoms: O1_4  and  N2_5 
REMARK    3  A    between atoms: N2_5  and  C1_7 
REMARK    4  A    between atoms: C1_7  and  N3_9 
REMARK    5  A    between atoms: N3_9  and  C2_11 
REMARK    6  A    between atoms: C2_11  and  N4_13 
REMARK    7  A    between atoms: N4_13  and  N5_15 
ROOT
HETATM    1  N3  UNL     1     -11.510 -29.412 -26.404  1.00  0.00    -0.308 N 
ATOM      2  H3  UNL     1     -11.378 -29.876 -25.506  1.00  0.00     0.170 HD
ENDROOT
BRANCH   1   3
HETATM    3  C1  UNL     1     -10.328 -29.191 -27.122  1.00  0.00     0.200 C 
HETATM    4  S1  UNL     1      -8.875 -29.861 -26.829  1.00  0.00    -0.039 SA
BRANCH   3   5
HETATM    5  N2  UNL     1     -10.350 -28.286 -28.242  1.00  0.00    -0.216 N 
ATOM      6  H2  UNL     1     -10.591 -27.302 -28.123  1.00  0.00     0.199 HD
BRANCH   5   7
HETATM    7  O1  UNL     1     -10.036 -28.791 -29.460  1.00  0.00    -0.162 OA
BRANCH   7   8
HETATM    8  N1  UNL     1     -10.929 -29.760 -29.754  1.00  0.00    -0.286 N 
ATOM      9  H12 UNL     1     -10.693 -30.718 -30.013  1.00  0.00     0.186 HD
ATOM     10  H11 UNL     1     -11.865 -29.364 -29.672  1.00  0.00     0.186 HD
ENDBRANCH   7   8
ENDBRANCH   5   7
ENDBRANCH   3   5
ENDBRANCH   1   3
BRANCH   1  11
HETATM   11  C2  UNL     1     -12.829 -29.109 -26.703  1.00  0.00     0.188 C 
HETATM   12  S2  UNL     1     -13.389 -27.599 -26.255  1.00  0.00    -0.040 SA
BRANCH  11  13
HETATM   13  N4  UNL     1     -13.773 -29.917 -27.345  1.00  0.00    -0.295 N 
ATOM     14  H4  UNL     1     -13.702 -30.930 -27.253  1.00  0.00     0.183 HD
BRANCH  13  15
HETATM   15  N5  UNL     1     -14.835 -29.364 -28.124  1.00  0.00    -0.229 NA
HETATM   16  C3  UNL     1     -16.090 -29.812 -27.581  1.00  0.00     0.113 C 
HETATM   17  C4  UNL     1     -16.998 -29.763 -28.783  1.00  0.00     0.017 C 
HETATM   18  C5  UNL     1     -16.130 -30.234 -29.917  1.00  0.00     0.017 C 
HETATM   19  C6  UNL     1     -14.762 -29.815 -29.494  1.00  0.00     0.113 C 
ENDBRANCH  13  15
ENDBRANCH  11  13
ENDBRANCH   1  11
TORSDOF 7
ENDMDL
MODEL 5
REMARK VINA RESULT: -5.590364168      2.476      2.701
REMARK  7 active torsions:
REMARK  status: ('A' for Active; 'I' for Inactive)
REMARK    1  A    between atoms: N1_1  and  O1_4 
REMARK    2  A    between atoms: O1_4  and  N2_5 
REMARK    3  A    between atoms: N2_5  and  C1_7 
REMARK    4  A    between atoms: C1_7  and  N3_9 
REMARK    5  A    between atoms: N3_9  and  C2_11 
REMARK    6  A    between atoms: C2_11  and  N4_13 
REMARK    7  A    between atoms: N4_13  and  N5_15 
ROOT
HETATM    1  N3  UNL     1     -11.515 -28.520 -28.189  1.00  0.00    -0.308 N 
ATOM      2  H3  UNL     1     -11.273 -27.554 -28.411  1.00  0.00     0.170 HD
ENDROOT
BRANCH   1   3
HETATM    3  C1  UNL     1     -10.514 -29.451 -28.490  1.00  0.00     0.200 C 
HETATM    4  S1  UNL     1      -9.364 -30.001 -27.480  1.00  0.00    -0.039 SA
BRANCH   3   5
HETATM    5  N2  UNL     1     -10.454 -30.008 -29.817  1.00  0.00    -0.216 N 
ATOM      6  H2  UNL     1      -9.572 -30.324 -30.219  1.00  0.00     0.199 HD
BRANCH   5   7
HETATM    7  O1  UNL     1     -11.616 -30.097 -30.510  1.00  0.00    -0.162 OA
BRANCH   7   8
HETATM    8  N1  UNL     1     -11.505 -31.118 -31.385  1.00  0.00    -0.286 N 
ATOM      9  H12 UNL     1     -10.909 -31.121 -32.212  1.00  0.00     0.186 HD
ATOM     10  H11 UNL     1     -12.118 -31.871 -31.072  1.00  0.00     0.186 HD
ENDBRANCH   7   8
ENDBRANCH   5   7
ENDBRANCH   3   5
ENDBRANCH   1   3
BRANCH   1  11
HETATM   11  C2  UNL     1     -12.778 -28.681 -27.642  1.00  0.00     0.188 C 
HETATM   12  S2  UNL     1     -13.225 -27.629 -26.423  1.00  0.00    -0.040 SA
BRANCH  11  13
HETATM   13  N4  UNL     1     -13.748 -29.629 -27.983  1.00  0.00    -0.295 N 
ATOM     14  H4  UNL     1     -13.579 -30.611 -27.767  1.00  0.00     0.183 HD
BRANCH  13  15
HETATM   15  N5  UNL     1     -14.970 -29.260 -28.625  1.00  0.00    -0.229 NA
HETATM   16  C3  UNL     1     -16.071 -29.653 -27.785  1.00  0.00     0.113 C 
HETATM   17  C4  UNL     1     -17.184 -29.849 -28.782  1.00  0.00     0.017 C 
HETATM   18  C5  UNL     1     -16.507 -30.479 -29.968  1.00  0.00     0.017 C 
HETATM   19  C6  UNL     1     -15.117 -29.942 -29.890  1.00  0.00     0.113 C 
ENDBRANCH  13  15
ENDBRANCH  11  13
ENDBRANCH   1  11
TORSDOF 7
ENDMDL
