MODEL 1
REMARK VINA RESULT: -7.622426873      0.000      0.000
REMARK  4 active torsions:
REMARK  status: ('A' for Active; 'I' for Inactive)
REMARK    1  A    between atoms: C4_11  and  N4_12 
REMARK    2  A    between atoms: N4_12  and  C5_14 
REMARK    3  A    between atoms: C5_14  and  C6_15 
REMARK    4  A    between atoms: C8_21  and  C9_22 
ROOT
HETATM    1  N4  UNL     1     -12.709 -29.615 -28.691  1.00  0.00    -0.356 N 
ATOM      2  H4  UNL     1     -12.812 -30.046 -29.609  1.00  0.00     0.165 HD
ENDROOT
BRANCH   1   3
HETATM    3  C4  UNL     1     -11.451 -29.697 -28.036  1.00  0.00     0.142 A 
HETATM    4  C1  UNL     1     -10.364 -29.016 -28.547  1.00  0.00     0.152 A 
HETATM    5  N1  UNL     1     -10.497 -28.233 -29.721  1.00  0.00    -0.080 NA
HETATM    6  N2  UNL     1      -9.169 -29.108 -27.905  1.00  0.00    -0.295 N 
HETATM    7  C2  UNL     1      -9.032 -29.848 -26.791  1.00  0.00     0.328 A 
ATOM      8  H2  UNL     1      -8.361 -28.608 -28.277  1.00  0.00     0.172 HD
HETATM    9  O1  UNL     1      -7.919 -29.940 -26.183  1.00  0.00    -0.247 OA
HETATM   10  N3  UNL     1     -10.070 -30.530 -26.258  1.00  0.00    -0.273 N 
HETATM   11  C3  UNL     1     -11.251 -30.441 -26.889  1.00  0.00     0.279 A 
ATOM     12  H3  UNL     1      -9.960 -31.090 -25.412  1.00  0.00     0.173 HD
HETATM   13  O2  UNL     1     -12.239 -31.064 -26.422  1.00  0.00    -0.265 OA
ENDBRANCH   1   3
BRANCH   1  14
HETATM   14  C5  UNL     1     -13.727 -29.015 -28.171  1.00  0.00     0.120 C 
BRANCH  14  15
HETATM   15  C6  UNL     1     -15.097 -29.369 -28.527  1.00  0.00     0.078 A 
HETATM   16  N5  UNL     1     -15.479 -29.979 -29.691  1.00  0.00    -0.349 N 
HETATM   17  C7  UNL     1     -16.796 -30.160 -29.702  1.00  0.00     0.181 A 
ATOM     18  H5  UNL     1     -14.845 -30.254 -30.442  1.00  0.00     0.166 HD
HETATM   19  N6  UNL     1     -17.295 -29.684 -28.573  1.00  0.00    -0.348 N 
HETATM   20  C8  UNL     1     -16.270 -29.190 -27.829  1.00  0.00     0.099 A 
ATOM     21  H6  UNL     1     -18.280 -29.687 -28.306  1.00  0.00     0.167 HD
BRANCH  20  22
HETATM   22  C9  UNL     1     -16.407 -28.580 -26.521  1.00  0.00     0.290 C 
HETATM   23  O3  UNL     1     -16.298 -27.353 -26.311  1.00  0.00    -0.300 OA
ENDBRANCH  20  22
ENDBRANCH  14  15
ENDBRANCH   1  14
TORSDOF 4
ENDMDL
MODEL 2
REMARK VINA RESULT: -7.543000990      1.572      1.975
REMARK  4 active torsions:
REMARK  status: ('A' for Active; 'I' for Inactive)
REMARK    1  A    between atoms: C4_11  and  N4_12 
REMARK    2  A    between atoms: N4_12  and  C5_14 
REMARK    3  A    between atoms: C5_14  and  C6_15 
REMARK    4  A    between atoms: C8_21  and  C9_22 
ROOT
HETATM    1  N4  UNL     1     -12.721 -29.692 -28.681  1.00  0.00    -0.356 N 
ATOM      2  H4  UNL     1     -12.906 -30.335 -29.451  1.00  0.00     0.165 HD
ENDROOT
BRANCH   1   3
HETATM    3  C4  UNL     1     -11.457 -29.749 -28.034  1.00  0.00     0.142 A 
HETATM    4  C1  UNL     1     -10.380 -29.071 -28.570  1.00  0.00     0.152 A 
HETATM    5  N1  UNL     1     -10.529 -28.318 -29.762  1.00  0.00    -0.080 NA
HETATM    6  N2  UNL     1      -9.180 -29.137 -27.935  1.00  0.00    -0.295 N 
HETATM    7  C2  UNL     1      -9.028 -29.848 -26.805  1.00  0.00     0.328 A 
ATOM      8  H2  UNL     1      -8.379 -28.639 -28.325  1.00  0.00     0.172 HD
HETATM    9  O1  UNL     1      -7.910 -29.916 -26.203  1.00  0.00    -0.247 OA
HETATM   10  N3  UNL     1     -10.056 -30.526 -26.247  1.00  0.00    -0.273 N 
HETATM   11  C3  UNL     1     -11.242 -30.462 -26.871  1.00  0.00     0.279 A 
ATOM     12  H3  UNL     1      -9.935 -31.064 -25.389  1.00  0.00     0.173 HD
HETATM   13  O2  UNL     1     -12.221 -31.082 -26.381  1.00  0.00    -0.265 OA
ENDBRANCH   1   3
BRANCH   1  14
HETATM   14  C5  UNL     1     -13.644 -28.860 -28.334  1.00  0.00     0.120 C 
BRANCH  14  15
HETATM   15  C6  UNL     1     -14.799 -29.273 -27.543  1.00  0.00     0.078 A 
HETATM   16  N5  UNL     1     -14.862 -29.269 -26.175  1.00  0.00    -0.349 N 
HETATM   17  C7  UNL     1     -16.052 -29.701 -25.771  1.00  0.00     0.181 A 
ATOM     18  H5  UNL     1     -14.105 -28.978 -25.556  1.00  0.00     0.166 HD
HETATM   19  N6  UNL     1     -16.779 -29.992 -26.838  1.00  0.00    -0.348 N 
HETATM   20  C8  UNL     1     -16.032 -29.737 -27.944  1.00  0.00     0.099 A 
ATOM     21  H6  UNL     1     -17.735 -30.346 -26.832  1.00  0.00     0.167 HD
BRANCH  20  22
HETATM   22  C9  UNL     1     -16.473 -29.927 -29.312  1.00  0.00     0.290 C 
HETATM   23  O3  UNL     1     -16.052 -30.836 -30.059  1.00  0.00    -0.300 OA
ENDBRANCH  20  22
ENDBRANCH  14  15
ENDBRANCH   1  14
TORSDOF 4
ENDMDL
MODEL 3
REMARK VINA RESULT: -7.410772664      1.322      1.986
REMARK  4 active torsions:
REMARK  status: ('A' for Active; 'I' for Inactive)
REMARK    1  A    between atoms: C4_11  and  N4_12 
REMARK    2  A    between atoms: N4_12  and  C5_14 
REMARK    3  A    between atoms: C5_14  and  C6_15 
REMARK    4  A    between atoms: C8_21  and  C9_22 
ROOT
HETATM    1  N4  UNL     1     -12.974 -29.326 -28.487  1.00  0.00    -0.356 N 
ATOM      2  H4  UNL     1     -13.173 -29.743 -29.397  1.00  0.00     0.165 HD
ENDROOT
BRANCH   1   3
HETATM    3  C4  UNL     1     -11.660 -29.438 -27.958  1.00  0.00     0.142 A 
HETATM    4  C1  UNL     1     -11.429 -30.241 -26.859  1.00  0.00     0.152 A 
HETATM    5  N1  UNL     1     -12.494 -30.955 -26.256  1.00  0.00    -0.080 NA
HETATM    6  N2  UNL     1     -10.165 -30.334 -26.367  1.00  0.00    -0.295 N 
HETATM    7  C2  UNL     1      -9.147 -29.661 -26.932  1.00  0.00     0.328 A 
ATOM      8  H2  UNL     1      -9.985 -30.925 -25.556  1.00  0.00     0.172 HD
HETATM    9  O1  UNL     1      -7.960 -29.741 -26.480  1.00  0.00    -0.247 OA
HETATM   10  N3  UNL     1      -9.331 -28.864 -28.008  1.00  0.00    -0.273 N 
HETATM   11  C3  UNL     1     -10.577 -28.770 -28.495  1.00  0.00     0.279 A 
ATOM     12  H3  UNL     1      -8.554 -28.355 -28.431  1.00  0.00     0.173 HD
HETATM   13  O2  UNL     1     -10.786 -28.037 -29.496  1.00  0.00    -0.265 OA
ENDBRANCH   1   3
BRANCH   1  14
HETATM   14  C5  UNL     1     -13.927 -28.719 -27.863  1.00  0.00     0.120 C 
BRANCH  14  15
HETATM   15  C6  UNL     1     -15.329 -29.074 -28.058  1.00  0.00     0.078 A 
HETATM   16  N5  UNL     1     -15.822 -29.796 -29.111  1.00  0.00    -0.349 N 
HETATM   17  C7  UNL     1     -17.138 -29.945 -28.987  1.00  0.00     0.181 A 
ATOM     18  H5  UNL     1     -15.262 -30.167 -29.879  1.00  0.00     0.166 HD
HETATM   19  N6  UNL     1     -17.527 -29.337 -27.878  1.00  0.00    -0.348 N 
HETATM   20  C8  UNL     1     -16.433 -28.792 -27.285  1.00  0.00     0.099 A 
ATOM     21  H6  UNL     1     -18.484 -29.286 -27.528  1.00  0.00     0.167 HD
BRANCH  20  22
HETATM   22  C9  UNL     1     -16.443 -28.040 -26.045  1.00  0.00     0.290 C 
HETATM   23  O3  UNL     1     -16.298 -26.801 -25.981  1.00  0.00    -0.300 OA
ENDBRANCH  20  22
ENDBRANCH  14  15
ENDBRANCH   1  14
TORSDOF 4
ENDMDL
MODEL 4
REMARK VINA RESULT: -7.406685470      1.997      2.788
REMARK  4 active torsions:
REMARK  status: ('A' for Active; 'I' for Inactive)
REMARK    1  A    between atoms: C4_11  and  N4_12 
REMARK    2  A    between atoms: N4_12  and  C5_14 
REMARK    3  A    between atoms: C5_14  and  C6_15 
REMARK    4  A    between atoms: C8_21  and  C9_22 
ROOT
HETATM    1  N4  UNL     1     -12.899 -28.716 -28.349  1.00  0.00    -0.356 N 
ATOM      2  H4  UNL     1     -13.041 -27.706 -28.344  1.00  0.00     0.165 HD
ENDROOT
BRANCH   1   3
HETATM    3  C4  UNL     1     -11.667 -29.235 -27.868  1.00  0.00     0.142 A 
HETATM    4  C1  UNL     1     -11.661 -30.117 -26.806  1.00  0.00     0.152 A 
HETATM    5  N1  UNL     1     -12.878 -30.509 -26.193  1.00  0.00    -0.080 NA
HETATM    6  N2  UNL     1     -10.472 -30.602 -26.360  1.00  0.00    -0.295 N 
HETATM    7  C2  UNL     1      -9.313 -30.237 -26.934  1.00  0.00     0.328 A 
ATOM      8  H2  UNL     1     -10.460 -31.254 -25.576  1.00  0.00     0.172 HD
HETATM    9  O1  UNL     1      -8.194 -30.686 -26.526  1.00  0.00    -0.247 OA
HETATM   10  N3  UNL     1      -9.274 -29.377 -27.975  1.00  0.00    -0.273 N 
HETATM   11  C3  UNL     1     -10.446 -28.896 -28.418  1.00  0.00     0.279 A 
ATOM     12  H3  UNL     1      -8.391 -29.103 -28.407  1.00  0.00     0.173 HD
HETATM   13  O2  UNL     1     -10.448 -28.092 -29.385  1.00  0.00    -0.265 OA
ENDBRANCH   1   3
BRANCH   1  14
HETATM   14  C5  UNL     1     -13.847 -29.471 -28.792  1.00  0.00     0.120 C 
BRANCH  14  15
HETATM   15  C6  UNL     1     -15.226 -29.330 -28.336  1.00  0.00     0.078 A 
HETATM   16  N5  UNL     1     -15.616 -28.710 -27.179  1.00  0.00    -0.349 N 
HETATM   17  C7  UNL     1     -16.940 -28.754 -27.061  1.00  0.00     0.181 A 
ATOM     18  H5  UNL     1     -14.983 -28.277 -26.506  1.00  0.00     0.166 HD
HETATM   19  N6  UNL     1     -17.435 -29.389 -28.111  1.00  0.00    -0.348 N 
HETATM   20  C8  UNL     1     -16.402 -29.755 -28.914  1.00  0.00     0.099 A 
ATOM     21  H6  UNL     1     -18.423 -29.572 -28.287  1.00  0.00     0.167 HD
BRANCH  20  22
HETATM   22  C9  UNL     1     -16.532 -30.474 -30.166  1.00  0.00     0.290 C 
HETATM   23  O3  UNL     1     -16.484 -31.719 -30.262  1.00  0.00    -0.300 OA
ENDBRANCH  20  22
ENDBRANCH  14  15
ENDBRANCH   1  14
TORSDOF 4
ENDMDL
MODEL 5
REMARK VINA RESULT: -7.156653849      2.441      6.281
REMARK  4 active torsions:
REMARK  status: ('A' for Active; 'I' for Inactive)
REMARK    1  A    between atoms: C4_11  and  N4_12 
REMARK    2  A    between atoms: N4_12  and  C5_14 
REMARK    3  A    between atoms: C5_14  and  C6_15 
REMARK    4  A    between atoms: C8_21  and  C9_22 
ROOT
HETATM    1  N4  UNL     1     -12.756 -28.080 -26.013  1.00  0.00    -0.356 N 
ATOM      2  H4  UNL     1     -12.428 -28.148 -25.049  1.00  0.00     0.165 HD
ENDROOT
BRANCH   1   3
HETATM    3  C4  UNL     1     -14.142 -28.244 -26.276  1.00  0.00     0.142 A 
HETATM    4  C1  UNL     1     -15.032 -27.254 -25.909  1.00  0.00     0.152 A 
HETATM    5  N1  UNL     1     -14.570 -26.075 -25.272  1.00  0.00    -0.080 NA
HETATM    6  N2  UNL     1     -16.355 -27.430 -26.169  1.00  0.00    -0.295 N 
HETATM    7  C2  UNL     1     -16.804 -28.544 -26.772  1.00  0.00     0.328 A 
ATOM      8  H2  UNL     1     -17.019 -26.703 -25.901  1.00  0.00     0.172 HD
HETATM    9  O1  UNL     1     -18.039 -28.718 -27.021  1.00  0.00    -0.247 OA
HETATM   10  N3  UNL     1     -15.967 -29.536 -27.147  1.00  0.00    -0.273 N 
HETATM   11  C3  UNL     1     -14.661 -29.366 -26.892  1.00  0.00     0.279 A 
ATOM     12  H3  UNL     1     -16.314 -30.380 -27.604  1.00  0.00     0.173 HD
HETATM   13  O2  UNL     1     -13.852 -30.270 -27.226  1.00  0.00    -0.265 OA
ENDBRANCH   1   3
BRANCH   1  14
HETATM   14  C5  UNL     1     -11.893 -27.850 -26.945  1.00  0.00     0.120 C 
BRANCH  14  15
HETATM   15  C6  UNL     1     -10.755 -28.733 -27.181  1.00  0.00     0.078 A 
HETATM   16  N5  UNL     1      -9.762 -29.002 -26.278  1.00  0.00    -0.349 N 
HETATM   17  C7  UNL     1      -8.880 -29.845 -26.806  1.00  0.00     0.181 A 
ATOM     18  H5  UNL     1      -9.708 -28.613 -25.337  1.00  0.00     0.166 HD
HETATM   19  N6  UNL     1      -9.265 -30.138 -28.038  1.00  0.00    -0.348 N 
HETATM   20  C8  UNL     1     -10.418 -29.468 -28.295  1.00  0.00     0.099 A 
ATOM     21  H6  UNL     1      -8.779 -30.762 -28.683  1.00  0.00     0.167 HD
BRANCH  20  22
HETATM   22  C9  UNL     1     -11.157 -29.526 -29.541  1.00  0.00     0.290 C 
HETATM   23  O3  UNL     1     -10.670 -29.924 -30.621  1.00  0.00    -0.300 OA
ENDBRANCH  20  22
ENDBRANCH  14  15
ENDBRANCH   1  14
TORSDOF 4
ENDMDL
