MODEL 1
REMARK VINA RESULT: -7.586695486      0.000      0.000
REMARK  2 active torsions:
REMARK  status: ('A' for Active; 'I' for Inactive)
REMARK       I    between atoms: C1_4  and  N3_6 
REMARK       I    between atoms: N3_6  and  C2_8 
REMARK    1  A    between atoms: C2_8  and  C3_10 
REMARK    2  A    between atoms: N4_12  and  C5_13 
ROOT
HETATM    1  C3  UNL     1     -14.916 -29.251 -28.376  1.00  0.00     0.135 A 
HETATM    2  C4  UNL     1     -14.276 -28.515 -27.372  1.00  0.00     0.155 A 
HETATM    3  N4  UNL     1     -15.199 -27.999 -26.552  1.00  0.00    -0.249 N 
HETATM    4  N6  UNL     1     -16.369 -28.384 -27.007  1.00  0.00    -0.235 N 
ATOM      5  H6  UNL     1     -17.264 -28.141 -26.582  1.00  0.00     0.209 HD
HETATM    6  N7  UNL     1     -16.230 -29.129 -28.090  1.00  0.00    -0.279 N 
ATOM      7  H7  UNL     1     -16.993 -29.544 -28.624  1.00  0.00     0.189 HD
ENDROOT
BRANCH   1   8
HETATM    8  C2  UNL     1     -14.272 -29.958 -29.433  1.00  0.00     0.277 C 
HETATM    9  N3  UNL     1     -12.829 -29.785 -29.624  1.00  0.00    -0.296 N 
HETATM   10  C1  UNL     1     -12.205 -30.469 -30.655  1.00  0.00     0.188 C 
ATOM     11  H3  UNL     1     -12.293 -29.173 -29.008  1.00  0.00     0.171 HD
HETATM   12  N1  UNL     1     -11.673 -31.054 -31.538  1.00  0.00    -0.373 N 
HETATM   13  N2  UNL     1     -10.618 -29.804 -30.237  1.00  0.00    -0.064 NA
ATOM     14  H12 UNL     1     -11.214 -31.557 -32.298  1.00  0.00     0.158 HD
ATOM     15  H11 UNL     1     -12.587 -31.436 -31.780  1.00  0.00     0.158 HD
HETATM   16  O1  UNL     1     -14.865 -30.714 -30.204  1.00  0.00    -0.266 OA
ENDBRANCH   1   8
BRANCH   3  17
HETATM   17  C5  UNL     1     -14.922 -27.181 -25.402  1.00  0.00     0.081 A 
HETATM   18  C6  UNL     1     -14.212 -26.006 -25.499  1.00  0.00     0.033 A 
HETATM   19  C7  UNL     1     -13.956 -25.219 -24.396  1.00  0.00     0.002 A 
HETATM   20  C8  UNL     1     -14.406 -25.589 -23.160  1.00  0.00     0.002 A 
HETATM   21  C9  UNL     1     -15.117 -26.760 -23.036  1.00  0.00     0.029 A 
HETATM   22  C10 UNL     1     -15.371 -27.551 -24.158  1.00  0.00     0.075 A 
HETATM   23  N5  UNL     1     -16.111 -28.751 -23.943  1.00  0.00    -0.100 NA
ENDBRANCH   3  17
TORSDOF 2
ENDMDL
MODEL 2
REMARK VINA RESULT: -7.584313494      2.090      2.731
REMARK  2 active torsions:
REMARK  status: ('A' for Active; 'I' for Inactive)
REMARK       I    between atoms: C1_4  and  N3_6 
REMARK       I    between atoms: N3_6  and  C2_8 
REMARK    1  A    between atoms: C2_8  and  C3_10 
REMARK    2  A    between atoms: N4_12  and  C5_13 
ROOT
HETATM    1  C3  UNL     1     -13.963 -28.355 -26.944  1.00  0.00     0.135 A 
HETATM    2  C4  UNL     1     -15.183 -27.776 -26.578  1.00  0.00     0.155 A 
HETATM    3  N4  UNL     1     -15.002 -27.036 -25.477  1.00  0.00    -0.249 N 
HETATM    4  N6  UNL     1     -13.733 -27.137 -25.156  1.00  0.00    -0.235 N 
ATOM      5  H6  UNL     1     -13.300 -26.676 -24.355  1.00  0.00     0.209 HD
HETATM    6  N7  UNL     1     -13.092 -27.915 -26.010  1.00  0.00    -0.279 N 
ATOM      7  H7  UNL     1     -12.099 -28.146 -25.971  1.00  0.00     0.189 HD
ENDROOT
BRANCH   1   8
HETATM    8  C2  UNL     1     -13.746 -29.205 -28.068  1.00  0.00     0.277 C 
HETATM    9  N3  UNL     1     -12.431 -29.195 -28.718  1.00  0.00    -0.296 N 
HETATM   10  C1  UNL     1     -12.223 -30.017 -29.814  1.00  0.00     0.188 C 
ATOM     11  H3  UNL     1     -11.684 -28.594 -28.370  1.00  0.00     0.171 HD
HETATM   12  N1  UNL     1     -12.046 -30.720 -30.752  1.00  0.00    -0.373 N 
HETATM   13  N2  UNL     1     -10.543 -29.486 -29.988  1.00  0.00    -0.064 NA
ATOM     14  H12 UNL     1     -11.892 -31.325 -31.559  1.00  0.00     0.158 HD
ATOM     15  H11 UNL     1     -13.013 -31.026 -30.652  1.00  0.00     0.158 HD
HETATM   16  O1  UNL     1     -14.607 -29.955 -28.529  1.00  0.00    -0.266 OA
ENDBRANCH   1   8
BRANCH   3  17
HETATM   17  C5  UNL     1     -16.029 -26.288 -24.802  1.00  0.00     0.081 A 
HETATM   18  C6  UNL     1     -17.019 -26.907 -24.073  1.00  0.00     0.033 A 
HETATM   19  C7  UNL     1     -17.997 -26.186 -23.419  1.00  0.00     0.002 A 
HETATM   20  C8  UNL     1     -18.011 -24.822 -23.479  1.00  0.00     0.002 A 
HETATM   21  C9  UNL     1     -17.033 -24.179 -24.204  1.00  0.00     0.029 A 
HETATM   22  C10 UNL     1     -16.048 -24.917 -24.863  1.00  0.00     0.075 A 
HETATM   23  N5  UNL     1     -15.074 -24.175 -25.595  1.00  0.00    -0.100 NA
ENDBRANCH   3  17
TORSDOF 2
ENDMDL
MODEL 3
REMARK VINA RESULT: -7.567914025      3.444      4.894
REMARK  2 active torsions:
REMARK  status: ('A' for Active; 'I' for Inactive)
REMARK       I    between atoms: C1_4  and  N3_6 
REMARK       I    between atoms: N3_6  and  C2_8 
REMARK    1  A    between atoms: C2_8  and  C3_10 
REMARK    2  A    between atoms: N4_12  and  C5_13 
ROOT
HETATM    1  C3  UNL     1     -12.416 -29.361 -28.832  1.00  0.00     0.135 A 
HETATM    2  C4  UNL     1     -13.587 -29.167 -28.091  1.00  0.00     0.155 A 
HETATM    3  N4  UNL     1     -14.637 -29.552 -28.825  1.00  0.00    -0.249 N 
HETATM    4  N6  UNL     1     -14.164 -29.971 -29.976  1.00  0.00    -0.235 N 
ATOM      5  H6  UNL     1     -14.735 -30.327 -30.742  1.00  0.00     0.209 HD
HETATM    6  N7  UNL     1     -12.846 -29.868 -30.007  1.00  0.00    -0.279 N 
ATOM      7  H7  UNL     1     -12.251 -30.130 -30.793  1.00  0.00     0.189 HD
ENDROOT
BRANCH   1   8
HETATM    8  C2  UNL     1     -11.090 -29.078 -28.390  1.00  0.00     0.277 C 
HETATM    9  N3  UNL     1     -10.468 -29.968 -27.405  1.00  0.00    -0.296 N 
HETATM   10  C1  UNL     1      -9.182 -29.688 -26.971  1.00  0.00     0.188 C 
ATOM     11  H3  UNL     1     -10.972 -30.779 -27.046  1.00  0.00     0.171 HD
HETATM   12  N1  UNL     1      -8.081 -29.448 -26.601  1.00  0.00    -0.373 N 
HETATM   13  N2  UNL     1      -9.149 -31.107 -25.912  1.00  0.00    -0.064 NA
ATOM     14  H12 UNL     1      -7.135 -29.242 -26.281  1.00  0.00     0.158 HD
ATOM     15  H11 UNL     1      -8.100 -28.631 -27.211  1.00  0.00     0.158 HD
HETATM   16  O1  UNL     1     -10.431 -28.118 -28.791  1.00  0.00    -0.266 OA
ENDBRANCH   1   8
BRANCH   3  17
HETATM   17  C5  UNL     1     -16.010 -29.500 -28.399  1.00  0.00     0.081 A 
HETATM   18  C6  UNL     1     -16.423 -28.679 -27.375  1.00  0.00     0.033 A 
HETATM   19  C7  UNL     1     -17.742 -28.623 -26.976  1.00  0.00     0.002 A 
HETATM   20  C8  UNL     1     -18.688 -29.393 -27.592  1.00  0.00     0.002 A 
HETATM   21  C9  UNL     1     -18.299 -30.224 -28.618  1.00  0.00     0.029 A 
HETATM   22  C10 UNL     1     -16.962 -30.274 -29.016  1.00  0.00     0.075 A 
HETATM   23  N5  UNL     1     -16.643 -31.164 -30.084  1.00  0.00    -0.100 NA
ENDBRANCH   3  17
TORSDOF 2
ENDMDL
MODEL 4
REMARK VINA RESULT: -7.389559009      3.577      4.456
REMARK  2 active torsions:
REMARK  status: ('A' for Active; 'I' for Inactive)
REMARK       I    between atoms: C1_4  and  N3_6 
REMARK       I    between atoms: N3_6  and  C2_8 
REMARK    1  A    between atoms: C2_8  and  C3_10 
REMARK    2  A    between atoms: N4_12  and  C5_13 
ROOT
HETATM    1  C3  UNL     1     -11.026 -28.939 -27.094  1.00  0.00     0.135 A 
HETATM    2  C4  UNL     1     -12.380 -29.290 -27.142  1.00  0.00     0.155 A 
HETATM    3  N4  UNL     1     -13.117 -28.237 -26.768  1.00  0.00    -0.249 N 
HETATM    4  N6  UNL     1     -12.279 -27.264 -26.495  1.00  0.00    -0.235 N 
ATOM      5  H6  UNL     1     -12.555 -26.333 -26.182  1.00  0.00     0.209 HD
HETATM    6  N7  UNL     1     -11.030 -27.654 -26.680  1.00  0.00    -0.279 N 
ATOM      7  H7  UNL     1     -10.202 -27.077 -26.533  1.00  0.00     0.189 HD
ENDROOT
BRANCH   1   8
HETATM    8  C2  UNL     1      -9.931 -29.789 -27.428  1.00  0.00     0.277 C 
HETATM    9  N3  UNL     1      -9.338 -30.624 -26.379  1.00  0.00    -0.296 N 
HETATM   10  C1  UNL     1      -8.270 -31.445 -26.704  1.00  0.00     0.188 C 
ATOM     11  H3  UNL     1      -9.706 -30.602 -25.428  1.00  0.00     0.171 HD
HETATM   12  N1  UNL     1      -7.355 -32.146 -26.982  1.00  0.00    -0.373 N 
HETATM   13  N2  UNL     1      -8.159 -32.080 -25.054  1.00  0.00    -0.064 NA
ATOM     14  H12 UNL     1      -6.568 -32.750 -27.221  1.00  0.00     0.158 HD
ATOM     15  H11 UNL     1      -7.419 -31.781 -27.932  1.00  0.00     0.158 HD
HETATM   16  O1  UNL     1      -9.448 -29.862 -28.559  1.00  0.00    -0.266 OA
ENDBRANCH   1   8
BRANCH   3  17
HETATM   17  C5  UNL     1     -14.553 -28.216 -26.690  1.00  0.00     0.081 A 
HETATM   18  C6  UNL     1     -15.341 -28.863 -27.616  1.00  0.00     0.033 A 
HETATM   19  C7  UNL     1     -16.718 -28.850 -27.533  1.00  0.00     0.002 A 
HETATM   20  C8  UNL     1     -17.346 -28.185 -26.518  1.00  0.00     0.002 A 
HETATM   21  C9  UNL     1     -16.581 -27.529 -25.581  1.00  0.00     0.029 A 
HETATM   22  C10 UNL     1     -15.188 -27.547 -25.673  1.00  0.00     0.075 A 
HETATM   23  N5  UNL     1     -14.470 -26.840 -24.664  1.00  0.00    -0.100 NA
ENDBRANCH   3  17
TORSDOF 2
ENDMDL
MODEL 5
REMARK VINA RESULT: -7.169895753      3.600      5.227
REMARK  2 active torsions:
REMARK  status: ('A' for Active; 'I' for Inactive)
REMARK       I    between atoms: C1_4  and  N3_6 
REMARK       I    between atoms: N3_6  and  C2_8 
REMARK    1  A    between atoms: C2_8  and  C3_10 
REMARK    2  A    between atoms: N4_12  and  C5_13 
ROOT
HETATM    1  C3  UNL     1     -14.764 -29.461 -28.692  1.00  0.00     0.135 A 
HETATM    2  C4  UNL     1     -15.955 -29.627 -27.976  1.00  0.00     0.155 A 
HETATM    3  N4  UNL     1     -16.881 -30.155 -28.785  1.00  0.00    -0.249 N 
HETATM    4  N6  UNL     1     -16.314 -30.318 -29.958  1.00  0.00    -0.235 N 
ATOM      5  H6  UNL     1     -16.780 -30.704 -30.778  1.00  0.00     0.209 HD
HETATM    6  N7  UNL     1     -15.055 -29.913 -29.931  1.00  0.00    -0.279 N 
ATOM      7  H7  UNL     1     -14.409 -29.939 -30.719  1.00  0.00     0.189 HD
ENDROOT
BRANCH   1   8
HETATM    8  C2  UNL     1     -13.545 -28.934 -28.175  1.00  0.00     0.277 C 
HETATM    9  N3  UNL     1     -12.302 -29.170 -28.917  1.00  0.00    -0.296 N 
HETATM   10  C1  UNL     1     -11.116 -28.663 -28.410  1.00  0.00     0.188 C 
ATOM     11  H3  UNL     1     -12.310 -29.697 -29.790  1.00  0.00     0.171 HD
HETATM   12  N1  UNL     1     -10.102 -28.229 -27.976  1.00  0.00    -0.373 N 
HETATM   13  N2  UNL     1     -10.176 -29.297 -29.770  1.00  0.00    -0.064 NA
ATOM     14  H12 UNL     1      -9.228 -27.856 -27.603  1.00  0.00     0.158 HD
ATOM     15  H11 UNL     1     -10.643 -27.864 -27.193  1.00  0.00     0.158 HD
HETATM   16  O1  UNL     1     -13.473 -28.287 -27.130  1.00  0.00    -0.266 OA
ENDBRANCH   1   8
BRANCH   3  17
HETATM   17  C5  UNL     1     -18.233 -30.468 -28.405  1.00  0.00     0.081 A 
HETATM   18  C6  UNL     1     -19.181 -29.489 -28.216  1.00  0.00     0.033 A 
HETATM   19  C7  UNL     1     -20.479 -29.793 -27.861  1.00  0.00     0.002 A 
HETATM   20  C8  UNL     1     -20.863 -31.092 -27.683  1.00  0.00     0.002 A 
HETATM   21  C9  UNL     1     -19.933 -32.090 -27.864  1.00  0.00     0.029 A 
HETATM   22  C10 UNL     1     -18.622 -31.773 -28.223  1.00  0.00     0.075 A 
HETATM   23  N5  UNL     1     -17.720 -32.865 -28.387  1.00  0.00    -0.100 NA
ENDBRANCH   3  17
TORSDOF 2
ENDMDL
