MODEL 1
REMARK VINA RESULT: -8.377627905      0.000      0.000
REMARK  6 active torsions:
REMARK  status: ('A' for Active; 'I' for Inactive)
REMARK    1  A    between atoms: O1_2  and  N1_3 
REMARK    2  A    between atoms: C2_5  and  N2_6 
REMARK    3  A    between atoms: C2_5  and  C9_23 
REMARK    4  A    between atoms: N3_8  and  C3_10 
REMARK    5  A    between atoms: C5_14  and  C6_15 
REMARK    6  A    between atoms: N5_17  and  O2_19 
ROOT
HETATM    1  N2  UNL     1      -2.331   7.783  23.454  1.00  0.00    -0.287 N 
ATOM      2  H2  UNL     1      -3.072   7.121  23.223  1.00  0.00     0.188 HD
HETATM    3  N3  UNL     1      -2.337   8.949  22.950  1.00  0.00    -0.295 N 
ATOM      4  H3  UNL     1      -1.597   9.615  23.178  1.00  0.00     0.187 HD
ENDROOT
BRANCH   3   5
HETATM    5  C3  UNL     1      -3.419   9.325  22.037  1.00  0.00     0.105 A 
HETATM    6  C4  UNL     1      -4.355  10.233  22.446  1.00  0.00     0.117 A 
HETATM    7  N4  UNL     1      -4.424  10.908  23.725  1.00  0.00    -0.092 NA
HETATM    8  S1  UNL     1      -5.384  10.358  21.099  1.00  0.00    -0.069 SA
HETATM    9  C5  UNL     1      -4.601   9.245  20.032  1.00  0.00     0.057 A 
HETATM   10  C8  UNL     1      -3.550   8.815  20.785  1.00  0.00     0.096 A 
HETATM   11  N6  UNL     1      -2.596   7.845  20.277  1.00  0.00    -0.098 NA
BRANCH   9  12
HETATM   12  C6  UNL     1      -5.035   8.911  18.670  1.00  0.00     0.047 C 
HETATM   13  C7  UNL     1      -6.243   9.709  18.175  1.00  0.00     0.071 C 
HETATM   14  N5  UNL     1      -4.587   8.100  17.871  1.00  0.00    -0.272 N 
ATOM     15  H5  UNL     1      -5.152   8.149  17.022  1.00  0.00     0.194 HD
BRANCH  14  16
HETATM   16  O2  UNL     1      -3.665   7.196  17.690  1.00  0.00    -0.290 OA
ATOM     17  H2  UNL     1      -3.338   6.359  17.999  1.00  0.00     0.244 HD
ENDBRANCH  14  16
ENDBRANCH   9  12
ENDBRANCH   3   5
BRANCH   1  18
HETATM   18  C2  UNL     1      -1.262   7.396  24.360  1.00  0.00     0.120 C 
HETATM   19  N1  UNL     1      -0.108   7.726  24.014  1.00  0.00    -0.253 N 
ATOM     20  H1  UNL     1      -0.066   8.232  23.129  1.00  0.00     0.195 HD
BRANCH  19  21
HETATM   21  O1  UNL     1       1.085   7.535  24.597  1.00  0.00    -0.284 OA
HETATM   22  C1  UNL     1       1.696   8.532  25.415  1.00  0.00     0.237 C 
ENDBRANCH  19  21
BRANCH  18  23
HETATM   23  C9  UNL     1      -1.678   6.674  25.549  1.00  0.00     0.056 C 
HETATM   24  C10 UNL     1      -2.981   5.922  25.307  1.00  0.00     0.012 C 
HETATM   25  C11 UNL     1      -2.663   4.461  25.481  1.00  0.00     0.001 C 
HETATM   26  C12 UNL     1      -1.151   4.336  25.504  1.00  0.00     0.001 C 
HETATM   27  C13 UNL     1      -0.735   5.655  26.111  1.00  0.00     0.012 C 
ENDBRANCH  18  23
ENDBRANCH   1  18
TORSDOF 6
ENDMDL
MODEL 2
REMARK VINA RESULT: -8.185333077      2.648      3.498
REMARK  6 active torsions:
REMARK  status: ('A' for Active; 'I' for Inactive)
REMARK    1  A    between atoms: O1_2  and  N1_3 
REMARK    2  A    between atoms: C2_5  and  N2_6 
REMARK    3  A    between atoms: C2_5  and  C9_23 
REMARK    4  A    between atoms: N3_8  and  C3_10 
REMARK    5  A    between atoms: C5_14  and  C6_15 
REMARK    6  A    between atoms: N5_17  and  O2_19 
ROOT
HETATM    1  N2  UNL     1      -0.464   7.055  25.080  1.00  0.00    -0.287 N 
ATOM      2  H2  UNL     1      -0.682   6.687  24.154  1.00  0.00     0.188 HD
HETATM    3  N3  UNL     1      -0.408   8.309  25.271  1.00  0.00    -0.295 N 
ATOM      4  H3  UNL     1      -0.190   8.682  26.196  1.00  0.00     0.187 HD
ENDROOT
BRANCH   3   5
HETATM    5  C3  UNL     1      -0.662   9.213  24.147  1.00  0.00     0.105 A 
HETATM    6  C4  UNL     1       0.210  10.237  23.900  1.00  0.00     0.117 A 
HETATM    7  N4  UNL     1       1.411  10.563  24.637  1.00  0.00    -0.092 NA
HETATM    8  S1  UNL     1      -0.468  11.000  22.540  1.00  0.00    -0.069 SA
HETATM    9  C5  UNL     1      -1.858   9.997  22.308  1.00  0.00     0.057 A 
HETATM   10  C8  UNL     1      -1.733   9.093  23.320  1.00  0.00     0.096 A 
HETATM   11  N6  UNL     1      -2.705   8.031  23.516  1.00  0.00    -0.098 NA
BRANCH   9  12
HETATM   12  C6  UNL     1      -2.867  10.159  21.254  1.00  0.00     0.047 C 
HETATM   13  C7  UNL     1      -2.446  11.081  20.108  1.00  0.00     0.071 C 
HETATM   14  N5  UNL     1      -3.986   9.676  21.146  1.00  0.00    -0.272 N 
ATOM     15  H5  UNL     1      -4.394  10.018  20.276  1.00  0.00     0.194 HD
BRANCH  14  16
HETATM   16  O2  UNL     1      -4.856   8.891  21.719  1.00  0.00    -0.290 OA
ATOM     17  H2  UNL     1      -4.955   8.088  22.217  1.00  0.00     0.244 HD
ENDBRANCH  14  16
ENDBRANCH   9  12
ENDBRANCH   3   5
BRANCH   1  18
HETATM   18  C2  UNL     1      -0.213   6.146  26.187  1.00  0.00     0.120 C 
HETATM   19  N1  UNL     1       0.933   6.192  26.681  1.00  0.00    -0.253 N 
ATOM     20  H1  UNL     1       1.552   6.871  26.237  1.00  0.00     0.195 HD
BRANCH  19  21
HETATM   21  O1  UNL     1       1.497   5.509  27.689  1.00  0.00    -0.284 OA
HETATM   22  C1  UNL     1       2.564   6.050  28.466  1.00  0.00     0.237 C 
ENDBRANCH  19  21
BRANCH  18  23
HETATM   23  C9  UNL     1      -1.331   5.302  26.571  1.00  0.00     0.056 C 
HETATM   24  C10 UNL     1      -2.490   5.448  25.593  1.00  0.00     0.012 C 
HETATM   25  C11 UNL     1      -2.690   4.091  24.973  1.00  0.00     0.001 C 
HETATM   26  C12 UNL     1      -1.477   3.255  25.333  1.00  0.00     0.001 C 
HETATM   27  C13 UNL     1      -1.087   3.828  26.675  1.00  0.00     0.012 C 
ENDBRANCH  18  23
ENDBRANCH   1  18
TORSDOF 6
ENDMDL
MODEL 3
REMARK VINA RESULT: -8.007572583      0.758      1.136
REMARK  6 active torsions:
REMARK  status: ('A' for Active; 'I' for Inactive)
REMARK    1  A    between atoms: O1_2  and  N1_3 
REMARK    2  A    between atoms: C2_5  and  N2_6 
REMARK    3  A    between atoms: C2_5  and  C9_23 
REMARK    4  A    between atoms: N3_8  and  C3_10 
REMARK    5  A    between atoms: C5_14  and  C6_15 
REMARK    6  A    between atoms: N5_17  and  O2_19 
ROOT
HETATM    1  N2  UNL     1      -2.279   7.918  23.320  1.00  0.00    -0.287 N 
ATOM      2  H2  UNL     1      -2.898   7.177  22.988  1.00  0.00     0.188 HD
HETATM    3  N3  UNL     1      -2.448   9.114  22.929  1.00  0.00    -0.295 N 
ATOM      4  H3  UNL     1      -1.832   9.858  23.258  1.00  0.00     0.187 HD
ENDROOT
BRANCH   3   5
HETATM    5  C3  UNL     1      -3.540   9.411  21.997  1.00  0.00     0.105 A 
HETATM    6  C4  UNL     1      -4.535  10.265  22.382  1.00  0.00     0.117 A 
HETATM    7  N4  UNL     1      -4.662  10.951  23.650  1.00  0.00    -0.092 NA
HETATM    8  S1  UNL     1      -5.552  10.309  21.020  1.00  0.00    -0.069 SA
HETATM    9  C5  UNL     1      -4.687   9.232  19.978  1.00  0.00     0.057 A 
HETATM   10  C8  UNL     1      -3.623   8.878  20.751  1.00  0.00     0.096 A 
HETATM   11  N6  UNL     1      -2.604   7.961  20.267  1.00  0.00    -0.098 NA
BRANCH   9  12
HETATM   12  C6  UNL     1      -5.082   8.855  18.616  1.00  0.00     0.047 C 
HETATM   13  C7  UNL     1      -6.293   9.616  18.072  1.00  0.00     0.071 C 
HETATM   14  N5  UNL     1      -4.600   8.033  17.849  1.00  0.00    -0.272 N 
ATOM     15  H5  UNL     1      -5.144   8.049  16.986  1.00  0.00     0.194 HD
BRANCH  14  16
HETATM   16  O2  UNL     1      -3.655   7.143  17.714  1.00  0.00    -0.290 OA
ATOM     17  H2  UNL     1      -2.793   6.886  18.018  1.00  0.00     0.244 HD
ENDBRANCH  14  16
ENDBRANCH   9  12
ENDBRANCH   3   5
BRANCH   1  18
HETATM   18  C2  UNL     1      -1.199   7.608  24.244  1.00  0.00     0.120 C 
HETATM   19  N1  UNL     1      -0.591   8.590  24.718  1.00  0.00    -0.253 N 
ATOM     20  H1  UNL     1      -0.936   9.494  24.392  1.00  0.00     0.195 HD
BRANCH  19  21
HETATM   21  O1  UNL     1       0.435   8.672  25.579  1.00  0.00    -0.284 OA
HETATM   22  C1  UNL     1       1.687   9.248  25.212  1.00  0.00     0.237 C 
ENDBRANCH  19  21
BRANCH  18  23
HETATM   23  C9  UNL     1      -0.969   6.196  24.490  1.00  0.00     0.056 C 
HETATM   24  C10 UNL     1       0.014   5.992  25.635  1.00  0.00     0.012 C 
HETATM   25  C11 UNL     1      -0.739   5.256  26.711  1.00  0.00     0.001 C 
HETATM   26  C12 UNL     1      -2.209   5.314  26.341  1.00  0.00     0.001 C 
HETATM   27  C13 UNL     1      -2.154   5.346  24.832  1.00  0.00     0.012 C 
ENDBRANCH  18  23
ENDBRANCH   1  18
TORSDOF 6
ENDMDL
MODEL 4
REMARK VINA RESULT: -7.901073187      2.268      3.081
REMARK  6 active torsions:
REMARK  status: ('A' for Active; 'I' for Inactive)
REMARK    1  A    between atoms: O1_2  and  N1_3 
REMARK    2  A    between atoms: C2_5  and  N2_6 
REMARK    3  A    between atoms: C2_5  and  C9_23 
REMARK    4  A    between atoms: N3_8  and  C3_10 
REMARK    5  A    between atoms: C5_14  and  C6_15 
REMARK    6  A    between atoms: N5_17  and  O2_19 
ROOT
HETATM    1  N2  UNL     1      -1.740   7.719  23.179  1.00  0.00    -0.287 N 
ATOM      2  H2  UNL     1      -0.876   7.863  22.656  1.00  0.00     0.188 HD
HETATM    3  N3  UNL     1      -2.760   8.437  22.938  1.00  0.00    -0.295 N 
ATOM      4  H3  UNL     1      -3.626   8.296  23.458  1.00  0.00     0.187 HD
ENDROOT
BRANCH   3   5
HETATM    5  C3  UNL     1      -2.675   9.469  21.902  1.00  0.00     0.105 A 
HETATM    6  C4  UNL     1      -1.582  10.289  21.860  1.00  0.00     0.117 A 
HETATM    7  N4  UNL     1      -0.438  10.272  22.747  1.00  0.00    -0.092 NA
HETATM    8  S1  UNL     1      -1.909  11.300  20.534  1.00  0.00    -0.069 SA
HETATM    9  C5  UNL     1      -3.442  10.659  20.052  1.00  0.00     0.057 A 
HETATM   10  C8  UNL     1      -3.637   9.665  20.963  1.00  0.00     0.096 A 
HETATM   11  N6  UNL     1      -4.829   8.834  20.940  1.00  0.00    -0.098 NA
BRANCH   9  12
HETATM   12  C6  UNL     1      -4.256  11.134  18.927  1.00  0.00     0.047 C 
HETATM   13  C7  UNL     1      -3.946  12.563  18.477  1.00  0.00     0.071 C 
HETATM   14  N5  UNL     1      -5.140  10.572  18.293  1.00  0.00    -0.272 N 
ATOM     15  H5  UNL     1      -5.477  11.220  17.581  1.00  0.00     0.194 HD
BRANCH  14  16
HETATM   16  O2  UNL     1      -5.814   9.461  18.182  1.00  0.00    -0.290 OA
ATOM     17  H2  UNL     1      -6.418   8.982  17.627  1.00  0.00     0.244 HD
ENDBRANCH  14  16
ENDBRANCH   9  12
ENDBRANCH   3   5
BRANCH   1  18
HETATM   18  C2  UNL     1      -1.810   6.691  24.205  1.00  0.00     0.120 C 
HETATM   19  N1  UNL     1      -2.948   6.454  24.662  1.00  0.00    -0.253 N 
ATOM     20  H1  UNL     1      -3.690   7.021  24.250  1.00  0.00     0.195 HD
BRANCH  19  21
HETATM   21  O1  UNL     1      -3.371   5.591  25.597  1.00  0.00    -0.284 OA
HETATM   22  C1  UNL     1      -4.174   6.004  26.702  1.00  0.00     0.237 C 
ENDBRANCH  19  21
BRANCH  18  23
HETATM   23  C9  UNL     1      -0.545   6.076  24.565  1.00  0.00     0.056 C 
HETATM   24  C10 UNL     1       0.551   7.123  24.716  1.00  0.00     0.012 C 
HETATM   25  C11 UNL     1       1.003   7.055  26.150  1.00  0.00     0.001 C 
HETATM   26  C12 UNL     1      -0.019   6.222  26.898  1.00  0.00     0.001 C 
HETATM   27  C13 UNL     1      -0.496   5.270  25.827  1.00  0.00     0.012 C 
ENDBRANCH  18  23
ENDBRANCH   1  18
TORSDOF 6
ENDMDL
MODEL 5
REMARK VINA RESULT: -7.877790419      4.744      6.182
REMARK  6 active torsions:
REMARK  status: ('A' for Active; 'I' for Inactive)
REMARK    1  A    between atoms: O1_2  and  N1_3 
REMARK    2  A    between atoms: C2_5  and  N2_6 
REMARK    3  A    between atoms: C2_5  and  C9_23 
REMARK    4  A    between atoms: N3_8  and  C3_10 
REMARK    5  A    between atoms: C5_14  and  C6_15 
REMARK    6  A    between atoms: N5_17  and  O2_19 
ROOT
HETATM    1  N2  UNL     1      -0.362   6.642  26.254  1.00  0.00    -0.287 N 
ATOM      2  H2  UNL     1      -1.220   7.186  26.350  1.00  0.00     0.188 HD
HETATM    3  N3  UNL     1       0.611   7.098  25.577  1.00  0.00    -0.295 N 
ATOM      4  H3  UNL     1       1.471   6.557  25.479  1.00  0.00     0.187 HD
ENDROOT
BRANCH   3   5
HETATM    5  C3  UNL     1       0.482   8.411  24.940  1.00  0.00     0.105 A 
HETATM    6  C4  UNL     1      -0.629   8.687  24.194  1.00  0.00     0.117 A 
HETATM    7  N4  UNL     1      -1.752   7.813  23.935  1.00  0.00    -0.092 NA
HETATM    8  S1  UNL     1      -0.352  10.279  23.666  1.00  0.00    -0.069 SA
HETATM    9  C5  UNL     1       1.184  10.568  24.409  1.00  0.00     0.057 A 
HETATM   10  C8  UNL     1       1.419   9.388  25.049  1.00  0.00     0.096 A 
HETATM   11  N6  UNL     1       2.628   9.172  25.826  1.00  0.00    -0.098 NA
BRANCH   9  12
HETATM   12  C6  UNL     1       1.962  11.808  24.317  1.00  0.00     0.047 C 
HETATM   13  C7  UNL     1       1.376  12.858  23.370  1.00  0.00     0.071 C 
HETATM   14  N5  UNL     1       3.002  12.136  24.873  1.00  0.00    -0.272 N 
ATOM     15  H5  UNL     1       3.244  13.076  24.560  1.00  0.00     0.194 HD
BRANCH  14  16
HETATM   16  O2  UNL     1       3.919  11.741  25.713  1.00  0.00    -0.290 OA
ATOM     17  H2  UNL     1       4.732  11.991  26.135  1.00  0.00     0.244 HD
ENDBRANCH  14  16
ENDBRANCH   9  12
ENDBRANCH   3   5
BRANCH   1  18
HETATM   18  C2  UNL     1      -0.248   5.340  26.891  1.00  0.00     0.120 C 
HETATM   19  N1  UNL     1       0.870   5.068  27.377  1.00  0.00    -0.253 N 
ATOM     20  H1  UNL     1       1.566   5.805  27.263  1.00  0.00     0.195 HD
BRANCH  19  21
HETATM   21  O1  UNL     1       1.321   3.981  28.022  1.00  0.00    -0.284 OA
HETATM   22  C1  UNL     1       1.669   2.782  27.333  1.00  0.00     0.237 C 
ENDBRANCH  19  21
BRANCH  18  23
HETATM   23  C9  UNL     1      -1.450   4.526  26.876  1.00  0.00     0.056 C 
HETATM   24  C10 UNL     1      -2.690   5.382  26.656  1.00  0.00     0.012 C 
HETATM   25  C11 UNL     1      -3.299   4.917  25.360  1.00  0.00     0.001 C 
HETATM   26  C12 UNL     1      -2.268   4.038  24.677  1.00  0.00     0.001 C 
HETATM   27  C13 UNL     1      -1.539   3.434  25.854  1.00  0.00     0.012 C 
ENDBRANCH  18  23
ENDBRANCH   1  18
TORSDOF 6
ENDMDL
