MODEL 1
REMARK VINA RESULT: -7.642695958      0.000      0.000
REMARK  6 active torsions:
REMARK  status: ('A' for Active; 'I' for Inactive)
REMARK    1  A    between atoms: C2_3  and  C3_8 
REMARK    2  A    between atoms: N2_4  and  O1_6 
REMARK    3  A    between atoms: C4_9  and  O2_10 
REMARK    4  A    between atoms: C5_12  and  O3_13 
REMARK    5  A    between atoms: N3_15  and  C6_16 
REMARK    6  A    between atoms: C12_22  and  C13_23 
ROOT
HETATM    1  N1  UNL     1       0.399   3.842  27.386  1.00  0.00    -0.190 NA
HETATM    2  C1  UNL     1       0.839   4.898  27.243  1.00  0.00     0.120 C 
HETATM    3  C2  UNL     1       1.409   6.234  27.085  1.00  0.00     0.149 C 
HETATM    4  N2  UNL     1       2.351   6.507  27.862  1.00  0.00    -0.258 N 
ATOM      5  H2  UNL     1       2.788   7.426  27.795  1.00  0.00     0.195 HD
ENDROOT
BRANCH   3   6
HETATM    6  C3  UNL     1       0.887   7.144  26.087  1.00  0.00     0.070 A 
HETATM    7  C4  UNL     1       1.624   8.272  25.691  1.00  0.00     0.132 A 
HETATM    8  C5  UNL     1       0.851   8.947  24.808  1.00  0.00     0.178 A 
HETATM    9  N3  UNL     1      -0.301   8.323  24.627  1.00  0.00    -0.317 N 
HETATM   10  C12 UNL     1      -0.283   7.198  25.418  1.00  0.00     0.088 A 
BRANCH   7  11
HETATM   11  O2  UNL     1       2.883   8.624  26.117  1.00  0.00    -0.356 OA
ATOM     12  H2  UNL     1       3.231   9.504  26.197  1.00  0.00     0.218 HD
ENDBRANCH   7  11
BRANCH   8  13
HETATM   13  O3  UNL     1       1.247  10.133  24.195  1.00  0.00    -0.344 OA
ATOM     14  H3  UNL     1       1.716  10.162  23.369  1.00  0.00     0.219 HD
ENDBRANCH   8  13
BRANCH   9  15
HETATM   15  C6  UNL     1      -1.376   8.699  23.774  1.00  0.00     0.092 C 
HETATM   16  C7  UNL     1      -1.638  10.199  23.792  1.00  0.00     0.026 C 
HETATM   17  C8  UNL     1      -2.907  10.359  22.930  1.00  0.00     0.002 C 
HETATM   18  C9  UNL     1      -2.410  10.216  21.495  1.00  0.00     0.000 C 
HETATM   19  C10 UNL     1      -1.135   9.437  21.418  1.00  0.00     0.002 C 
HETATM   20  C11 UNL     1      -1.222   8.222  22.338  1.00  0.00     0.026 C 
ENDBRANCH   9  15
BRANCH  10  21
HETATM   21  C13 UNL     1      -1.348   6.199  25.350  1.00  0.00     0.120 A 
HETATM   22  C14 UNL     1      -1.554   5.095  24.607  1.00  0.00     0.129 A 
HETATM   23  N4  UNL     1      -2.752   4.534  24.961  1.00  0.00    -0.354 N 
HETATM   24  C15 UNL     1      -3.249   5.321  25.918  1.00  0.00     0.233 A 
ATOM     25  H4  UNL     1      -3.177   3.691  24.574  1.00  0.00     0.166 HD
HETATM   26  O4  UNL     1      -2.416   6.294  26.136  1.00  0.00    -0.302 OA
ENDBRANCH  10  21
ENDBRANCH   3   6
BRANCH   4  27
HETATM   27  O1  UNL     1       2.819   5.636  28.788  1.00  0.00    -0.289 OA
ATOM     28  H1  UNL     1       3.692   5.693  29.156  1.00  0.00     0.244 HD
ENDBRANCH   4  27
TORSDOF 6
ENDMDL
MODEL 2
REMARK VINA RESULT: -7.585824388      2.166      3.384
REMARK  6 active torsions:
REMARK  status: ('A' for Active; 'I' for Inactive)
REMARK    1  A    between atoms: C2_3  and  C3_8 
REMARK    2  A    between atoms: N2_4  and  O1_6 
REMARK    3  A    between atoms: C4_9  and  O2_10 
REMARK    4  A    between atoms: C5_12  and  O3_13 
REMARK    5  A    between atoms: N3_15  and  C6_16 
REMARK    6  A    between atoms: C12_22  and  C13_23 
ROOT
HETATM    1  N1  UNL     1       3.094   7.979  26.583  1.00  0.00    -0.190 NA
HETATM    2  C1  UNL     1       2.798   8.927  25.997  1.00  0.00     0.120 C 
HETATM    3  C2  UNL     1       2.440  10.143  25.271  1.00  0.00     0.149 C 
HETATM    4  N2  UNL     1       3.211  11.113  25.443  1.00  0.00    -0.258 N 
ATOM      5  H2  UNL     1       3.008  11.988  24.958  1.00  0.00     0.195 HD
ENDROOT
BRANCH   3   6
HETATM    6  C3  UNL     1       1.265  10.175  24.425  1.00  0.00     0.070 A 
HETATM    7  C4  UNL     1       1.002  11.286  23.607  1.00  0.00     0.132 A 
HETATM    8  C5  UNL     1      -0.183  11.045  22.998  1.00  0.00     0.178 A 
HETATM    9  N3  UNL     1      -0.668   9.874  23.373  1.00  0.00    -0.317 N 
HETATM   10  C12 UNL     1       0.231   9.326  24.259  1.00  0.00     0.088 A 
BRANCH   7  11
HETATM   11  O2  UNL     1       1.792  12.401  23.454  1.00  0.00    -0.356 OA
ATOM     12  H2  UNL     1       2.708  12.419  23.200  1.00  0.00     0.218 HD
ENDBRANCH   7  11
BRANCH   8  13
HETATM   13  O3  UNL     1      -0.778  11.932  22.105  1.00  0.00    -0.344 OA
ATOM     14  H3  UNL     1      -0.451  12.810  21.945  1.00  0.00     0.219 HD
ENDBRANCH   8  13
BRANCH   9  15
HETATM   15  C6  UNL     1      -1.877   9.252  22.954  1.00  0.00     0.092 C 
HETATM   16  C7  UNL     1      -3.074  10.191  23.031  1.00  0.00     0.026 C 
HETATM   17  C8  UNL     1      -4.272   9.287  22.679  1.00  0.00     0.002 C 
HETATM   18  C9  UNL     1      -4.189   9.122  21.164  1.00  0.00     0.000 C 
HETATM   19  C10 UNL     1      -2.798   9.333  20.653  1.00  0.00     0.002 C 
HETATM   20  C11 UNL     1      -1.803   8.626  21.570  1.00  0.00     0.026 C 
ENDBRANCH   9  15
BRANCH  10  21
HETATM   21  C13 UNL     1       0.073   7.962  24.762  1.00  0.00     0.120 A 
HETATM   22  C14 UNL     1       0.252   6.738  24.228  1.00  0.00     0.129 A 
HETATM   23  N4  UNL     1      -0.064   5.791  25.166  1.00  0.00    -0.354 N 
HETATM   24  C15 UNL     1      -0.431   6.471  26.254  1.00  0.00     0.233 A 
ATOM     25  H4  UNL     1      -0.026   4.778  25.056  1.00  0.00     0.166 HD
HETATM   26  O4  UNL     1      -0.347   7.743  26.004  1.00  0.00    -0.302 OA
ENDBRANCH  10  21
ENDBRANCH   3   6
BRANCH   4  27
HETATM   27  O1  UNL     1       4.302  11.055  26.242  1.00  0.00    -0.289 OA
ATOM     28  H1  UNL     1       4.680  11.821  26.657  1.00  0.00     0.244 HD
ENDBRANCH   4  27
TORSDOF 6
ENDMDL
MODEL 3
REMARK VINA RESULT: -7.394751805      1.630      2.406
REMARK  6 active torsions:
REMARK  status: ('A' for Active; 'I' for Inactive)
REMARK    1  A    between atoms: C2_3  and  C3_8 
REMARK    2  A    between atoms: N2_4  and  O1_6 
REMARK    3  A    between atoms: C4_9  and  O2_10 
REMARK    4  A    between atoms: C5_12  and  O3_13 
REMARK    5  A    between atoms: N3_15  and  C6_16 
REMARK    6  A    between atoms: C12_22  and  C13_23 
ROOT
HETATM    1  N1  UNL     1       1.389   6.506  26.964  1.00  0.00    -0.190 NA
HETATM    2  C1  UNL     1       1.512   7.495  26.385  1.00  0.00     0.120 C 
HETATM    3  C2  UNL     1       1.688   8.756  25.667  1.00  0.00     0.149 C 
HETATM    4  N2  UNL     1       2.763   9.354  25.896  1.00  0.00    -0.258 N 
ATOM      5  H2  UNL     1       2.939  10.239  25.421  1.00  0.00     0.195 HD
ENDROOT
BRANCH   3   6
HETATM    6  C3  UNL     1       0.663   9.239  24.766  1.00  0.00     0.070 A 
HETATM    7  C4  UNL     1       0.706  10.553  24.272  1.00  0.00     0.132 A 
HETATM    8  C5  UNL     1      -0.408  10.719  23.521  1.00  0.00     0.178 A 
HETATM    9  N3  UNL     1      -1.131   9.612  23.511  1.00  0.00    -0.317 N 
HETATM   10  C12 UNL     1      -0.467   8.686  24.282  1.00  0.00     0.088 A 
BRANCH   7  11
HETATM   11  O2  UNL     1       1.686  11.488  24.505  1.00  0.00    -0.356 OA
ATOM     12  H2  UNL     1       1.562  12.372  24.832  1.00  0.00     0.218 HD
ENDBRANCH   7  11
BRANCH   8  13
HETATM   13  O3  UNL     1      -0.717  11.907  22.863  1.00  0.00    -0.344 OA
ATOM     14  H3  UNL     1      -1.179  11.939  22.034  1.00  0.00     0.219 HD
ENDBRANCH   8  13
BRANCH   9  15
HETATM   15  C6  UNL     1      -2.359   9.373  22.833  1.00  0.00     0.092 C 
HETATM   16  C7  UNL     1      -3.350  10.517  23.001  1.00  0.00     0.026 C 
HETATM   17  C8  UNL     1      -4.632   9.994  22.323  1.00  0.00     0.002 C 
HETATM   18  C9  UNL     1      -4.353  10.132  20.829  1.00  0.00     0.000 C 
HETATM   19  C10 UNL     1      -2.886  10.132  20.531  1.00  0.00     0.002 C 
HETATM   20  C11 UNL     1      -2.197   9.048  21.356  1.00  0.00     0.026 C 
ENDBRANCH   9  15
BRANCH  10  21
HETATM   21  C13 UNL     1      -0.920   7.298  24.369  1.00  0.00     0.120 A 
HETATM   22  C14 UNL     1      -0.674   6.184  23.653  1.00  0.00     0.129 A 
HETATM   23  N4  UNL     1      -1.392   5.145  24.183  1.00  0.00    -0.354 N 
HETATM   24  C15 UNL     1      -2.063   5.661  25.215  1.00  0.00     0.233 A 
ATOM     25  H4  UNL     1      -1.410   4.178  23.857  1.00  0.00     0.166 HD
HETATM   26  O4  UNL     1      -1.779   6.924  25.312  1.00  0.00    -0.302 OA
ENDBRANCH  10  21
ENDBRANCH   3   6
BRANCH   4  27
HETATM   27  O1  UNL     1       3.704   8.879  26.746  1.00  0.00    -0.289 OA
ATOM     28  H1  UNL     1       4.579   8.637  26.466  1.00  0.00     0.244 HD
ENDBRANCH   4  27
TORSDOF 6
ENDMDL
MODEL 4
REMARK VINA RESULT: -7.263142971      2.733      5.871
REMARK  6 active torsions:
REMARK  status: ('A' for Active; 'I' for Inactive)
REMARK    1  A    between atoms: C2_3  and  C3_8 
REMARK    2  A    between atoms: N2_4  and  O1_6 
REMARK    3  A    between atoms: C4_9  and  O2_10 
REMARK    4  A    between atoms: C5_12  and  O3_13 
REMARK    5  A    between atoms: N3_15  and  C6_16 
REMARK    6  A    between atoms: C12_22  and  C13_23 
ROOT
HETATM    1  N1  UNL     1       0.228  14.005  23.182  1.00  0.00    -0.190 NA
HETATM    2  C1  UNL     1       1.025  13.224  23.469  1.00  0.00     0.120 C 
HETATM    3  C2  UNL     1       2.053  12.246  23.820  1.00  0.00     0.149 C 
HETATM    4  N2  UNL     1       3.232  12.625  23.638  1.00  0.00    -0.258 N 
ATOM      5  H2  UNL     1       3.991  11.982  23.867  1.00  0.00     0.195 HD
ENDROOT
BRANCH   3   6
HETATM    6  C3  UNL     1       1.685  10.945  24.337  1.00  0.00     0.070 A 
HETATM    7  C4  UNL     1       2.526  10.268  25.235  1.00  0.00     0.132 A 
HETATM    8  C5  UNL     1       1.946   9.069  25.478  1.00  0.00     0.178 A 
HETATM    9  N3  UNL     1       0.815   8.956  24.803  1.00  0.00    -0.317 N 
HETATM   10  C12 UNL     1       0.646  10.122  24.093  1.00  0.00     0.088 A 
BRANCH   7  11
HETATM   11  O2  UNL     1       3.707  10.731  25.765  1.00  0.00    -0.356 OA
ATOM     12  H2  UNL     1       3.878  10.946  26.675  1.00  0.00     0.218 HD
ENDBRANCH   7  11
BRANCH   8  13
HETATM   13  O3  UNL     1       2.495   8.112  26.328  1.00  0.00    -0.344 OA
ATOM     14  H3  UNL     1       2.779   7.255  26.034  1.00  0.00     0.219 HD
ENDBRANCH   8  13
BRANCH   9  15
HETATM   15  C6  UNL     1      -0.094   7.861  24.795  1.00  0.00     0.092 C 
HETATM   16  C7  UNL     1       0.430   6.673  23.999  1.00  0.00     0.026 C 
HETATM   17  C8  UNL     1      -0.750   5.681  24.002  1.00  0.00     0.002 C 
HETATM   18  C9  UNL     1      -0.725   5.068  25.399  1.00  0.00     0.000 C 
HETATM   19  C10 UNL     1      -0.054   5.964  26.392  1.00  0.00     0.002 C 
HETATM   20  C11 UNL     1      -0.521   7.402  26.180  1.00  0.00     0.026 C 
ENDBRANCH   9  15
BRANCH  10  21
HETATM   21  C13 UNL     1      -0.583  10.390  23.347  1.00  0.00     0.120 A 
HETATM   22  C14 UNL     1      -1.852  10.670  23.699  1.00  0.00     0.129 A 
HETATM   23  N4  UNL     1      -2.607  10.820  22.566  1.00  0.00    -0.354 N 
HETATM   24  C15 UNL     1      -1.768  10.624  21.546  1.00  0.00     0.233 A 
ATOM     25  H4  UNL     1      -3.603  11.037  22.512  1.00  0.00     0.166 HD
HETATM   26  O4  UNL     1      -0.585  10.372  22.018  1.00  0.00    -0.302 OA
ENDBRANCH  10  21
ENDBRANCH   3   6
BRANCH   4  27
HETATM   27  O1  UNL     1       3.547  13.848  23.151  1.00  0.00    -0.289 OA
ATOM     28  H1  UNL     1       3.382  14.653  23.628  1.00  0.00     0.244 HD
ENDBRANCH   4  27
TORSDOF 6
ENDMDL
MODEL 5
REMARK VINA RESULT: -7.176450363      1.342      3.690
REMARK  6 active torsions:
REMARK  status: ('A' for Active; 'I' for Inactive)
REMARK    1  A    between atoms: C2_3  and  C3_8 
REMARK    2  A    between atoms: N2_4  and  O1_6 
REMARK    3  A    between atoms: C4_9  and  O2_10 
REMARK    4  A    between atoms: C5_12  and  O3_13 
REMARK    5  A    between atoms: N3_15  and  C6_16 
REMARK    6  A    between atoms: C12_22  and  C13_23 
ROOT
HETATM    1  N1  UNL     1       0.154   3.178  27.051  1.00  0.00    -0.190 NA
HETATM    2  C1  UNL     1       0.249   4.326  27.020  1.00  0.00     0.120 C 
HETATM    3  C2  UNL     1       0.378   5.782  27.004  1.00  0.00     0.149 C 
HETATM    4  N2  UNL     1       1.123   6.260  27.889  1.00  0.00    -0.258 N 
ATOM      5  H2  UNL     1       1.251   7.271  27.925  1.00  0.00     0.195 HD
ENDROOT
BRANCH   3   6
HETATM    6  C3  UNL     1      -0.326   6.573  26.017  1.00  0.00     0.070 A 
HETATM    7  C4  UNL     1      -1.627   6.227  25.619  1.00  0.00     0.132 A 
HETATM    8  C5  UNL     1      -1.981   7.106  24.652  1.00  0.00     0.178 A 
HETATM    9  N3  UNL     1      -1.003   7.967  24.427  1.00  0.00    -0.317 N 
HETATM   10  C12 UNL     1       0.029   7.642  25.276  1.00  0.00     0.088 A 
BRANCH   7  11
HETATM   11  O2  UNL     1      -2.393   5.197  26.112  1.00  0.00    -0.356 OA
ATOM     12  H2  UNL     1      -2.670   4.419  25.643  1.00  0.00     0.218 HD
ENDBRANCH   7  11
BRANCH   8  13
HETATM   13  O3  UNL     1      -3.214   7.078  24.006  1.00  0.00    -0.344 OA
ATOM     14  H3  UNL     1      -3.329   7.296  23.089  1.00  0.00     0.219 HD
ENDBRANCH   8  13
BRANCH   9  15
HETATM   15  C6  UNL     1      -0.984   9.049  23.502  1.00  0.00     0.092 C 
HETATM   16  C7  UNL     1      -1.286   8.605  22.078  1.00  0.00     0.026 C 
HETATM   17  C8  UNL     1      -1.074   9.883  21.242  1.00  0.00     0.002 C 
HETATM   18  C9  UNL     1      -2.322  10.720  21.507  1.00  0.00     0.000 C 
HETATM   19  C10 UNL     1      -2.968  10.367  22.810  1.00  0.00     0.002 C 
HETATM   20  C11 UNL     1      -1.895  10.204  23.884  1.00  0.00     0.026 C 
ENDBRANCH   9  15
BRANCH  10  21
HETATM   21  C13 UNL     1       1.219   8.484  25.390  1.00  0.00     0.120 A 
HETATM   22  C14 UNL     1       1.549   9.708  24.935  1.00  0.00     0.129 A 
HETATM   23  N4  UNL     1       2.824  10.006  25.339  1.00  0.00    -0.354 N 
HETATM   24  C15 UNL     1       3.238   8.944  26.034  1.00  0.00     0.233 A 
ATOM     25  H4  UNL     1       3.347  10.860  25.148  1.00  0.00     0.166 HD
HETATM   26  O4  UNL     1       2.288   8.060  26.056  1.00  0.00    -0.302 OA
ENDBRANCH  10  21
ENDBRANCH   3   6
BRANCH   4  27
HETATM   27  O1  UNL     1       1.768   5.495  28.802  1.00  0.00    -0.289 OA
ATOM     28  H1  UNL     1       1.677   5.621  29.739  1.00  0.00     0.244 HD
ENDBRANCH   4  27
TORSDOF 6
ENDMDL
