MODEL 1
REMARK VINA RESULT: -8.194224093      0.000      0.000
REMARK  8 active torsions:
REMARK  status: ('A' for Active; 'I' for Inactive)
REMARK    1  A    between atoms: C2_2  and  C4_4 
REMARK    2  A    between atoms: C4_4  and  O2_9 
REMARK    3  A    between atoms: N1_5  and  O1_7 
REMARK    4  A    between atoms: O2_9  and  C5_10 
REMARK    5  A    between atoms: C5_10  and  C6_11 
REMARK    6  A    between atoms: C7_13  and  O4_14 
REMARK    7  A    between atoms: C8_16  and  O5_17 
REMARK    8  A    between atoms: C9_19  and  C10_20 
ROOT
HETATM    1  C6  UNL     1      -0.298   8.166  24.202  1.00  0.00     0.089 A 
HETATM    2  O3  UNL     1       0.676   8.828  24.731  1.00  0.00    -0.287 OA
HETATM    3  C7  UNL     1       0.606  10.099  24.467  1.00  0.00     0.218 A 
HETATM    4  C8  UNL     1      -0.516  10.328  23.681  1.00  0.00     0.133 A 
HETATM    5  C9  UNL     1      -1.065   9.091  23.536  1.00  0.00     0.018 A 
ENDROOT
BRANCH   1   6
HETATM    6  C5  UNL     1      -0.511   6.679  24.320  1.00  0.00     0.242 C 
BRANCH   6   7
HETATM    7  O2  UNL     1      -1.077   6.379  25.583  1.00  0.00    -0.331 OA
BRANCH   7   8
HETATM    8  C4  UNL     1      -2.244   5.544  25.486  1.00  0.00     0.141 C 
HETATM    9  N1  UNL     1      -3.251   6.108  25.087  1.00  0.00    -0.251 N 
ATOM     10  H1  UNL     1      -2.959   7.073  24.936  1.00  0.00     0.196 HD
BRANCH   8  11
HETATM   11  C2  UNL     1      -2.145   4.104  25.851  1.00  0.00     0.054 C 
HETATM   12  C1  UNL     1      -2.389   3.266  24.632  1.00  0.00     0.018 C 
HETATM   13  C3  UNL     1      -0.809   3.785  26.485  1.00  0.00     0.018 C 
ENDBRANCH   8  11
BRANCH   9  14
HETATM   14  O1  UNL     1      -4.481   6.097  24.767  1.00  0.00    -0.288 OA
ATOM     15  H1  UNL     1      -5.224   6.464  24.303  1.00  0.00     0.244 HD
ENDBRANCH   9  14
ENDBRANCH   7   8
ENDBRANCH   6   7
ENDBRANCH   1   6
BRANCH   5  16
HETATM   16  C10 UNL     1      -2.209   8.720  22.656  1.00  0.00     0.048 C 
HETATM   17  C11 UNL     1      -3.358   9.658  23.001  1.00  0.00     0.011 C 
HETATM   18  C12 UNL     1      -4.239  10.206  21.953  1.00  0.00     0.003 C 
HETATM   19  C13 UNL     1      -4.709   9.282  20.897  1.00  0.00     0.026 C 
HETATM   20  C14 UNL     1      -3.607   9.214  19.840  1.00  0.00     0.167 C 
HETATM   21  O6  UNL     1      -2.703   8.264  20.369  1.00  0.00    -0.390 OA
HETATM   22  C15 UNL     1      -1.868   8.993  21.201  1.00  0.00     0.177 C 
ENDBRANCH   5  16
BRANCH   3  23
HETATM   23  O4  UNL     1       1.446  11.130  24.856  1.00  0.00    -0.339 OA
ATOM     24  H4  UNL     1       2.215  11.481  24.424  1.00  0.00     0.220 HD
ENDBRANCH   3  23
BRANCH   4  25
HETATM   25  O5  UNL     1      -0.954  11.570  23.162  1.00  0.00    -0.356 OA
ATOM     26  H5  UNL     1      -1.407  11.719  22.339  1.00  0.00     0.218 HD
ENDBRANCH   4  25
TORSDOF 8
ENDMDL
MODEL 2
REMARK VINA RESULT: -8.018176908      1.078      1.546
REMARK  8 active torsions:
REMARK  status: ('A' for Active; 'I' for Inactive)
REMARK    1  A    between atoms: C2_2  and  C4_4 
REMARK    2  A    between atoms: C4_4  and  O2_9 
REMARK    3  A    between atoms: N1_5  and  O1_7 
REMARK    4  A    between atoms: O2_9  and  C5_10 
REMARK    5  A    between atoms: C5_10  and  C6_11 
REMARK    6  A    between atoms: C7_13  and  O4_14 
REMARK    7  A    between atoms: C8_16  and  O5_17 
REMARK    8  A    between atoms: C9_19  and  C10_20 
ROOT
HETATM    1  C6  UNL     1      -0.530   7.914  24.046  1.00  0.00     0.089 A 
HETATM    2  O3  UNL     1       0.417   8.499  24.700  1.00  0.00    -0.287 OA
HETATM    3  C7  UNL     1       0.397   9.789  24.543  1.00  0.00     0.218 A 
HETATM    4  C8  UNL     1      -0.658  10.117  23.701  1.00  0.00     0.133 A 
HETATM    5  C9  UNL     1      -1.223   8.914  23.410  1.00  0.00     0.018 A 
ENDROOT
BRANCH   1   6
HETATM    6  C5  UNL     1      -0.785   6.428  24.018  1.00  0.00     0.242 C 
BRANCH   6   7
HETATM    7  O2  UNL     1      -1.698   6.084  25.045  1.00  0.00    -0.331 OA
BRANCH   7   8
HETATM    8  C4  UNL     1      -1.084   5.328  26.104  1.00  0.00     0.141 C 
HETATM    9  N1  UNL     1      -0.235   5.930  26.743  1.00  0.00    -0.251 N 
ATOM     10  H1  UNL     1      -0.198   6.852  26.311  1.00  0.00     0.196 HD
BRANCH   8  11
HETATM   11  C2  UNL     1      -1.516   3.924  26.345  1.00  0.00     0.054 C 
HETATM   12  C1  UNL     1      -2.219   3.407  25.126  1.00  0.00     0.018 C 
HETATM   13  C3  UNL     1      -0.346   3.044  26.726  1.00  0.00     0.018 C 
ENDBRANCH   8  11
BRANCH   9  14
HETATM   14  O1  UNL     1       0.625   5.984  27.677  1.00  0.00    -0.288 OA
ATOM     15  H1  UNL     1       1.475   6.245  28.013  1.00  0.00     0.244 HD
ENDBRANCH   9  14
ENDBRANCH   7   8
ENDBRANCH   6   7
ENDBRANCH   1   6
BRANCH   5  16
HETATM   16  C10 UNL     1      -2.307   8.652  22.420  1.00  0.00     0.048 C 
HETATM   17  C11 UNL     1      -3.524   9.448  22.874  1.00  0.00     0.011 C 
HETATM   18  C12 UNL     1      -4.395  10.133  21.902  1.00  0.00     0.003 C 
HETATM   19  C13 UNL     1      -4.765   9.398  20.672  1.00  0.00     0.026 C 
HETATM   20  C14 UNL     1      -3.621   9.587  19.676  1.00  0.00     0.167 C 
HETATM   21  O6  UNL     1      -2.681   8.605  20.067  1.00  0.00    -0.390 OA
HETATM   22  C15 UNL     1      -1.926   9.210  21.059  1.00  0.00     0.177 C 
ENDBRANCH   5  16
BRANCH   3  23
HETATM   23  O4  UNL     1       1.229  10.758  25.080  1.00  0.00    -0.339 OA
ATOM     24  H4  UNL     1       1.149  11.704  25.060  1.00  0.00     0.220 HD
ENDBRANCH   3  23
BRANCH   4  25
HETATM   25  O5  UNL     1      -1.028  11.412  23.261  1.00  0.00    -0.356 OA
ATOM     26  H5  UNL     1      -0.959  11.758  22.378  1.00  0.00     0.218 HD
ENDBRANCH   4  25
TORSDOF 8
ENDMDL
MODEL 3
REMARK VINA RESULT: -7.871644009      1.029      1.148
REMARK  8 active torsions:
REMARK  status: ('A' for Active; 'I' for Inactive)
REMARK    1  A    between atoms: C2_2  and  C4_4 
REMARK    2  A    between atoms: C4_4  and  O2_9 
REMARK    3  A    between atoms: N1_5  and  O1_7 
REMARK    4  A    between atoms: O2_9  and  C5_10 
REMARK    5  A    between atoms: C5_10  and  C6_11 
REMARK    6  A    between atoms: C7_13  and  O4_14 
REMARK    7  A    between atoms: C8_16  and  O5_17 
REMARK    8  A    between atoms: C9_19  and  C10_20 
ROOT
HETATM    1  C6  UNL     1      -0.651   7.940  23.586  1.00  0.00     0.089 A 
HETATM    2  O3  UNL     1       0.246   8.475  24.346  1.00  0.00    -0.287 OA
HETATM    3  C7  UNL     1       0.157   9.771  24.373  1.00  0.00     0.218 A 
HETATM    4  C8  UNL     1      -0.894  10.161  23.552  1.00  0.00     0.133 A 
HETATM    5  C9  UNL     1      -1.384   8.984  23.076  1.00  0.00     0.018 A 
ENDROOT
BRANCH   1   6
HETATM    6  C5  UNL     1      -0.821   6.463  23.340  1.00  0.00     0.242 C 
BRANCH   6   7
HETATM    7  O2  UNL     1      -0.269   5.735  24.423  1.00  0.00    -0.331 OA
BRANCH   7   8
HETATM    8  C4  UNL     1      -1.270   5.257  25.339  1.00  0.00     0.141 C 
HETATM    9  N1  UNL     1      -2.418   5.324  24.931  1.00  0.00    -0.251 N 
ATOM     10  H1  UNL     1      -2.334   5.732  24.000  1.00  0.00     0.196 HD
BRANCH   8  11
HETATM   11  C2  UNL     1      -0.852   4.724  26.665  1.00  0.00     0.054 C 
HETATM   12  C1  UNL     1      -0.641   3.243  26.559  1.00  0.00     0.018 C 
HETATM   13  C3  UNL     1       0.387   5.426  27.177  1.00  0.00     0.018 C 
ENDBRANCH   8  11
BRANCH   9  14
HETATM   14  O1  UNL     1      -3.667   5.140  25.083  1.00  0.00    -0.288 OA
ATOM     15  H1  UNL     1      -4.551   5.102  24.738  1.00  0.00     0.244 HD
ENDBRANCH   9  14
ENDBRANCH   7   8
ENDBRANCH   6   7
ENDBRANCH   1   6
BRANCH   5  16
HETATM   16  C10 UNL     1      -2.426   8.810  22.025  1.00  0.00     0.048 C 
HETATM   17  C11 UNL     1      -3.743   9.288  22.623  1.00  0.00     0.011 C 
HETATM   18  C12 UNL     1      -4.716  10.050  21.819  1.00  0.00     0.003 C 
HETATM   19  C13 UNL     1      -4.986   9.584  20.441  1.00  0.00     0.026 C 
HETATM   20  C14 UNL     1      -3.892  10.171  19.549  1.00  0.00     0.167 C 
HETATM   21  O6  UNL     1      -2.813   9.272  19.719  1.00  0.00    -0.390 OA
HETATM   22  C15 UNL     1      -2.146   9.726  20.845  1.00  0.00     0.177 C 
ENDBRANCH   5  16
BRANCH   3  23
HETATM   23  O4  UNL     1       0.920  10.696  25.068  1.00  0.00    -0.339 OA
ATOM     24  H4  UNL     1       0.876  10.954  25.981  1.00  0.00     0.220 HD
ENDBRANCH   3  23
BRANCH   4  25
HETATM   25  O5  UNL     1      -1.325  11.484  23.288  1.00  0.00    -0.356 OA
ATOM     26  H5  UNL     1      -2.084  11.748  22.780  1.00  0.00     0.218 HD
ENDBRANCH   4  25
TORSDOF 8
ENDMDL
MODEL 4
REMARK VINA RESULT: -7.808985226      1.773      2.118
REMARK  8 active torsions:
REMARK  status: ('A' for Active; 'I' for Inactive)
REMARK    1  A    between atoms: C2_2  and  C4_4 
REMARK    2  A    between atoms: C4_4  and  O2_9 
REMARK    3  A    between atoms: N1_5  and  O1_7 
REMARK    4  A    between atoms: O2_9  and  C5_10 
REMARK    5  A    between atoms: C5_10  and  C6_11 
REMARK    6  A    between atoms: C7_13  and  O4_14 
REMARK    7  A    between atoms: C8_16  and  O5_17 
REMARK    8  A    between atoms: C9_19  and  C10_20 
ROOT
HETATM    1  C6  UNL     1      -0.078   8.666  24.687  1.00  0.00     0.089 A 
HETATM    2  O3  UNL     1       0.949   9.352  25.066  1.00  0.00    -0.287 OA
HETATM    3  C7  UNL     1       1.005  10.513  24.485  1.00  0.00     0.218 A 
HETATM    4  C8  UNL     1      -0.081  10.631  23.626  1.00  0.00     0.133 A 
HETATM    5  C9  UNL     1      -0.744   9.454  23.781  1.00  0.00     0.018 A 
ENDROOT
BRANCH   1   6
HETATM    6  C5  UNL     1      -0.433   7.283  25.173  1.00  0.00     0.242 C 
BRANCH   6   7
HETATM    7  O2  UNL     1       0.629   6.767  25.956  1.00  0.00    -0.331 OA
BRANCH   7   8
HETATM    8  C4  UNL     1       0.228   5.651  26.769  1.00  0.00     0.141 C 
HETATM    9  N1  UNL     1      -0.793   5.087  26.407  1.00  0.00    -0.251 N 
ATOM     10  H1  UNL     1      -1.091   5.608  25.582  1.00  0.00     0.196 HD
BRANCH   8  11
HETATM   11  C2  UNL     1       1.058   5.268  27.944  1.00  0.00     0.054 C 
HETATM   12  C1  UNL     1       1.430   3.820  27.836  1.00  0.00     0.018 C 
HETATM   13  C3  UNL     1       2.283   6.148  28.066  1.00  0.00     0.018 C 
ENDBRANCH   8  11
BRANCH   9  14
HETATM   14  O1  UNL     1      -1.670   4.178  26.540  1.00  0.00    -0.288 OA
ATOM     15  H1  UNL     1      -1.939   3.317  26.839  1.00  0.00     0.244 HD
ENDBRANCH   9  14
ENDBRANCH   7   8
ENDBRANCH   6   7
ENDBRANCH   1   6
BRANCH   5  16
HETATM   16  C10 UNL     1      -1.908   8.972  22.984  1.00  0.00     0.048 C 
HETATM   17  C11 UNL     1      -3.029   9.985  23.179  1.00  0.00     0.011 C 
HETATM   18  C12 UNL     1      -3.909  10.376  22.062  1.00  0.00     0.003 C 
HETATM   19  C13 UNL     1      -4.415   9.303  21.177  1.00  0.00     0.026 C 
HETATM   20  C14 UNL     1      -3.329   9.033  20.137  1.00  0.00     0.167 C 
HETATM   21  O6  UNL     1      -2.441   8.160  20.808  1.00  0.00    -0.390 OA
HETATM   22  C15 UNL     1      -1.578   8.993  21.501  1.00  0.00     0.177 C 
ENDBRANCH   5  16
BRANCH   3  23
HETATM   23  O4  UNL     1       1.935  11.529  24.628  1.00  0.00    -0.339 OA
ATOM     24  H4  UNL     1       2.224  11.980  25.413  1.00  0.00     0.220 HD
ENDBRANCH   3  23
BRANCH   4  25
HETATM   25  O5  UNL     1      -0.392  11.733  22.792  1.00  0.00    -0.356 OA
ATOM     26  H5  UNL     1      -0.674  11.702  21.885  1.00  0.00     0.218 HD
ENDBRANCH   4  25
TORSDOF 8
ENDMDL
MODEL 5
REMARK VINA RESULT: -7.671982156      1.049      1.411
REMARK  8 active torsions:
REMARK  status: ('A' for Active; 'I' for Inactive)
REMARK    1  A    between atoms: C2_2  and  C4_4 
REMARK    2  A    between atoms: C4_4  and  O2_9 
REMARK    3  A    between atoms: N1_5  and  O1_7 
REMARK    4  A    between atoms: O2_9  and  C5_10 
REMARK    5  A    between atoms: C5_10  and  C6_11 
REMARK    6  A    between atoms: C7_13  and  O4_14 
REMARK    7  A    between atoms: C8_16  and  O5_17 
REMARK    8  A    between atoms: C9_19  and  C10_20 
ROOT
HETATM    1  C6  UNL     1      -0.112   9.576  24.425  1.00  0.00     0.089 A 
HETATM    2  O3  UNL     1       0.906  10.354  24.586  1.00  0.00    -0.287 OA
HETATM    3  C7  UNL     1       0.931  11.316  23.714  1.00  0.00     0.218 A 
HETATM    4  C8  UNL     1      -0.168  11.182  22.874  1.00  0.00     0.133 A 
HETATM    5  C9  UNL     1      -0.806  10.080  23.352  1.00  0.00     0.018 A 
ENDROOT
BRANCH   1   6
HETATM    6  C5  UNL     1      -0.435   8.370  25.270  1.00  0.00     0.242 C 
BRANCH   6   7
HETATM    7  O2  UNL     1      -0.404   7.204  24.466  1.00  0.00    -0.331 OA
BRANCH   7   8
HETATM    8  C4  UNL     1      -1.309   6.187  24.927  1.00  0.00     0.141 C 
HETATM    9  N1  UNL     1      -2.494   6.453  24.803  1.00  0.00    -0.251 N 
ATOM     10  H1  UNL     1      -2.503   7.385  24.387  1.00  0.00     0.196 HD
BRANCH   8  11
HETATM   11  C2  UNL     1      -0.761   4.923  25.492  1.00  0.00     0.054 C 
HETATM   12  C1  UNL     1      -0.107   5.212  26.809  1.00  0.00     0.018 C 
HETATM   13  C3  UNL     1      -1.836   3.865  25.626  1.00  0.00     0.018 C 
ENDBRANCH   8  11
BRANCH   9  14
HETATM   14  O1  UNL     1      -3.723   6.154  24.932  1.00  0.00    -0.288 OA
ATOM     15  H1  UNL     1      -4.544   5.833  24.577  1.00  0.00     0.244 HD
ENDBRANCH   9  14
ENDBRANCH   7   8
ENDBRANCH   6   7
ENDBRANCH   1   6
BRANCH   5  16
HETATM   16  C10 UNL     1      -1.970   9.384  22.734  1.00  0.00     0.048 C 
HETATM   17  C11 UNL     1      -3.160  10.327  22.842  1.00  0.00     0.011 C 
HETATM   18  C12 UNL     1      -4.138  10.455  21.746  1.00  0.00     0.003 C 
HETATM   19  C13 UNL     1      -4.601   9.212  21.090  1.00  0.00     0.026 C 
HETATM   20  C14 UNL     1      -3.561   8.851  20.030  1.00  0.00     0.167 C 
HETATM   21  O6  UNL     1      -2.562   8.174  20.768  1.00  0.00    -0.390 OA
HETATM   22  C15 UNL     1      -1.734   9.177  21.247  1.00  0.00     0.177 C 
ENDBRANCH   5  16
BRANCH   3  23
HETATM   23  O4  UNL     1       1.843  12.348  23.562  1.00  0.00    -0.339 OA
ATOM     24  H4  UNL     1       2.284  12.869  24.222  1.00  0.00     0.220 HD
ENDBRANCH   3  23
BRANCH   4  25
HETATM   25  O5  UNL     1      -0.511  12.013  21.779  1.00  0.00    -0.356 OA
ATOM     26  H5  UNL     1      -0.750  11.735  20.903  1.00  0.00     0.218 HD
ENDBRANCH   4  25
TORSDOF 8
ENDMDL
