MODEL 1
REMARK VINA RESULT: -6.699876352      0.000      0.000
REMARK  8 active torsions:
REMARK  status: ('A' for Active; 'I' for Inactive)
REMARK    1  A    between atoms: C2_2  and  O1_3 
REMARK    2  A    between atoms: O1_3  and  C3_4 
REMARK    3  A    between atoms: C3_4  and  C4_6 
REMARK    4  A    between atoms: C5_7  and  N1_8 
REMARK    5  A    between atoms: N1_8  and  C6_10 
REMARK    6  A    between atoms: C6_10  and  O3_11 
REMARK    7  A    between atoms: N2_13  and  O4_15 
REMARK    8  A    between atoms: O4_15  and  C7_16 
ROOT
HETATM    1  N1  UNL     1      -2.962   8.103  23.137  1.00  0.00    -0.314 N 
ATOM      2  H1  UNL     1      -3.720   7.513  23.480  1.00  0.00     0.170 HD
ENDROOT
BRANCH   1   3
HETATM    3  C5  UNL     1      -1.751   8.207  23.908  1.00  0.00     0.102 A 
HETATM    4  C4  UNL     1      -1.225   7.321  24.798  1.00  0.00     0.102 A 
HETATM    5  C9  UNL     1      -0.056   7.629  25.419  1.00  0.00     0.097 A 
HETATM    6  S2  UNL     1       0.659   9.122  25.020  1.00  0.00    -0.038 SA
HETATM    7  S3  UNL     1       0.770   6.694  26.544  1.00  0.00    -0.070 SA
HETATM    8  S1  UNL     1      -0.821   9.649  23.688  1.00  0.00    -0.032 SA
BRANCH   4   9
HETATM    9  C3  UNL     1      -1.904   6.036  25.096  1.00  0.00     0.298 C 
HETATM   10  O2  UNL     1      -3.102   6.092  25.475  1.00  0.00    -0.259 OA
BRANCH   9  11
HETATM   11  O1  UNL     1      -1.325   4.810  24.988  1.00  0.00    -0.318 OA
BRANCH  11  12
HETATM   12  C2  UNL     1      -1.758   3.747  25.814  1.00  0.00     0.174 C 
HETATM   13  C1  UNL     1      -0.587   3.181  26.588  1.00  0.00     0.034 C 
ENDBRANCH  11  12
ENDBRANCH   9  11
ENDBRANCH   4   9
ENDBRANCH   1   3
BRANCH   1  14
HETATM   14  C6  UNL     1      -3.130   8.803  21.905  1.00  0.00     0.242 C 
HETATM   15  N2  UNL     1      -2.715   8.297  20.785  1.00  0.00    -0.223 N 
ATOM     16  H2  UNL     1      -2.260   7.385  20.765  1.00  0.00     0.198 HD
BRANCH  14  17
HETATM   17  O3  UNL     1      -3.750  10.039  21.951  1.00  0.00    -0.331 OA
ATOM     18  H3  UNL     1      -3.995  10.438  21.125  1.00  0.00     0.221 HD
ENDBRANCH  14  17
BRANCH  15  19
HETATM   19  O4  UNL     1      -2.899   9.004  19.640  1.00  0.00    -0.222 OA
BRANCH  19  20
HETATM   20  C7  UNL     1      -4.062   9.015  18.891  1.00  0.00     0.136 C 
HETATM   21  C8  UNL     1      -4.563   7.750  18.286  1.00  0.00     0.099 C 
HETATM   22  N3  UNL     1      -4.681  10.140  18.742  1.00  0.00    -0.382 N 
ATOM     23  H32 UNL     1      -4.337  11.007  19.156  1.00  0.00     0.158 HD
ATOM     24  H31 UNL     1      -5.539  10.148  18.190  1.00  0.00     0.158 HD
ENDBRANCH  19  20
ENDBRANCH  15  19
ENDBRANCH   1  14
TORSDOF 8
ENDMDL
MODEL 2
REMARK VINA RESULT: -6.590858243      4.037      6.702
REMARK  8 active torsions:
REMARK  status: ('A' for Active; 'I' for Inactive)
REMARK    1  A    between atoms: C2_2  and  O1_3 
REMARK    2  A    between atoms: O1_3  and  C3_4 
REMARK    3  A    between atoms: C3_4  and  C4_6 
REMARK    4  A    between atoms: C5_7  and  N1_8 
REMARK    5  A    between atoms: N1_8  and  C6_10 
REMARK    6  A    between atoms: C6_10  and  O3_11 
REMARK    7  A    between atoms: N2_13  and  O4_15 
REMARK    8  A    between atoms: O4_15  and  C7_16 
ROOT
HETATM    1  N1  UNL     1      -0.926  10.605  20.995  1.00  0.00    -0.314 N 
ATOM      2  H1  UNL     1      -0.037  10.442  20.523  1.00  0.00     0.170 HD
ENDROOT
BRANCH   1   3
HETATM    3  C5  UNL     1      -2.058  11.052  20.227  1.00  0.00     0.102 A 
HETATM    4  C4  UNL     1      -3.230  10.407  19.977  1.00  0.00     0.102 A 
HETATM    5  C9  UNL     1      -4.171  11.025  19.217  1.00  0.00     0.097 A 
HETATM    6  S2  UNL     1      -3.793  12.579  18.634  1.00  0.00    -0.038 SA
HETATM    7  S3  UNL     1      -5.680  10.424  18.783  1.00  0.00    -0.070 SA
HETATM    8  S1  UNL     1      -1.931  12.623  19.513  1.00  0.00    -0.032 SA
BRANCH   4   9
HETATM    9  C3  UNL     1      -3.493   9.052  20.520  1.00  0.00     0.298 C 
HETATM   10  O2  UNL     1      -2.751   8.118  20.120  1.00  0.00    -0.259 OA
BRANCH   9  11
HETATM   11  O1  UNL     1      -4.473   8.751  21.414  1.00  0.00    -0.318 OA
BRANCH  11  12
HETATM   12  C2  UNL     1      -4.304   9.064  22.783  1.00  0.00     0.174 C 
HETATM   13  C1  UNL     1      -4.893  10.426  23.080  1.00  0.00     0.034 C 
ENDBRANCH  11  12
ENDBRANCH   9  11
ENDBRANCH   4   9
ENDBRANCH   1   3
BRANCH   1  14
HETATM   14  C6  UNL     1      -1.016  10.383  22.402  1.00  0.00     0.242 C 
HETATM   15  N2  UNL     1      -0.685   9.242  22.923  1.00  0.00    -0.223 N 
ATOM     16  H2  UNL     1      -0.354   8.479  22.333  1.00  0.00     0.198 HD
BRANCH  14  17
HETATM   17  O3  UNL     1      -1.467  11.429  23.187  1.00  0.00    -0.331 OA
ATOM     18  H3  UNL     1      -1.027  11.578  24.015  1.00  0.00     0.221 HD
ENDBRANCH  14  17
BRANCH  15  19
HETATM   19  O4  UNL     1      -0.788   9.081  24.268  1.00  0.00    -0.222 OA
BRANCH  19  20
HETATM   20  C7  UNL     1       0.266   8.794  25.117  1.00  0.00     0.136 C 
HETATM   21  C8  UNL     1       0.398   7.428  25.694  1.00  0.00     0.099 C 
HETATM   22  N3  UNL     1       1.110   9.737  25.381  1.00  0.00    -0.382 N 
ATOM     23  H32 UNL     1       1.019  10.673  24.985  1.00  0.00     0.158 HD
ATOM     24  H31 UNL     1       1.888   9.525  26.007  1.00  0.00     0.158 HD
ENDBRANCH  19  20
ENDBRANCH  15  19
ENDBRANCH   1  14
TORSDOF 8
ENDMDL
MODEL 3
REMARK VINA RESULT: -6.559090399      2.121      6.563
REMARK  8 active torsions:
REMARK  status: ('A' for Active; 'I' for Inactive)
REMARK    1  A    between atoms: C2_2  and  O1_3 
REMARK    2  A    between atoms: O1_3  and  C3_4 
REMARK    3  A    between atoms: C3_4  and  C4_6 
REMARK    4  A    between atoms: C5_7  and  N1_8 
REMARK    5  A    between atoms: N1_8  and  C6_10 
REMARK    6  A    between atoms: C6_10  and  O3_11 
REMARK    7  A    between atoms: N2_13  and  O4_15 
REMARK    8  A    between atoms: O4_15  and  C7_16 
ROOT
HETATM    1  N1  UNL     1      -2.621   7.707  23.636  1.00  0.00    -0.314 N 
ATOM      2  H1  UNL     1      -3.633   7.586  23.678  1.00  0.00     0.170 HD
ENDROOT
BRANCH   1   3
HETATM    3  C5  UNL     1      -2.080   8.882  23.004  1.00  0.00     0.102 A 
HETATM    4  C4  UNL     1      -2.449   9.468  21.832  1.00  0.00     0.102 A 
HETATM    5  C9  UNL     1      -1.793  10.585  21.421  1.00  0.00     0.097 A 
HETATM    6  S2  UNL     1      -0.547  11.162  22.427  1.00  0.00    -0.038 SA
HETATM    7  S3  UNL     1      -2.076  11.469  20.020  1.00  0.00    -0.070 SA
HETATM    8  S1  UNL     1      -0.784   9.673  23.831  1.00  0.00    -0.032 SA
BRANCH   4   9
HETATM    9  C3  UNL     1      -3.547   8.910  21.005  1.00  0.00     0.298 C 
HETATM   10  O2  UNL     1      -4.712   8.980  21.472  1.00  0.00    -0.259 OA
BRANCH   9  11
HETATM   11  O1  UNL     1      -3.382   8.331  19.785  1.00  0.00    -0.318 OA
BRANCH  11  12
HETATM   12  C2  UNL     1      -4.267   8.642  18.727  1.00  0.00     0.174 C 
HETATM   13  C1  UNL     1      -4.556   7.401  17.910  1.00  0.00     0.034 C 
ENDBRANCH  11  12
ENDBRANCH   9  11
ENDBRANCH   4   9
ENDBRANCH   1   3
BRANCH   1  14
HETATM   14  C6  UNL     1      -1.778   6.707  24.206  1.00  0.00     0.242 C 
HETATM   15  N2  UNL     1      -1.887   6.369  25.453  1.00  0.00    -0.223 N 
ATOM     16  H2  UNL     1      -2.582   6.815  26.052  1.00  0.00     0.198 HD
BRANCH  14  17
HETATM   17  O3  UNL     1      -0.841   6.113  23.379  1.00  0.00    -0.331 OA
ATOM     18  H3  UNL     1      -0.011   5.861  23.766  1.00  0.00     0.221 HD
ENDBRANCH  14  17
BRANCH  15  19
HETATM   19  O4  UNL     1      -1.060   5.411  25.948  1.00  0.00    -0.222 OA
BRANCH  19  20
HETATM   20  C7  UNL     1      -1.314   4.052  25.920  1.00  0.00     0.136 C 
HETATM   21  C8  UNL     1      -0.486   3.128  26.743  1.00  0.00     0.099 C 
HETATM   22  N3  UNL     1      -2.277   3.627  25.168  1.00  0.00    -0.382 N 
ATOM     23  H32 UNL     1      -2.844   4.259  24.604  1.00  0.00     0.158 HD
ATOM     24  H31 UNL     1      -2.464   2.624  25.148  1.00  0.00     0.158 HD
ENDBRANCH  19  20
ENDBRANCH  15  19
ENDBRANCH   1  14
TORSDOF 8
ENDMDL
MODEL 4
REMARK VINA RESULT: -6.499285718      2.329      6.699
REMARK  8 active torsions:
REMARK  status: ('A' for Active; 'I' for Inactive)
REMARK    1  A    between atoms: C2_2  and  O1_3 
REMARK    2  A    between atoms: O1_3  and  C3_4 
REMARK    3  A    between atoms: C3_4  and  C4_6 
REMARK    4  A    between atoms: C5_7  and  N1_8 
REMARK    5  A    between atoms: N1_8  and  C6_10 
REMARK    6  A    between atoms: C6_10  and  O3_11 
REMARK    7  A    between atoms: N2_13  and  O4_15 
REMARK    8  A    between atoms: O4_15  and  C7_16 
ROOT
HETATM    1  N1  UNL     1      -2.528   7.691  23.566  1.00  0.00    -0.314 N 
ATOM      2  H1  UNL     1      -3.530   7.503  23.574  1.00  0.00     0.170 HD
ENDROOT
BRANCH   1   3
HETATM    3  C5  UNL     1      -2.044   8.890  22.933  1.00  0.00     0.102 A 
HETATM    4  C4  UNL     1      -2.465   9.477  21.780  1.00  0.00     0.102 A 
HETATM    5  C9  UNL     1      -1.857  10.619  21.364  1.00  0.00     0.097 A 
HETATM    6  S2  UNL     1      -0.602  11.224  22.341  1.00  0.00    -0.038 SA
HETATM    7  S3  UNL     1      -2.209  11.510  19.983  1.00  0.00    -0.070 SA
HETATM    8  S1  UNL     1      -0.749   9.713  23.732  1.00  0.00    -0.032 SA
BRANCH   4   9
HETATM    9  C3  UNL     1      -3.568   8.893  20.978  1.00  0.00     0.298 C 
HETATM   10  O2  UNL     1      -4.726   8.951  21.465  1.00  0.00    -0.259 OA
BRANCH   9  11
HETATM   11  O1  UNL     1      -3.415   8.304  19.762  1.00  0.00    -0.318 OA
BRANCH  11  12
HETATM   12  C2  UNL     1      -4.288   8.636  18.699  1.00  0.00     0.174 C 
HETATM   13  C1  UNL     1      -4.626   7.396  17.899  1.00  0.00     0.034 C 
ENDBRANCH  11  12
ENDBRANCH   9  11
ENDBRANCH   4   9
ENDBRANCH   1   3
BRANCH   1  14
HETATM   14  C6  UNL     1      -1.641   6.759  24.184  1.00  0.00     0.242 C 
HETATM   15  N2  UNL     1      -1.703   6.517  25.456  1.00  0.00    -0.223 N 
ATOM     16  H2  UNL     1      -2.390   6.992  26.042  1.00  0.00     0.198 HD
BRANCH  14  17
HETATM   17  O3  UNL     1      -0.716   6.124  23.374  1.00  0.00    -0.331 OA
ATOM     18  H3  UNL     1      -0.168   5.458  23.773  1.00  0.00     0.221 HD
ENDBRANCH  14  17
BRANCH  15  19
HETATM   19  O4  UNL     1      -0.836   5.621  25.996  1.00  0.00    -0.222 OA
BRANCH  19  20
HETATM   20  C7  UNL     1       0.393   5.937  26.546  1.00  0.00     0.136 C 
HETATM   21  C8  UNL     1       1.000   5.037  27.565  1.00  0.00     0.099 C 
HETATM   22  N3  UNL     1       0.978   7.019  26.149  1.00  0.00    -0.382 N 
ATOM     23  H32 UNL     1       0.562   7.636  25.452  1.00  0.00     0.158 HD
ATOM     24  H31 UNL     1       1.885   7.252  26.556  1.00  0.00     0.158 HD
ENDBRANCH  19  20
ENDBRANCH  15  19
ENDBRANCH   1  14
TORSDOF 8
ENDMDL
MODEL 5
REMARK VINA RESULT: -6.473754330      1.783      2.363
REMARK  8 active torsions:
REMARK  status: ('A' for Active; 'I' for Inactive)
REMARK    1  A    between atoms: C2_2  and  O1_3 
REMARK    2  A    between atoms: O1_3  and  C3_4 
REMARK    3  A    between atoms: C3_4  and  C4_6 
REMARK    4  A    between atoms: C5_7  and  N1_8 
REMARK    5  A    between atoms: N1_8  and  C6_10 
REMARK    6  A    between atoms: C6_10  and  O3_11 
REMARK    7  A    between atoms: N2_13  and  O4_15 
REMARK    8  A    between atoms: O4_15  and  C7_16 
ROOT
HETATM    1  N1  UNL     1      -2.456   8.122  21.156  1.00  0.00    -0.314 N 
ATOM      2  H1  UNL     1      -2.073   7.237  20.824  1.00  0.00     0.170 HD
ENDROOT
BRANCH   1   3
HETATM    3  C5  UNL     1      -1.679   8.928  22.060  1.00  0.00     0.102 A 
HETATM    4  C4  UNL     1      -1.090   8.570  23.234  1.00  0.00     0.102 A 
HETATM    5  C9  UNL     1      -0.396   9.506  23.933  1.00  0.00     0.097 A 
HETATM    6  S2  UNL     1      -0.322  11.070  23.266  1.00  0.00    -0.038 SA
HETATM    7  S3  UNL     1       0.406   9.291  25.394  1.00  0.00    -0.070 SA
HETATM    8  S1  UNL     1      -1.448  10.583  21.612  1.00  0.00    -0.032 SA
BRANCH   4   9
HETATM    9  C3  UNL     1      -1.195   7.185  23.756  1.00  0.00     0.298 C 
HETATM   10  O2  UNL     1      -0.486   6.307  23.203  1.00  0.00    -0.259 OA
BRANCH   9  11
HETATM   11  O1  UNL     1      -2.000   6.803  24.783  1.00  0.00    -0.318 OA
BRANCH  11  12
HETATM   12  C2  UNL     1      -1.570   5.803  25.686  1.00  0.00     0.174 C 
HETATM   13  C1  UNL     1      -2.425   4.563  25.533  1.00  0.00     0.034 C 
ENDBRANCH  11  12
ENDBRANCH   9  11
ENDBRANCH   4   9
ENDBRANCH   1   3
BRANCH   1  14
HETATM   14  C6  UNL     1      -3.750   8.528  20.712  1.00  0.00     0.242 C 
HETATM   15  N2  UNL     1      -4.048   8.557  19.450  1.00  0.00    -0.223 N 
ATOM     16  H2  UNL     1      -3.359   8.288  18.749  1.00  0.00     0.198 HD
BRANCH  14  17
HETATM   17  O3  UNL     1      -4.673   8.890  21.678  1.00  0.00    -0.331 OA
ATOM     18  H3  UNL     1      -5.567   8.588  21.566  1.00  0.00     0.221 HD
ENDBRANCH  14  17
BRANCH  15  19
HETATM   19  O4  UNL     1      -5.294   8.951  19.080  1.00  0.00    -0.222 OA
BRANCH  19  20
HETATM   20  C7  UNL     1      -5.589  10.124  18.407  1.00  0.00     0.136 C 
HETATM   21  C8  UNL     1      -4.766  11.341  18.650  1.00  0.00     0.099 C 
HETATM   22  N3  UNL     1      -6.583  10.119  17.581  1.00  0.00    -0.382 N 
ATOM     23  H32 UNL     1      -7.147   9.285  17.415  1.00  0.00     0.158 HD
ATOM     24  H31 UNL     1      -6.800  10.984  17.085  1.00  0.00     0.158 HD
ENDBRANCH  19  20
ENDBRANCH  15  19
ENDBRANCH   1  14
TORSDOF 8
ENDMDL
