MODEL 1
REMARK VINA RESULT: -9.002910438      0.000      0.000
REMARK  4 active torsions:
REMARK  status: ('A' for Active; 'I' for Inactive)
REMARK    1  A    between atoms: C2_2  and  S1_3 
REMARK    2  A    between atoms: C2_2  and  C11_17 
REMARK    3  A    between atoms: S1_3  and  C3_4 
REMARK    4  A    between atoms: C4_10  and  C5_11 
REMARK       I    between atoms: C11_17  and  N3_19 
REMARK       I    between atoms: N3_19  and  C12_21 
ROOT
HETATM    1  C3  UNL     1      -1.473   9.912  23.155  1.00  0.00     0.101 A 
HETATM    2  N1  UNL     1      -1.171  11.093  22.630  1.00  0.00    -0.305 N 
ATOM      3  H1  UNL     1      -1.733  11.647  21.984  1.00  0.00     0.176 HD
HETATM    4  S2  UNL     1       0.331  11.476  23.256  1.00  0.00     0.068 SA
HETATM    5  N2  UNL     1       0.549  10.101  24.190  1.00  0.00    -0.313 N 
ATOM      6  H2  UNL     1       1.351   9.875  24.777  1.00  0.00     0.175 HD
HETATM    7  C4  UNL     1      -0.548   9.364  24.003  1.00  0.00     0.055 A 
ENDROOT
BRANCH   1   8
HETATM    8  S1  UNL     1      -3.041   9.072  22.773  1.00  0.00    -0.096 SA
BRANCH   8   9
HETATM    9  C2  UNL     1      -3.791   9.838  21.302  1.00  0.00     0.142 C 
HETATM   10  C1  UNL     1      -5.210  10.187  21.686  1.00  0.00     0.031 C 
BRANCH   9  11
HETATM   11  C11 UNL     1      -3.781   8.885  20.154  1.00  0.00     0.237 C 
HETATM   12  O1  UNL     1      -2.818   8.102  19.998  1.00  0.00    -0.272 OA
HETATM   13  N3  UNL     1      -4.850   8.852  19.230  1.00  0.00    -0.300 N 
HETATM   14  C12 UNL     1      -4.907   7.981  18.123  1.00  0.00     0.188 C 
ATOM     15  H3  UNL     1      -5.628   9.496  19.372  1.00  0.00     0.171 HD
HETATM   16  N4  UNL     1      -5.901   7.978  17.300  1.00  0.00    -0.373 N 
HETATM   17  N5  UNL     1      -3.832   7.067  17.896  1.00  0.00    -0.064 NA
ATOM     18  H42 UNL     1      -6.668   8.631  17.462  1.00  0.00     0.158 HD
ATOM     19  H41 UNL     1      -5.942   7.348  16.500  1.00  0.00     0.158 HD
ENDBRANCH   9  11
ENDBRANCH   8   9
ENDBRANCH   1   8
BRANCH   7  20
HETATM   20  C5  UNL     1      -0.659   8.043  24.712  1.00  0.00     0.039 C 
HETATM   21  C6  UNL     1       0.527   7.835  25.625  1.00  0.00     0.011 C 
HETATM   22  C7  UNL     1       0.195   6.690  26.526  1.00  0.00     0.001 C 
HETATM   23  C8  UNL     1      -0.198   5.440  25.806  1.00  0.00     0.000 C 
HETATM   24  C9  UNL     1      -1.090   5.659  24.622  1.00  0.00     0.001 C 
HETATM   25  C10 UNL     1      -0.685   6.865  23.788  1.00  0.00     0.011 C 
ENDBRANCH   7  20
TORSDOF 4
ENDMDL
MODEL 2
REMARK VINA RESULT: -8.664530684      3.013      4.716
REMARK  4 active torsions:
REMARK  status: ('A' for Active; 'I' for Inactive)
REMARK    1  A    between atoms: C2_2  and  S1_3 
REMARK    2  A    between atoms: C2_2  and  C11_17 
REMARK    3  A    between atoms: S1_3  and  C3_4 
REMARK    4  A    between atoms: C4_10  and  C5_11 
REMARK       I    between atoms: C11_17  and  N3_19 
REMARK       I    between atoms: N3_19  and  C12_21 
ROOT
HETATM    1  C3  UNL     1      -1.763   6.186  24.933  1.00  0.00     0.101 A 
HETATM    2  N1  UNL     1      -3.033   6.474  24.675  1.00  0.00    -0.305 N 
ATOM      3  H1  UNL     1      -3.401   6.997  23.881  1.00  0.00     0.176 HD
HETATM    4  S2  UNL     1      -3.900   5.795  25.933  1.00  0.00     0.068 SA
HETATM    5  N2  UNL     1      -2.606   5.146  26.779  1.00  0.00    -0.313 N 
ATOM      6  H2  UNL     1      -2.641   4.617  27.651  1.00  0.00     0.175 HD
HETATM    7  C4  UNL     1      -1.520   5.465  26.073  1.00  0.00     0.055 A 
ENDROOT
BRANCH   1   8
HETATM    8  S1  UNL     1      -0.421   6.713  23.826  1.00  0.00    -0.096 SA
BRANCH   8   9
HETATM    9  C2  UNL     1      -0.263   8.526  23.893  1.00  0.00     0.142 C 
HETATM   10  C1  UNL     1      -0.201   8.890  25.358  1.00  0.00     0.031 C 
BRANCH   9  11
HETATM   11  C11 UNL     1      -1.436   9.177  23.242  1.00  0.00     0.237 C 
HETATM   12  O1  UNL     1      -1.779  10.331  23.579  1.00  0.00    -0.272 OA
HETATM   13  N3  UNL     1      -2.176   8.505  22.241  1.00  0.00    -0.300 N 
HETATM   14  C12 UNL     1      -3.295   9.057  21.586  1.00  0.00     0.188 C 
ATOM     15  H3  UNL     1      -1.883   7.564  21.978  1.00  0.00     0.171 HD
HETATM   16  N4  UNL     1      -3.945   8.414  20.676  1.00  0.00    -0.373 N 
HETATM   17  N5  UNL     1      -3.732  10.372  21.934  1.00  0.00    -0.064 NA
ATOM     18  H42 UNL     1      -3.634   7.474  20.428  1.00  0.00     0.158 HD
ATOM     19  H41 UNL     1      -4.755   8.813  20.202  1.00  0.00     0.158 HD
ENDBRANCH   9  11
ENDBRANCH   8   9
ENDBRANCH   1   8
BRANCH   7  20
HETATM   20  C5  UNL     1      -0.174   5.023  26.578  1.00  0.00     0.039 C 
HETATM   21  C6  UNL     1      -0.256   3.622  27.137  1.00  0.00     0.011 C 
HETATM   22  C7  UNL     1       1.145   3.133  27.309  1.00  0.00     0.001 C 
HETATM   23  C8  UNL     1       2.007   4.029  28.139  1.00  0.00     0.000 C 
HETATM   24  C9  UNL     1       1.822   5.491  27.873  1.00  0.00     0.001 C 
HETATM   25  C10 UNL     1       0.364   5.880  27.682  1.00  0.00     0.011 C 
ENDBRANCH   7  20
TORSDOF 4
ENDMDL
MODEL 3
REMARK VINA RESULT: -8.496969112      3.805      6.101
REMARK  4 active torsions:
REMARK  status: ('A' for Active; 'I' for Inactive)
REMARK    1  A    between atoms: C2_2  and  S1_3 
REMARK    2  A    between atoms: C2_2  and  C11_17 
REMARK    3  A    between atoms: S1_3  and  C3_4 
REMARK    4  A    between atoms: C4_10  and  C5_11 
REMARK       I    between atoms: C11_17  and  N3_19 
REMARK       I    between atoms: N3_19  and  C12_21 
ROOT
HETATM    1  C3  UNL     1      -1.790   6.551  25.008  1.00  0.00     0.101 A 
HETATM    2  N1  UNL     1      -3.059   6.749  24.675  1.00  0.00    -0.305 N 
ATOM      3  H1  UNL     1      -3.425   7.421  24.000  1.00  0.00     0.176 HD
HETATM    4  S2  UNL     1      -3.929   5.663  25.600  1.00  0.00     0.068 SA
HETATM    5  N2  UNL     1      -2.637   4.964  26.408  1.00  0.00    -0.313 N 
ATOM      6  H2  UNL     1      -2.675   4.220  27.105  1.00  0.00     0.175 HD
HETATM    7  C4  UNL     1      -1.549   5.584  25.948  1.00  0.00     0.055 A 
ENDROOT
BRANCH   1   8
HETATM    8  S1  UNL     1      -0.443   7.507  24.248  1.00  0.00    -0.096 SA
BRANCH   8   9
HETATM    9  C2  UNL     1      -1.126   9.020  23.500  1.00  0.00     0.142 C 
HETATM   10  C1  UNL     1      -1.434   8.677  22.061  1.00  0.00     0.031 C 
BRANCH   9  11
HETATM   11  C11 UNL     1      -0.135  10.132  23.571  1.00  0.00     0.237 C 
HETATM   12  O1  UNL     1      -0.333  11.190  22.936  1.00  0.00    -0.272 OA
HETATM   13  N3  UNL     1       1.038  10.008  24.352  1.00  0.00    -0.300 N 
HETATM   14  C12 UNL     1       2.018  11.015  24.464  1.00  0.00     0.188 C 
ATOM     15  H3  UNL     1       1.184   9.139  24.864  1.00  0.00     0.171 HD
HETATM   16  N4  UNL     1       3.076  10.867  25.187  1.00  0.00    -0.373 N 
HETATM   17  N5  UNL     1       1.843  12.244  23.756  1.00  0.00    -0.064 NA
ATOM     18  H42 UNL     1       3.202   9.990  25.693  1.00  0.00     0.158 HD
ATOM     19  H41 UNL     1       3.785  11.596  25.269  1.00  0.00     0.158 HD
ENDBRANCH   9  11
ENDBRANCH   8   9
ENDBRANCH   1   8
BRANCH   7  20
HETATM   20  C5  UNL     1      -0.206   5.180  26.489  1.00  0.00     0.039 C 
HETATM   21  C6  UNL     1      -0.262   3.777  27.045  1.00  0.00     0.011 C 
HETATM   22  C7  UNL     1       1.147   3.327  27.254  1.00  0.00     0.001 C 
HETATM   23  C8  UNL     1       1.961   4.247  28.107  1.00  0.00     0.000 C 
HETATM   24  C9  UNL     1       1.742   5.704  27.835  1.00  0.00     0.001 C 
HETATM   25  C10 UNL     1       0.279   6.052  27.606  1.00  0.00     0.011 C 
ENDBRANCH   7  20
TORSDOF 4
ENDMDL
MODEL 4
REMARK VINA RESULT: -8.479987546      1.734      2.049
REMARK  4 active torsions:
REMARK  status: ('A' for Active; 'I' for Inactive)
REMARK    1  A    between atoms: C2_2  and  S1_3 
REMARK    2  A    between atoms: C2_2  and  C11_17 
REMARK    3  A    between atoms: S1_3  and  C3_4 
REMARK    4  A    between atoms: C4_10  and  C5_11 
REMARK       I    between atoms: C11_17  and  N3_19 
REMARK       I    between atoms: N3_19  and  C12_21 
ROOT
HETATM    1  C3  UNL     1      -0.595  10.454  23.627  1.00  0.00     0.101 A 
HETATM    2  N1  UNL     1       0.010  11.576  23.260  1.00  0.00    -0.305 N 
ATOM      3  H1  UNL     1      -0.390  12.353  22.734  1.00  0.00     0.176 HD
HETATM    4  S2  UNL     1       1.571  11.441  23.844  1.00  0.00     0.068 SA
HETATM    5  N2  UNL     1       1.420   9.932  24.557  1.00  0.00    -0.313 N 
ATOM      6  H2  UNL     1       2.140   9.411  25.058  1.00  0.00     0.175 HD
HETATM    7  C4  UNL     1       0.160   9.554  24.332  1.00  0.00     0.055 A 
ENDROOT
BRANCH   1   8
HETATM    8  S1  UNL     1      -2.339  10.134  23.224  1.00  0.00    -0.096 SA
BRANCH   8   9
HETATM    9  C2  UNL     1      -2.440   9.295  21.611  1.00  0.00     0.142 C 
HETATM   10  C1  UNL     1      -1.248   9.772  20.813  1.00  0.00     0.031 C 
BRANCH   9  11
HETATM   11  C11 UNL     1      -3.710   9.651  20.915  1.00  0.00     0.237 C 
HETATM   12  O1  UNL     1      -4.799   9.201  21.331  1.00  0.00    -0.272 OA
HETATM   13  N3  UNL     1      -3.703  10.495  19.780  1.00  0.00    -0.300 N 
HETATM   14  C12 UNL     1      -4.862  10.871  19.073  1.00  0.00     0.188 C 
ATOM     15  H3  UNL     1      -2.805  10.853  19.454  1.00  0.00     0.171 HD
HETATM   16  N4  UNL     1      -4.817  11.645  18.041  1.00  0.00    -0.373 N 
HETATM   17  N5  UNL     1      -6.134  10.384  19.504  1.00  0.00    -0.064 NA
ATOM     18  H42 UNL     1      -3.909  11.992  17.733  1.00  0.00     0.158 HD
ATOM     19  H41 UNL     1      -5.656  11.917  17.529  1.00  0.00     0.158 HD
ENDBRANCH   9  11
ENDBRANCH   8   9
ENDBRANCH   1   8
BRANCH   7  20
HETATM   20  C5  UNL     1      -0.296   8.219  24.851  1.00  0.00     0.039 C 
HETATM   21  C6  UNL     1       0.718   7.656  25.819  1.00  0.00     0.011 C 
HETATM   22  C7  UNL     1       0.063   6.519  26.533  1.00  0.00     0.001 C 
HETATM   23  C8  UNL     1      -0.503   5.473  25.627  1.00  0.00     0.000 C 
HETATM   24  C9  UNL     1      -1.201   6.011  24.415  1.00  0.00     0.001 C 
HETATM   25  C10 UNL     1      -0.469   7.185  23.781  1.00  0.00     0.011 C 
ENDBRANCH   7  20
TORSDOF 4
ENDMDL
MODEL 5
REMARK VINA RESULT: -8.073817887      2.272      3.099
REMARK  4 active torsions:
REMARK  status: ('A' for Active; 'I' for Inactive)
REMARK    1  A    between atoms: C2_2  and  S1_3 
REMARK    2  A    between atoms: C2_2  and  C11_17 
REMARK    3  A    between atoms: S1_3  and  C3_4 
REMARK    4  A    between atoms: C4_10  and  C5_11 
REMARK       I    between atoms: C11_17  and  N3_19 
REMARK       I    between atoms: N3_19  and  C12_21 
ROOT
HETATM    1  C3  UNL     1      -0.410   8.597  23.855  1.00  0.00     0.101 A 
HETATM    2  N1  UNL     1       0.244   9.751  23.842  1.00  0.00    -0.305 N 
ATOM      3  H1  UNL     1       0.139  10.517  23.176  1.00  0.00     0.176 HD
HETATM    4  S2  UNL     1       1.280   9.682  25.153  1.00  0.00     0.068 SA
HETATM    5  N2  UNL     1       0.852   8.157  25.702  1.00  0.00    -0.313 N 
ATOM      6  H2  UNL     1       1.232   7.663  26.510  1.00  0.00     0.175 HD
HETATM    7  C4  UNL     1      -0.088   7.723  24.861  1.00  0.00     0.055 A 
ENDROOT
BRANCH   1   8
HETATM    8  S1  UNL     1      -1.673   8.202  22.609  1.00  0.00    -0.096 SA
BRANCH   8   9
HETATM    9  C2  UNL     1      -2.978   9.472  22.651  1.00  0.00     0.142 C 
HETATM   10  C1  UNL     1      -4.251   8.755  23.036  1.00  0.00     0.031 C 
BRANCH   9  11
HETATM   11  C11 UNL     1      -3.125  10.115  21.313  1.00  0.00     0.237 C 
HETATM   12  O1  UNL     1      -3.846   9.586  20.440  1.00  0.00    -0.272 OA
HETATM   13  N3  UNL     1      -2.455  11.324  21.012  1.00  0.00    -0.300 N 
HETATM   14  C12 UNL     1      -2.546  11.985  19.772  1.00  0.00     0.188 C 
ATOM     15  H3  UNL     1      -1.871  11.742  21.737  1.00  0.00     0.171 HD
HETATM   16  N4  UNL     1      -1.921  13.089  19.533  1.00  0.00    -0.373 N 
HETATM   17  N5  UNL     1      -3.355  11.423  18.736  1.00  0.00    -0.064 NA
ATOM     18  H42 UNL     1      -1.343  13.490  20.272  1.00  0.00     0.158 HD
ATOM     19  H41 UNL     1      -1.987  13.568  18.636  1.00  0.00     0.158 HD
ENDBRANCH   9  11
ENDBRANCH   8   9
ENDBRANCH   1   8
BRANCH   7  20
HETATM   20  C5  UNL     1      -0.684   6.361  25.083  1.00  0.00     0.039 C 
HETATM   21  C6  UNL     1      -2.159   6.475  25.388  1.00  0.00     0.011 C 
HETATM   22  C7  UNL     1      -2.742   5.104  25.269  1.00  0.00     0.001 C 
HETATM   23  C8  UNL     1      -2.061   4.076  26.116  1.00  0.00     0.000 C 
HETATM   24  C9  UNL     1      -0.567   4.184  26.143  1.00  0.00     0.001 C 
HETATM   25  C10 UNL     1      -0.077   5.621  26.235  1.00  0.00     0.011 C 
ENDBRANCH   7  20
TORSDOF 4
ENDMDL
