MODEL 1
REMARK VINA RESULT: -8.280341984      0.000      0.000
REMARK  6 active torsions:
REMARK  status: ('A' for Active; 'I' for Inactive)
REMARK    1  A    between atoms: O1_2  and  C2_3 
REMARK    2  A    between atoms: C4_5  and  O2_6 
REMARK    3  A    between atoms: C7_9  and  O3_10 
REMARK    4  A    between atoms: C8_12  and  C9_13 
REMARK    5  A    between atoms: C9_13  and  O5_15 
REMARK    6  A    between atoms: O5_15  and  C10_16 
ROOT
HETATM    1  C2  UNL     1      27.687  49.042  14.605  1.00  0.00     0.073 A 
HETATM    2  C3  UNL     1      28.205  48.060  15.414  1.00  0.00     0.074 A 
HETATM    3  C4  UNL     1      28.232  46.764  14.947  1.00  0.00     0.086 A 
HETATM    4  C6  UNL     1      27.743  46.463  13.679  1.00  0.00     0.067 A 
HETATM    5  C7  UNL     1      27.640  45.280  12.949  1.00  0.00     0.121 A 
HETATM    6  C8  UNL     1      27.064  45.605  11.733  1.00  0.00     0.185 A 
HETATM    7  O6  UNL     1      26.834  46.911  11.730  1.00  0.00    -0.301 OA
HETATM    8  C16 UNL     1      27.225  47.443  12.865  1.00  0.00     0.095 A 
HETATM    9  C17 UNL     1      27.201  48.741  13.338  1.00  0.00     0.075 A 
ENDROOT
BRANCH   6  10
HETATM   10  C9  UNL     1      26.756  44.699  10.636  1.00  0.00     0.320 C 
HETATM   11  O4  UNL     1      25.605  44.775  10.094  1.00  0.00    -0.257 OA
BRANCH  10  12
HETATM   12  O5  UNL     1      27.623  43.750  10.128  1.00  0.00    -0.310 OA
BRANCH  12  13
HETATM   13  C10 UNL     1      27.423  42.348  10.377  1.00  0.00     0.132 C 
HETATM   14  C11 UNL     1      28.675  41.736  10.887  1.00  0.00     0.032 C 
HETATM   15  C12 UNL     1      29.534  41.049   9.860  1.00  0.00     0.002 C 
HETATM   16  C13 UNL     1      28.775  39.976   9.109  1.00  0.00     0.000 C 
HETATM   17  C14 UNL     1      27.282  40.264   9.111  1.00  0.00     0.002 C 
HETATM   18  C15 UNL     1      27.013  41.745   9.082  1.00  0.00     0.032 C 
ENDBRANCH  12  13
ENDBRANCH  10  12
ENDBRANCH   6  10
BRANCH   5  19
HETATM   19  O3  UNL     1      28.058  44.049  13.427  1.00  0.00    -0.357 OA
ATOM     20  H3  UNL     1      27.558  43.248  13.320  1.00  0.00     0.218 HD
ENDBRANCH   5  19
BRANCH   3  21
HETATM   21  O2  UNL     1      28.738  45.732  15.712  1.00  0.00    -0.355 OA
HETATM   22  C5  UNL     1      30.097  45.446  15.885  1.00  0.00     0.210 C 
ENDBRANCH   3  21
BRANCH   1  23
HETATM   23  O1  UNL     1      27.648  50.359  15.052  1.00  0.00    -0.356 OA
HETATM   24  C1  UNL     1      28.734  50.933  15.769  1.00  0.00     0.210 C 
ENDBRANCH   1  23
TORSDOF 6
ENDMDL
MODEL 2
REMARK VINA RESULT: -8.209882615      5.032      7.440
REMARK  6 active torsions:
REMARK  status: ('A' for Active; 'I' for Inactive)
REMARK    1  A    between atoms: O1_2  and  C2_3 
REMARK    2  A    between atoms: C4_5  and  O2_6 
REMARK    3  A    between atoms: C7_9  and  O3_10 
REMARK    4  A    between atoms: C8_12  and  C9_13 
REMARK    5  A    between atoms: C9_13  and  O5_15 
REMARK    6  A    between atoms: O5_15  and  C10_16 
ROOT
HETATM    1  C2  UNL     1      20.704  45.253   7.339  1.00  0.00     0.073 A 
HETATM    2  C3  UNL     1      21.406  45.975   8.273  1.00  0.00     0.074 A 
HETATM    3  C4  UNL     1      22.626  45.497   8.698  1.00  0.00     0.086 A 
HETATM    4  C6  UNL     1      23.131  44.305   8.187  1.00  0.00     0.067 A 
HETATM    5  C7  UNL     1      24.304  43.586   8.416  1.00  0.00     0.121 A 
HETATM    6  C8  UNL     1      24.253  42.463   7.608  1.00  0.00     0.185 A 
HETATM    7  O6  UNL     1      23.114  42.503   6.930  1.00  0.00    -0.301 OA
HETATM    8  C16 UNL     1      22.432  43.578   7.251  1.00  0.00     0.095 A 
HETATM    9  C17 UNL     1      21.209  44.063   6.828  1.00  0.00     0.075 A 
ENDROOT
BRANCH   6  10
HETATM   10  C9  UNL     1      25.253  41.412   7.500  1.00  0.00     0.320 C 
HETATM   11  O4  UNL     1      24.953  40.354   6.855  1.00  0.00    -0.257 OA
BRANCH  10  12
HETATM   12  O5  UNL     1      26.521  41.469   8.048  1.00  0.00    -0.310 OA
BRANCH  12  13
HETATM   13  C10 UNL     1      26.838  40.779   9.269  1.00  0.00     0.132 C 
HETATM   14  C11 UNL     1      27.571  41.683  10.191  1.00  0.00     0.032 C 
HETATM   15  C12 UNL     1      29.070  41.561  10.172  1.00  0.00     0.002 C 
HETATM   16  C13 UNL     1      29.530  40.148  10.458  1.00  0.00     0.000 C 
HETATM   17  C14 UNL     1      28.456  39.140  10.082  1.00  0.00     0.002 C 
HETATM   18  C15 UNL     1      27.666  39.605   8.888  1.00  0.00     0.032 C 
ENDBRANCH  12  13
ENDBRANCH  10  12
ENDBRANCH   6  10
BRANCH   5  19
HETATM   19  O3  UNL     1      25.286  43.990   9.305  1.00  0.00    -0.357 OA
ATOM     20  H3  UNL     1      25.817  43.385   9.810  1.00  0.00     0.218 HD
ENDBRANCH   5  19
BRANCH   3  21
HETATM   21  O2  UNL     1      23.380  46.175   9.635  1.00  0.00    -0.355 OA
HETATM   22  C5  UNL     1      23.359  47.559   9.840  1.00  0.00     0.210 C 
ENDBRANCH   3  21
BRANCH   1  23
HETATM   23  O1  UNL     1      19.469  45.713   6.892  1.00  0.00    -0.356 OA
HETATM   24  C1  UNL     1      19.251  46.047   5.526  1.00  0.00     0.210 C 
ENDBRANCH   1  23
TORSDOF 6
ENDMDL
MODEL 3
REMARK VINA RESULT: -8.176899250      1.017      2.803
REMARK  6 active torsions:
REMARK  status: ('A' for Active; 'I' for Inactive)
REMARK    1  A    between atoms: O1_2  and  C2_3 
REMARK    2  A    between atoms: C4_5  and  O2_6 
REMARK    3  A    between atoms: C7_9  and  O3_10 
REMARK    4  A    between atoms: C8_12  and  C9_13 
REMARK    5  A    between atoms: C9_13  and  O5_15 
REMARK    6  A    between atoms: O5_15  and  C10_16 
ROOT
HETATM    1  C2  UNL     1      29.474  46.279  15.504  1.00  0.00     0.073 A 
HETATM    2  C3  UNL     1      28.761  47.450  15.424  1.00  0.00     0.074 A 
HETATM    3  C4  UNL     1      27.881  47.617  14.377  1.00  0.00     0.086 A 
HETATM    4  C6  UNL     1      27.723  46.616  13.424  1.00  0.00     0.067 A 
HETATM    5  C7  UNL     1      26.931  46.497  12.282  1.00  0.00     0.121 A 
HETATM    6  C8  UNL     1      27.205  45.258  11.729  1.00  0.00     0.185 A 
HETATM    7  O6  UNL     1      28.111  44.665  12.493  1.00  0.00    -0.301 OA
HETATM    8  C16 UNL     1      28.435  45.442  13.501  1.00  0.00     0.095 A 
HETATM    9  C17 UNL     1      29.316  45.279  14.553  1.00  0.00     0.075 A 
ENDROOT
BRANCH   6  10
HETATM   10  C9  UNL     1      26.620  44.685  10.526  1.00  0.00     0.320 C 
HETATM   11  O4  UNL     1      25.479  45.106  10.147  1.00  0.00    -0.257 OA
BRANCH  10  12
HETATM   12  O5  UNL     1      27.212  43.705   9.751  1.00  0.00    -0.310 OA
BRANCH  12  13
HETATM   13  C10 UNL     1      27.076  42.311  10.078  1.00  0.00     0.132 C 
HETATM   14  C11 UNL     1      28.305  41.821  10.750  1.00  0.00     0.032 C 
HETATM   15  C12 UNL     1      29.306  41.132   9.864  1.00  0.00     0.002 C 
HETATM   16  C13 UNL     1      28.697  39.962   9.121  1.00  0.00     0.000 C 
HETATM   17  C14 UNL     1      27.197  40.145   8.956  1.00  0.00     0.002 C 
HETATM   18  C15 UNL     1      26.839  41.599   8.795  1.00  0.00     0.032 C 
ENDBRANCH  12  13
ENDBRANCH  10  12
ENDBRANCH   6  10
BRANCH   5  19
HETATM   19  O3  UNL     1      26.059  47.484  11.852  1.00  0.00    -0.357 OA
ATOM     20  H3  UNL     1      26.229  48.042  11.103  1.00  0.00     0.218 HD
ENDBRANCH   5  19
BRANCH   3  21
HETATM   21  O2  UNL     1      27.135  48.772  14.239  1.00  0.00    -0.355 OA
HETATM   22  C5  UNL     1      27.126  49.840  15.144  1.00  0.00     0.210 C 
ENDBRANCH   3  21
BRANCH   1  23
HETATM   23  O1  UNL     1      30.370  46.084  16.552  1.00  0.00    -0.356 OA
HETATM   24  C1  UNL     1      30.888  44.794  16.856  1.00  0.00     0.210 C 
ENDBRANCH   1  23
TORSDOF 6
ENDMDL
MODEL 4
REMARK VINA RESULT: -8.088470136      4.339      7.700
REMARK  6 active torsions:
REMARK  status: ('A' for Active; 'I' for Inactive)
REMARK    1  A    between atoms: O1_2  and  C2_3 
REMARK    2  A    between atoms: C4_5  and  O2_6 
REMARK    3  A    between atoms: C7_9  and  O3_10 
REMARK    4  A    between atoms: C8_12  and  C9_13 
REMARK    5  A    between atoms: C9_13  and  O5_15 
REMARK    6  A    between atoms: O5_15  and  C10_16 
ROOT
HETATM    1  C2  UNL     1      21.742  43.956   6.213  1.00  0.00     0.073 A 
HETATM    2  C3  UNL     1      21.257  45.092   6.815  1.00  0.00     0.074 A 
HETATM    3  C4  UNL     1      21.896  45.570   7.937  1.00  0.00     0.086 A 
HETATM    4  C6  UNL     1      23.011  44.911   8.447  1.00  0.00     0.067 A 
HETATM    5  C7  UNL     1      23.849  45.147   9.536  1.00  0.00     0.121 A 
HETATM    6  C8  UNL     1      24.800  44.141   9.540  1.00  0.00     0.185 A 
HETATM    7  O6  UNL     1      24.549  43.344   8.510  1.00  0.00    -0.301 OA
HETATM    8  C16 UNL     1      23.501  43.774   7.847  1.00  0.00     0.095 A 
HETATM    9  C17 UNL     1      22.856  43.299   6.721  1.00  0.00     0.075 A 
ENDROOT
BRANCH   6  10
HETATM   10  C9  UNL     1      25.888  43.965  10.489  1.00  0.00     0.320 C 
HETATM   11  O4  UNL     1      26.302  44.984  11.132  1.00  0.00    -0.257 OA
BRANCH  10  12
HETATM   12  O5  UNL     1      26.519  42.763  10.752  1.00  0.00    -0.310 OA
BRANCH  12  13
HETATM   13  C10 UNL     1      27.638  42.319   9.966  1.00  0.00     0.132 C 
HETATM   14  C11 UNL     1      27.200  41.294   8.986  1.00  0.00     0.032 C 
HETATM   15  C12 UNL     1      27.403  39.863   9.401  1.00  0.00     0.002 C 
HETATM   16  C13 UNL     1      28.846  39.571   9.751  1.00  0.00     0.000 C 
HETATM   17  C14 UNL     1      29.565  40.836  10.194  1.00  0.00     0.002 C 
HETATM   18  C15 UNL     1      28.632  41.766  10.922  1.00  0.00     0.032 C 
ENDBRANCH  12  13
ENDBRANCH  10  12
ENDBRANCH   6  10
BRANCH   5  19
HETATM   19  O3  UNL     1      23.687  46.213  10.406  1.00  0.00    -0.357 OA
ATOM     20  H3  UNL     1      24.176  46.307  11.215  1.00  0.00     0.218 HD
ENDBRANCH   5  19
BRANCH   3  21
HETATM   21  O2  UNL     1      21.457  46.706   8.589  1.00  0.00    -0.355 OA
HETATM   22  C5  UNL     1      21.492  48.002   8.064  1.00  0.00     0.210 C 
ENDBRANCH   3  21
BRANCH   1  23
HETATM   23  O1  UNL     1      21.115  43.452   5.078  1.00  0.00    -0.356 OA
HETATM   24  C1  UNL     1      20.731  44.300   4.002  1.00  0.00     0.210 C 
ENDBRANCH   1  23
TORSDOF 6
ENDMDL
MODEL 5
REMARK VINA RESULT: -8.045257912      1.382      2.778
REMARK  6 active torsions:
REMARK  status: ('A' for Active; 'I' for Inactive)
REMARK    1  A    between atoms: O1_2  and  C2_3 
REMARK    2  A    between atoms: C4_5  and  O2_6 
REMARK    3  A    between atoms: C7_9  and  O3_10 
REMARK    4  A    between atoms: C8_12  and  C9_13 
REMARK    5  A    between atoms: C9_13  and  O5_15 
REMARK    6  A    between atoms: O5_15  and  C10_16 
ROOT
HETATM    1  C2  UNL     1      28.043  47.807  14.585  1.00  0.00     0.073 A 
HETATM    2  C3  UNL     1      27.303  48.823  14.030  1.00  0.00     0.074 A 
HETATM    3  C4  UNL     1      26.596  48.570  12.875  1.00  0.00     0.086 A 
HETATM    4  C6  UNL     1      26.634  47.309  12.288  1.00  0.00     0.067 A 
HETATM    5  C7  UNL     1      26.040  46.764  11.150  1.00  0.00     0.121 A 
HETATM    6  C8  UNL     1      26.451  45.444  11.074  1.00  0.00     0.185 A 
HETATM    7  O6  UNL     1      27.247  45.208  12.107  1.00  0.00    -0.301 OA
HETATM    8  C16 UNL     1      27.373  46.289  12.841  1.00  0.00     0.095 A 
HETATM    9  C17 UNL     1      28.080  46.548  13.999  1.00  0.00     0.075 A 
ENDROOT
BRANCH   6  10
HETATM   10  C9  UNL     1      26.090  44.469  10.055  1.00  0.00     0.320 C 
HETATM   11  O4  UNL     1      24.902  44.485   9.596  1.00  0.00    -0.257 OA
BRANCH  10  12
HETATM   12  O5  UNL     1      26.946  43.514   9.539  1.00  0.00    -0.310 OA
BRANCH  12  13
HETATM   13  C10 UNL     1      27.003  42.187  10.090  1.00  0.00     0.132 C 
HETATM   14  C11 UNL     1      28.234  42.024  10.903  1.00  0.00     0.032 C 
HETATM   15  C12 UNL     1      29.399  41.380  10.204  1.00  0.00     0.002 C 
HETATM   16  C13 UNL     1      29.044  40.022   9.637  1.00  0.00     0.000 C 
HETATM   17  C14 UNL     1      27.553  39.922   9.360  1.00  0.00     0.002 C 
HETATM   18  C15 UNL     1      26.987  41.251   8.935  1.00  0.00     0.032 C 
ENDBRANCH  12  13
ENDBRANCH  10  12
ENDBRANCH   6  10
BRANCH   5  19
HETATM   19  O3  UNL     1      25.208  47.481  10.306  1.00  0.00    -0.357 OA
ATOM     20  H3  UNL     1      24.260  47.451  10.356  1.00  0.00     0.218 HD
ENDBRANCH   5  19
BRANCH   3  21
HETATM   21  O2  UNL     1      25.834  49.549  12.267  1.00  0.00    -0.355 OA
HETATM   22  C5  UNL     1      26.331  50.744  11.735  1.00  0.00     0.210 C 
ENDBRANCH   3  21
BRANCH   1  23
HETATM   23  O1  UNL     1      28.767  48.035  15.752  1.00  0.00    -0.356 OA
HETATM   24  C1  UNL     1      29.555  49.208  15.920  1.00  0.00     0.210 C 
ENDBRANCH   1  23
TORSDOF 6
ENDMDL
