MODEL 1
REMARK VINA RESULT: -9.297612272      0.000      0.000
REMARK  4 active torsions:
REMARK  status: ('A' for Active; 'I' for Inactive)
REMARK    1  A    between atoms: N1_2  and  C1_4 
REMARK    2  A    between atoms: C4_7  and  C5_8 
REMARK    3  A    between atoms: N2_9  and  N3_11 
REMARK    4  A    between atoms: C6_12  and  C7_13 
ROOT
HETATM    1  N3  UNL     1      25.779  43.965  10.458  1.00  0.00    -0.215 N 
HETATM    2  C6  UNL     1      26.079  42.855   9.763  1.00  0.00     0.125 A 
HETATM    3  N4  UNL     1      25.292  42.884   8.672  1.00  0.00    -0.285 N 
ATOM      4  H4  UNL     1      25.282  42.174   7.940  1.00  0.00     0.188 HD
HETATM    5  N5  UNL     1      24.531  43.972   8.686  1.00  0.00    -0.273 N 
ATOM      6  H5  UNL     1      23.847  44.232   7.974  1.00  0.00     0.189 HD
HETATM    7  C13 UNL     1      24.816  44.675   9.803  1.00  0.00     0.213 A 
HETATM    8  S1  UNL     1      24.162  46.089  10.300  1.00  0.00    -0.037 SA
ENDROOT
BRANCH   1   9
HETATM    9  N2  UNL     1      26.347  44.348  11.655  1.00  0.00    -0.299 N 
HETATM   10  C5  UNL     1      27.129  45.368  11.738  1.00  0.00     0.145 C 
ATOM     11  H2  UNL     1      26.143  43.810  12.497  1.00  0.00     0.186 HD
BRANCH  10  12
HETATM   12  C4  UNL     1      27.742  45.795  12.988  1.00  0.00     0.095 A 
HETATM   13  C3  UNL     1      27.586  47.050  13.541  1.00  0.00     0.043 A 
HETATM   14  C2  UNL     1      28.309  47.075  14.711  1.00  0.00     0.065 A 
HETATM   15  C1  UNL     1      28.878  45.825  14.818  1.00  0.00     0.215 A 
HETATM   16  O3  UNL     1      28.520  45.111  13.789  1.00  0.00    -0.287 OA
BRANCH  15  17
HETATM   17  N1  UNL     1      29.722  45.433  15.911  1.00  0.00    -0.090 N 
HETATM   18  O1  UNL     1      29.598  44.327  16.471  1.00  0.00    -0.530 OA
HETATM   19  O2  UNL     1      30.706  46.272  16.379  1.00  0.00    -0.530 OA
ENDBRANCH  15  17
ENDBRANCH  10  12
ENDBRANCH   1   9
BRANCH   2  20
HETATM   20  C7  UNL     1      27.071  41.817  10.128  1.00  0.00     0.057 C 
HETATM   21  C8  UNL     1      27.048  40.730   9.069  1.00  0.00     0.012 C 
HETATM   22  C9  UNL     1      27.928  39.604   9.624  1.00  0.00     0.001 C 
HETATM   23  C10 UNL     1      29.355  40.139   9.559  1.00  0.00     0.000 C 
HETATM   24  C11 UNL     1      29.509  41.384  10.397  1.00  0.00     0.001 C 
HETATM   25  C12 UNL     1      28.460  42.407  10.148  1.00  0.00     0.012 C 
ENDBRANCH   2  20
TORSDOF 4
ENDMDL
MODEL 2
REMARK VINA RESULT: -9.056472492      3.972      6.419
REMARK  4 active torsions:
REMARK  status: ('A' for Active; 'I' for Inactive)
REMARK    1  A    between atoms: N1_2  and  C1_4 
REMARK    2  A    between atoms: C4_7  and  C5_8 
REMARK    3  A    between atoms: N2_9  and  N3_11 
REMARK    4  A    between atoms: C6_12  and  C7_13 
ROOT
HETATM    1  N3  UNL     1      26.865  43.943  11.140  1.00  0.00    -0.215 N 
HETATM    2  C6  UNL     1      27.697  42.888  11.118  1.00  0.00     0.125 A 
HETATM    3  N4  UNL     1      28.824  43.301  11.725  1.00  0.00    -0.285 N 
ATOM      4  H4  UNL     1      29.654  42.726  11.868  1.00  0.00     0.188 HD
HETATM    5  N5  UNL     1      28.699  44.566  12.111  1.00  0.00    -0.273 N 
ATOM      6  H5  UNL     1      29.410  45.116  12.593  1.00  0.00     0.189 HD
HETATM    7  C13 UNL     1      27.471  44.999  11.754  1.00  0.00     0.213 A 
HETATM    8  S1  UNL     1      26.813  46.476  11.993  1.00  0.00    -0.037 SA
ENDROOT
BRANCH   1   9
HETATM    9  N2  UNL     1      25.585  43.975  10.623  1.00  0.00    -0.299 N 
HETATM   10  C5  UNL     1      25.331  44.501   9.477  1.00  0.00     0.145 C 
ATOM     11  H2  UNL     1      24.821  43.570  11.165  1.00  0.00     0.186 HD
BRANCH  10  12
HETATM   12  C4  UNL     1      23.991  44.548   8.908  1.00  0.00     0.095 A 
HETATM   13  C3  UNL     1      23.437  43.543   8.140  1.00  0.00     0.043 A 
HETATM   14  C2  UNL     1      22.170  43.947   7.789  1.00  0.00     0.065 A 
HETATM   15  C1  UNL     1      22.009  45.190   8.362  1.00  0.00     0.215 A 
HETATM   16  O3  UNL     1      23.099  45.500   9.005  1.00  0.00    -0.287 OA
BRANCH  15  17
HETATM   17  N1  UNL     1      20.810  45.969   8.234  1.00  0.00    -0.090 N 
HETATM   18  O1  UNL     1      19.704  45.438   8.020  1.00  0.00    -0.530 OA
HETATM   19  O2  UNL     1      20.843  47.339   8.345  1.00  0.00    -0.530 OA
ENDBRANCH  15  17
ENDBRANCH  10  12
ENDBRANCH   1   9
BRANCH   2  20
HETATM   20  C7  UNL     1      27.424  41.550  10.544  1.00  0.00     0.057 C 
HETATM   21  C8  UNL     1      27.174  41.705   9.055  1.00  0.00     0.012 C 
HETATM   22  C9  UNL     1      26.689  40.330   8.580  1.00  0.00     0.001 C 
HETATM   23  C10 UNL     1      27.915  39.425   8.646  1.00  0.00     0.000 C 
HETATM   24  C11 UNL     1      28.449  39.333  10.055  1.00  0.00     0.001 C 
HETATM   25  C12 UNL     1      28.626  40.653  10.715  1.00  0.00     0.012 C 
ENDBRANCH   2  20
TORSDOF 4
ENDMDL
MODEL 3
REMARK VINA RESULT: -8.990454793      3.903      6.520
REMARK  4 active torsions:
REMARK  status: ('A' for Active; 'I' for Inactive)
REMARK    1  A    between atoms: N1_2  and  C1_4 
REMARK    2  A    between atoms: C4_7  and  C5_8 
REMARK    3  A    between atoms: N2_9  and  N3_11 
REMARK    4  A    between atoms: C6_12  and  C7_13 
ROOT
HETATM    1  N3  UNL     1      27.213  44.598  10.917  1.00  0.00    -0.215 N 
HETATM    2  C6  UNL     1      28.082  43.575  10.971  1.00  0.00     0.125 A 
HETATM    3  N4  UNL     1      28.882  43.831  12.022  1.00  0.00    -0.285 N 
ATOM      4  H4  UNL     1      29.650  43.236  12.329  1.00  0.00     0.188 HD
HETATM    5  N5  UNL     1      28.524  44.971  12.602  1.00  0.00    -0.273 N 
ATOM      6  H5  UNL     1      28.969  45.391  13.419  1.00  0.00     0.189 HD
HETATM    7  C13 UNL     1      27.472  45.480  11.925  1.00  0.00     0.213 A 
HETATM    8  S1  UNL     1      26.653  46.863  12.224  1.00  0.00    -0.037 SA
ENDROOT
BRANCH   1   9
HETATM    9  N2  UNL     1      26.203  44.754   9.990  1.00  0.00    -0.299 N 
HETATM   10  C5  UNL     1      24.992  44.399  10.242  1.00  0.00     0.145 C 
ATOM     11  H2  UNL     1      26.422  45.162   9.081  1.00  0.00     0.186 HD
BRANCH  10  12
HETATM   12  C4  UNL     1      23.907  44.552   9.282  1.00  0.00     0.095 A 
HETATM   13  C3  UNL     1      23.739  43.758   8.166  1.00  0.00     0.043 A 
HETATM   14  C2  UNL     1      22.614  44.203   7.512  1.00  0.00     0.065 A 
HETATM   15  C1  UNL     1      22.145  45.258   8.264  1.00  0.00     0.215 A 
HETATM   16  O3  UNL     1      22.932  45.426   9.288  1.00  0.00    -0.287 OA
BRANCH  15  17
HETATM   17  N1  UNL     1      20.972  46.012   7.922  1.00  0.00    -0.090 N 
HETATM   18  O1  UNL     1      21.047  47.160   7.446  1.00  0.00    -0.530 OA
HETATM   19  O2  UNL     1      19.715  45.485   8.109  1.00  0.00    -0.530 OA
ENDBRANCH  15  17
ENDBRANCH  10  12
ENDBRANCH   1   9
BRANCH   2  20
HETATM   20  C7  UNL     1      28.142  42.410  10.058  1.00  0.00     0.057 C 
HETATM   21  C8  UNL     1      29.456  41.685  10.284  1.00  0.00     0.012 C 
HETATM   22  C9  UNL     1      29.539  40.637   9.168  1.00  0.00     0.001 C 
HETATM   23  C10 UNL     1      28.486  39.590   9.518  1.00  0.00     0.000 C 
HETATM   24  C11 UNL     1      27.107  40.199   9.563  1.00  0.00     0.001 C 
HETATM   25  C12 UNL     1      27.026  41.443  10.373  1.00  0.00     0.012 C 
ENDBRANCH   2  20
TORSDOF 4
ENDMDL
MODEL 4
REMARK VINA RESULT: -8.866970382      1.145      1.439
REMARK  4 active torsions:
REMARK  status: ('A' for Active; 'I' for Inactive)
REMARK    1  A    between atoms: N1_2  and  C1_4 
REMARK    2  A    between atoms: C4_7  and  C5_8 
REMARK    3  A    between atoms: N2_9  and  N3_11 
REMARK    4  A    between atoms: C6_12  and  C7_13 
ROOT
HETATM    1  N3  UNL     1      25.803  44.123  10.609  1.00  0.00    -0.215 N 
HETATM    2  C6  UNL     1      26.082  43.046   9.855  1.00  0.00     0.125 A 
HETATM    3  N4  UNL     1      25.338  43.178   8.742  1.00  0.00    -0.285 N 
ATOM      4  H4  UNL     1      25.326  42.516   7.967  1.00  0.00     0.188 HD
HETATM    5  N5  UNL     1      24.622  44.295   8.800  1.00  0.00    -0.273 N 
ATOM      6  H5  UNL     1      23.976  44.628   8.083  1.00  0.00     0.189 HD
HETATM    7  C13 UNL     1      24.895  44.914   9.969  1.00  0.00     0.213 A 
HETATM    8  S1  UNL     1      24.282  46.320  10.533  1.00  0.00    -0.037 SA
ENDROOT
BRANCH   1   9
HETATM    9  N2  UNL     1      26.342  44.405  11.847  1.00  0.00    -0.299 N 
HETATM   10  C5  UNL     1      27.104  45.424  12.037  1.00  0.00     0.145 C 
ATOM     11  H2  UNL     1      26.131  43.790  12.633  1.00  0.00     0.186 HD
BRANCH  10  12
HETATM   12  C4  UNL     1      27.687  45.746  13.333  1.00  0.00     0.095 A 
HETATM   13  C3  UNL     1      27.885  44.829  14.346  1.00  0.00     0.043 A 
HETATM   14  C2  UNL     1      28.451  45.502  15.403  1.00  0.00     0.065 A 
HETATM   15  C1  UNL     1      28.572  46.809  14.984  1.00  0.00     0.215 A 
HETATM   16  O3  UNL     1      28.112  46.905  13.769  1.00  0.00    -0.287 OA
BRANCH  15  17
HETATM   17  N1  UNL     1      29.123  47.853  15.802  1.00  0.00    -0.090 N 
HETATM   18  O1  UNL     1      30.285  47.793  16.245  1.00  0.00    -0.530 OA
HETATM   19  O2  UNL     1      28.379  48.963  16.125  1.00  0.00    -0.530 OA
ENDBRANCH  15  17
ENDBRANCH  10  12
ENDBRANCH   1   9
BRANCH   2  20
HETATM   20  C7  UNL     1      27.016  41.945  10.187  1.00  0.00     0.057 C 
HETATM   21  C8  UNL     1      26.954  40.908   9.081  1.00  0.00     0.012 C 
HETATM   22  C9  UNL     1      27.770  39.716   9.596  1.00  0.00     0.001 C 
HETATM   23  C10 UNL     1      29.223  40.181   9.572  1.00  0.00     0.000 C 
HETATM   24  C11 UNL     1      29.426  41.379  10.466  1.00  0.00     0.001 C 
HETATM   25  C12 UNL     1      28.433  42.464  10.249  1.00  0.00     0.012 C 
ENDBRANCH   2  20
TORSDOF 4
ENDMDL
MODEL 5
REMARK VINA RESULT: -8.605040625      3.933      6.118
REMARK  4 active torsions:
REMARK  status: ('A' for Active; 'I' for Inactive)
REMARK    1  A    between atoms: N1_2  and  C1_4 
REMARK    2  A    between atoms: C4_7  and  C5_8 
REMARK    3  A    between atoms: N2_9  and  N3_11 
REMARK    4  A    between atoms: C6_12  and  C7_13 
ROOT
HETATM    1  N3  UNL     1      24.589  45.552  10.304  1.00  0.00    -0.215 N 
HETATM    2  C6  UNL     1      23.492  45.680   9.538  1.00  0.00     0.125 A 
HETATM    3  N4  UNL     1      23.137  46.975   9.624  1.00  0.00    -0.285 N 
ATOM      4  H4  UNL     1      22.336  47.392   9.151  1.00  0.00     0.188 HD
HETATM    5  N5  UNL     1      23.981  47.630  10.413  1.00  0.00    -0.273 N 
ATOM      6  H5  UNL     1      23.934  48.622  10.644  1.00  0.00     0.189 HD
HETATM    7  C13 UNL     1      24.910  46.756  10.859  1.00  0.00     0.213 A 
HETATM    8  S1  UNL     1      26.171  47.047  11.857  1.00  0.00    -0.037 SA
ENDROOT
BRANCH   1   9
HETATM    9  N2  UNL     1      25.299  44.387  10.513  1.00  0.00    -0.299 N 
HETATM   10  C5  UNL     1      26.404  44.150   9.899  1.00  0.00     0.145 C 
ATOM     11  H2  UNL     1      24.938  43.697  11.171  1.00  0.00     0.186 HD
BRANCH  10  12
HETATM   12  C4  UNL     1      27.174  42.930  10.100  1.00  0.00     0.095 A 
HETATM   13  C3  UNL     1      28.299  42.842  10.895  1.00  0.00     0.043 A 
HETATM   14  C2  UNL     1      28.743  41.542  10.835  1.00  0.00     0.065 A 
HETATM   15  C1  UNL     1      27.863  40.891   9.999  1.00  0.00     0.215 A 
HETATM   16  O3  UNL     1      26.964  41.741   9.592  1.00  0.00    -0.287 OA
BRANCH  15  17
HETATM   17  N1  UNL     1      27.974  39.499   9.666  1.00  0.00    -0.090 N 
HETATM   18  O1  UNL     1      28.734  38.735  10.289  1.00  0.00    -0.530 OA
HETATM   19  O2  UNL     1      27.236  38.959   8.638  1.00  0.00    -0.530 OA
ENDBRANCH  15  17
ENDBRANCH  10  12
ENDBRANCH   1   9
BRANCH   2  20
HETATM   20  C7  UNL     1      22.819  44.612   8.763  1.00  0.00     0.057 C 
HETATM   21  C8  UNL     1      21.893  45.260   7.750  1.00  0.00     0.012 C 
HETATM   22  C9  UNL     1      21.082  44.107   7.147  1.00  0.00     0.001 C 
HETATM   23  C10 UNL     1      22.068  43.327   6.284  1.00  0.00     0.000 C 
HETATM   24  C11 UNL     1      23.207  42.787   7.113  1.00  0.00     0.001 C 
HETATM   25  C12 UNL     1      23.837  43.801   7.999  1.00  0.00     0.012 C 
ENDBRANCH   2  20
TORSDOF 4
ENDMDL
