MODEL 1
REMARK VINA RESULT: -8.550720899      0.000      0.000
REMARK  5 active torsions:
REMARK  status: ('A' for Active; 'I' for Inactive)
REMARK       I    between atoms: C2_2  and  N1_4 
REMARK    1  A    between atoms: N1_4  and  N2_6 
REMARK    2  A    between atoms: C3_8  and  S1_9 
REMARK    3  A    between atoms: C3_8  and  C12_19 
REMARK    4  A    between atoms: S1_9  and  S2_10 
REMARK    5  A    between atoms: S2_10  and  C4_11 
ROOT
HETATM    1  C12 UNL     1      27.625  47.381  12.695  1.00  0.00     0.258 C 
HETATM    2  C13 UNL     1      27.373  48.476  13.662  1.00  0.00     0.085 C 
HETATM    3  N3  UNL     1      27.173  49.342  14.402  1.00  0.00    -0.195 NA
HETATM    4  C14 UNL     1      26.338  47.007  12.103  1.00  0.00     0.085 C 
HETATM    5  N4  UNL     1      25.327  46.713  11.656  1.00  0.00    -0.195 NA
ENDROOT
BRANCH   1   6
HETATM    6  C3  UNL     1      28.234  46.253  13.433  1.00  0.00     0.104 C 
HETATM    7  N2  UNL     1      28.201  46.212  14.716  1.00  0.00    -0.293 N 
ATOM      8  H2  UNL     1      27.753  46.958  15.248  1.00  0.00     0.187 HD
BRANCH   7   9
HETATM    9  N1  UNL     1      28.788  45.131  15.368  1.00  0.00    -0.270 N 
HETATM   10  C2  UNL     1      29.973  45.254  16.112  1.00  0.00     0.232 C 
HETATM   11  C1  UNL     1      30.554  44.078  16.784  1.00  0.00     0.119 C 
HETATM   12  O1  UNL     1      30.539  46.360  16.207  1.00  0.00    -0.272 OA
ATOM     13  H1  UNL     1      28.342  44.216  15.304  1.00  0.00     0.190 HD
ENDBRANCH   7   9
BRANCH   6  14
HETATM   14  S1  UNL     1      29.013  44.958  12.496  1.00  0.00    -0.039 SA
BRANCH  14  15
HETATM   15  S2  UNL     1      27.697  43.547  11.712  1.00  0.00    -0.074 SA
BRANCH  15  16
HETATM   16  C4  UNL     1      28.185  42.900  10.098  1.00  0.00     0.128 C 
HETATM   17  C5  UNL     1      27.195  42.211   9.414  1.00  0.00    -0.166 C 
HETATM   18  C6  UNL     1      26.043  41.894   8.664  1.00  0.00     0.085 C 
HETATM   19  C7  UNL     1      26.247  40.396   8.275  1.00  0.00     0.038 C 
HETATM   20  C8  UNL     1      27.035  39.581   9.187  1.00  0.00    -0.026 C 
HETATM   21  C9  UNL     1      28.472  39.558   9.369  1.00  0.00    -0.008 C 
HETATM   22  C10 UNL     1      29.367  40.695   9.492  1.00  0.00    -0.025 C 
HETATM   23  C11 UNL     1      29.257  41.806  10.444  1.00  0.00     0.055 C 
ENDBRANCH  15  16
ENDBRANCH  14  15
ENDBRANCH   6  14
ENDBRANCH   1   6
TORSDOF 5
ENDMDL
MODEL 2
REMARK VINA RESULT: -8.380946346      1.090      1.720
REMARK  5 active torsions:
REMARK  status: ('A' for Active; 'I' for Inactive)
REMARK       I    between atoms: C2_2  and  N1_4 
REMARK    1  A    between atoms: N1_4  and  N2_6 
REMARK    2  A    between atoms: C3_8  and  S1_9 
REMARK    3  A    between atoms: C3_8  and  C12_19 
REMARK    4  A    between atoms: S1_9  and  S2_10 
REMARK    5  A    between atoms: S2_10  and  C4_11 
ROOT
HETATM    1  C12 UNL     1      27.326  46.636  13.085  1.00  0.00     0.258 C 
HETATM    2  C13 UNL     1      28.032  46.736  11.785  1.00  0.00     0.085 C 
HETATM    3  N3  UNL     1      28.569  46.827  10.765  1.00  0.00    -0.195 NA
HETATM    4  C14 UNL     1      27.443  47.933  13.756  1.00  0.00     0.085 C 
HETATM    5  N4  UNL     1      27.552  48.945  14.278  1.00  0.00    -0.195 NA
ENDROOT
BRANCH   1   6
HETATM    6  C3  UNL     1      27.966  45.556  13.868  1.00  0.00     0.104 C 
HETATM    7  N2  UNL     1      28.565  45.813  14.975  1.00  0.00    -0.293 N 
ATOM      8  H2  UNL     1      28.608  46.767  15.333  1.00  0.00     0.187 HD
BRANCH   7   9
HETATM    9  N1  UNL     1      29.154  44.765  15.678  1.00  0.00    -0.270 N 
HETATM   10  C2  UNL     1      30.328  44.930  16.430  1.00  0.00     0.232 C 
HETATM   11  C1  UNL     1      30.912  43.788  17.156  1.00  0.00     0.119 C 
HETATM   12  O1  UNL     1      30.883  46.044  16.485  1.00  0.00    -0.272 OA
ATOM     13  H1  UNL     1      28.716  43.844  15.646  1.00  0.00     0.190 HD
ENDBRANCH   7   9
BRANCH   6  14
HETATM   14  S1  UNL     1      27.885  43.897  13.235  1.00  0.00    -0.039 SA
BRANCH  14  15
HETATM   15  S2  UNL     1      26.784  43.695  11.479  1.00  0.00    -0.074 SA
BRANCH  15  16
HETATM   16  C4  UNL     1      27.725  43.020  10.092  1.00  0.00     0.128 C 
HETATM   17  C5  UNL     1      27.125  41.958   9.433  1.00  0.00    -0.166 C 
HETATM   18  C6  UNL     1      26.275  41.181   8.619  1.00  0.00     0.085 C 
HETATM   19  C7  UNL     1      26.983  39.792   8.551  1.00  0.00     0.038 C 
HETATM   20  C8  UNL     1      27.801  39.415   9.693  1.00  0.00    -0.026 C 
HETATM   21  C9  UNL     1      29.122  39.886  10.056  1.00  0.00    -0.008 C 
HETATM   22  C10 UNL     1      29.600  41.257  10.071  1.00  0.00    -0.025 C 
HETATM   23  C11 UNL     1      28.994  42.395  10.773  1.00  0.00     0.055 C 
ENDBRANCH  15  16
ENDBRANCH  14  15
ENDBRANCH   6  14
ENDBRANCH   1   6
TORSDOF 5
ENDMDL
MODEL 3
REMARK VINA RESULT: -8.366120245      4.027      5.517
REMARK  5 active torsions:
REMARK  status: ('A' for Active; 'I' for Inactive)
REMARK       I    between atoms: C2_2  and  N1_4 
REMARK    1  A    between atoms: N1_4  and  N2_6 
REMARK    2  A    between atoms: C3_8  and  S1_9 
REMARK    3  A    between atoms: C3_8  and  C12_19 
REMARK    4  A    between atoms: S1_9  and  S2_10 
REMARK    5  A    between atoms: S2_10  and  C4_11 
ROOT
HETATM    1  C12 UNL     1      24.823  47.371  11.619  1.00  0.00     0.258 C 
HETATM    2  C13 UNL     1      23.874  48.446  11.245  1.00  0.00     0.085 C 
HETATM    3  N3  UNL     1      23.136  49.293  10.970  1.00  0.00    -0.195 NA
HETATM    4  C14 UNL     1      26.146  47.980  11.776  1.00  0.00     0.085 C 
HETATM    5  N4  UNL     1      27.177  48.463  11.883  1.00  0.00    -0.195 NA
ENDROOT
BRANCH   1   6
HETATM    6  C3  UNL     1      24.813  46.359  10.539  1.00  0.00     0.104 C 
HETATM    7  N2  UNL     1      23.754  46.151   9.843  1.00  0.00    -0.293 N 
ATOM      8  H2  UNL     1      22.902  46.682  10.023  1.00  0.00     0.187 HD
BRANCH   7   9
HETATM    9  N1  UNL     1      23.791  45.189   8.837  1.00  0.00    -0.270 N 
HETATM   10  C2  UNL     1      22.626  44.677   8.243  1.00  0.00     0.232 C 
HETATM   11  C1  UNL     1      22.719  43.658   7.182  1.00  0.00     0.119 C 
HETATM   12  O1  UNL     1      21.507  45.082   8.611  1.00  0.00    -0.272 OA
ATOM     13  H1  UNL     1      24.697  44.843   8.521  1.00  0.00     0.190 HD
ENDBRANCH   7   9
BRANCH   6  14
HETATM   14  S1  UNL     1      26.304  45.440  10.234  1.00  0.00    -0.039 SA
BRANCH  14  15
HETATM   15  S2  UNL     1      26.077  43.372  10.319  1.00  0.00    -0.074 SA
BRANCH  15  16
HETATM   16  C4  UNL     1      26.904  42.483   8.981  1.00  0.00     0.128 C 
HETATM   17  C5  UNL     1      26.115  41.563   8.307  1.00  0.00    -0.166 C 
HETATM   18  C6  UNL     1      25.150  40.973   7.466  1.00  0.00     0.085 C 
HETATM   19  C7  UNL     1      25.542  39.462   7.442  1.00  0.00     0.038 C 
HETATM   20  C8  UNL     1      26.213  38.940   8.623  1.00  0.00    -0.026 C 
HETATM   21  C9  UNL     1      27.589  39.120   9.037  1.00  0.00    -0.008 C 
HETATM   22  C10 UNL     1      28.352  40.356   9.059  1.00  0.00    -0.025 C 
HETATM   23  C11 UNL     1      27.980  41.611   9.722  1.00  0.00     0.055 C 
ENDBRANCH  15  16
ENDBRANCH  14  15
ENDBRANCH   6  14
ENDBRANCH   1   6
TORSDOF 5
ENDMDL
MODEL 4
REMARK VINA RESULT: -8.364615441      3.801      5.578
REMARK  5 active torsions:
REMARK  status: ('A' for Active; 'I' for Inactive)
REMARK       I    between atoms: C2_2  and  N1_4 
REMARK    1  A    between atoms: N1_4  and  N2_6 
REMARK    2  A    between atoms: C3_8  and  S1_9 
REMARK    3  A    between atoms: C3_8  and  C12_19 
REMARK    4  A    between atoms: S1_9  and  S2_10 
REMARK    5  A    between atoms: S2_10  and  C4_11 
ROOT
HETATM    1  C12 UNL     1      25.618  46.753  11.629  1.00  0.00     0.258 C 
HETATM    2  C13 UNL     1      25.334  48.181  11.912  1.00  0.00     0.085 C 
HETATM    3  N3  UNL     1      25.124  49.293  12.147  1.00  0.00    -0.195 NA
HETATM    4  C14 UNL     1      27.006  46.659  11.169  1.00  0.00     0.085 C 
HETATM    5  N4  UNL     1      28.086  46.598  10.798  1.00  0.00    -0.195 NA
ENDROOT
BRANCH   1   6
HETATM    6  C3  UNL     1      24.667  46.297  10.592  1.00  0.00     0.104 C 
HETATM    7  N2  UNL     1      23.806  47.105  10.088  1.00  0.00    -0.293 N 
ATOM      8  H2  UNL     1      23.764  48.077  10.395  1.00  0.00     0.187 HD
BRANCH   7   9
HETATM    9  N1  UNL     1      22.930  46.630   9.115  1.00  0.00    -0.270 N 
HETATM   10  C2  UNL     1      21.825  47.374   8.671  1.00  0.00     0.232 C 
HETATM   11  C1  UNL     1      20.927  46.826   7.638  1.00  0.00     0.119 C 
HETATM   12  O1  UNL     1      21.597  48.501   9.150  1.00  0.00    -0.272 OA
ATOM     13  H1  UNL     1      23.097  45.709   8.710  1.00  0.00     0.190 HD
ENDBRANCH   7   9
BRANCH   6  14
HETATM   14  S1  UNL     1      24.749  44.601  10.065  1.00  0.00    -0.039 SA
BRANCH  14  15
HETATM   15  S2  UNL     1      26.246  43.482  10.983  1.00  0.00    -0.074 SA
BRANCH  15  16
HETATM   16  C4  UNL     1      27.466  42.801   9.837  1.00  0.00     0.128 C 
HETATM   17  C5  UNL     1      27.136  41.573   9.284  1.00  0.00    -0.166 C 
HETATM   18  C6  UNL     1      26.538  40.561   8.505  1.00  0.00     0.085 C 
HETATM   19  C7  UNL     1      27.454  39.317   8.736  1.00  0.00     0.038 C 
HETATM   20  C8  UNL     1      28.150  39.242  10.012  1.00  0.00    -0.026 C 
HETATM   21  C9  UNL     1      29.318  39.977  10.450  1.00  0.00    -0.008 C 
HETATM   22  C10 UNL     1      29.573  41.400  10.309  1.00  0.00    -0.025 C 
HETATM   23  C11 UNL     1      28.707  42.500  10.751  1.00  0.00     0.055 C 
ENDBRANCH  15  16
ENDBRANCH  14  15
ENDBRANCH   6  14
ENDBRANCH   1   6
TORSDOF 5
ENDMDL
MODEL 5
REMARK VINA RESULT: -8.272232951      3.931      5.352
REMARK  5 active torsions:
REMARK  status: ('A' for Active; 'I' for Inactive)
REMARK       I    between atoms: C2_2  and  N1_4 
REMARK    1  A    between atoms: N1_4  and  N2_6 
REMARK    2  A    between atoms: C3_8  and  S1_9 
REMARK    3  A    between atoms: C3_8  and  C12_19 
REMARK    4  A    between atoms: S1_9  and  S2_10 
REMARK    5  A    between atoms: S2_10  and  C4_11 
ROOT
HETATM    1  C12 UNL     1      24.671  47.557  11.430  1.00  0.00     0.258 C 
HETATM    2  C13 UNL     1      23.690  48.457  10.779  1.00  0.00     0.085 C 
HETATM    3  N3  UNL     1      22.922  49.168  10.287  1.00  0.00    -0.195 NA
HETATM    4  C14 UNL     1      25.893  48.330  11.669  1.00  0.00     0.085 C 
HETATM    5  N4  UNL     1      26.846  48.938  11.839  1.00  0.00    -0.195 NA
ENDROOT
BRANCH   1   6
HETATM    6  C3  UNL     1      24.917  46.416  10.520  1.00  0.00     0.104 C 
HETATM    7  N2  UNL     1      23.999  46.002   9.723  1.00  0.00    -0.293 N 
ATOM      8  H2  UNL     1      23.084  46.453   9.705  1.00  0.00     0.187 HD
BRANCH   7   9
HETATM    9  N1  UNL     1      24.274  44.925   8.885  1.00  0.00    -0.270 N 
HETATM   10  C2  UNL     1      23.264  44.107   8.353  1.00  0.00     0.232 C 
HETATM   11  C1  UNL     1      23.609  42.978   7.470  1.00  0.00     0.119 C 
HETATM   12  O1  UNL     1      22.070  44.333   8.626  1.00  0.00    -0.272 OA
ATOM     13  H1  UNL     1      25.246  44.722   8.648  1.00  0.00     0.190 HD
ENDBRANCH   7   9
BRANCH   6  14
HETATM   14  S1  UNL     1      26.514  45.637  10.560  1.00  0.00    -0.039 SA
BRANCH  14  15
HETATM   15  S2  UNL     1      26.459  43.561  10.721  1.00  0.00    -0.074 SA
BRANCH  15  16
HETATM   16  C4  UNL     1      27.604  42.705   9.616  1.00  0.00     0.128 C 
HETATM   17  C5  UNL     1      27.170  41.471   9.157  1.00  0.00    -0.166 C 
HETATM   18  C6  UNL     1      26.483  40.455   8.461  1.00  0.00     0.085 C 
HETATM   19  C7  UNL     1      27.302  39.163   8.773  1.00  0.00     0.038 C 
HETATM   20  C8  UNL     1      28.009  39.125  10.044  1.00  0.00    -0.026 C 
HETATM   21  C9  UNL     1      29.239  39.795  10.416  1.00  0.00    -0.008 C 
HETATM   22  C10 UNL     1      29.602  41.179  10.170  1.00  0.00    -0.025 C 
HETATM   23  C11 UNL     1      28.831  42.373  10.538  1.00  0.00     0.055 C 
ENDBRANCH  15  16
ENDBRANCH  14  15
ENDBRANCH   6  14
ENDBRANCH   1   6
TORSDOF 5
ENDMDL
