MODEL 1
REMARK VINA RESULT: -8.237713986      0.000      0.000
REMARK  4 active torsions:
REMARK  status: ('A' for Active; 'I' for Inactive)
REMARK    1  A    between atoms: C2_3  and  N2_4 
REMARK    2  A    between atoms: N2_4  and  C3_6 
REMARK    3  A    between atoms: C6_9  and  N3_10 
REMARK    4  A    between atoms: C7_13  and  N4_14 
ROOT
HETATM    1  N1  UNL     1      26.083  41.745  12.105  1.00  0.00    -0.195 NA
HETATM    2  C1  UNL     1      26.903  42.086  11.332  1.00  0.00     0.090 C 
HETATM    3  C2  UNL     1      27.948  42.557  10.366  1.00  0.00     0.120 C 
HETATM    4  C9  UNL     1      28.663  41.375   9.844  1.00  0.00     0.046 C 
HETATM    5  C10 UNL     1      27.930  40.048   9.974  1.00  0.00     0.004 C 
HETATM    6  C11 UNL     1      27.262  39.669   8.669  1.00  0.00     0.000 C 
HETATM    7  C12 UNL     1      25.914  40.270   8.462  1.00  0.00     0.000 C 
HETATM    8  C13 UNL     1      26.057  41.657   7.898  1.00  0.00     0.000 C 
HETATM    9  C14 UNL     1      25.889  42.737   8.933  1.00  0.00     0.004 C 
HETATM   10  C15 UNL     1      27.211  43.369   9.325  1.00  0.00     0.046 C 
ENDROOT
BRANCH   3  11
HETATM   11  N2  UNL     1      28.799  43.430  11.114  1.00  0.00    -0.368 N 
ATOM     12  H2  UNL     1      29.784  43.165  11.142  1.00  0.00     0.161 HD
BRANCH  11  13
HETATM   13  C3  UNL     1      28.466  44.610  11.823  1.00  0.00     0.031 A 
HETATM   14  C4  UNL     1      28.123  45.769  11.119  1.00  0.00     0.032 A 
HETATM   15  C5  UNL     1      27.790  46.939  11.731  1.00  0.00     0.041 A 
HETATM   16  C6  UNL     1      27.769  47.063  13.141  1.00  0.00     0.136 A 
HETATM   17  C7  UNL     1      28.099  45.938  13.835  1.00  0.00     0.138 A 
HETATM   18  C8  UNL     1      28.440  44.741  13.178  1.00  0.00     0.067 A 
BRANCH  16  19
HETATM   19  N3  UNL     1      27.432  48.328  13.678  1.00  0.00    -0.113 N 
HETATM   20  O1  UNL     1      28.068  48.914  14.538  1.00  0.00    -0.532 OA
HETATM   21  O2  UNL     1      26.323  48.968  13.148  1.00  0.00    -0.532 OA
ENDBRANCH  16  19
BRANCH  17  22
HETATM   22  N4  UNL     1      28.106  45.929  15.262  1.00  0.00    -0.113 N 
HETATM   23  O3  UNL     1      27.176  45.399  15.875  1.00  0.00    -0.532 OA
HETATM   24  O4  UNL     1      29.202  46.470  15.912  1.00  0.00    -0.532 OA
ENDBRANCH  17  22
ENDBRANCH  11  13
ENDBRANCH   3  11
TORSDOF 4
ENDMDL
MODEL 2
REMARK VINA RESULT: -8.113210942      1.674      2.121
REMARK  4 active torsions:
REMARK  status: ('A' for Active; 'I' for Inactive)
REMARK    1  A    between atoms: C2_3  and  N2_4 
REMARK    2  A    between atoms: N2_4  and  C3_6 
REMARK    3  A    between atoms: C6_9  and  N3_10 
REMARK    4  A    between atoms: C7_13  and  N4_14 
ROOT
HETATM    1  N1  UNL     1      26.060  41.752  12.424  1.00  0.00    -0.195 NA
HETATM    2  C1  UNL     1      26.502  42.626  11.769  1.00  0.00     0.090 C 
HETATM    3  C2  UNL     1      27.031  43.759  10.944  1.00  0.00     0.120 C 
HETATM    4  C9  UNL     1      28.500  43.632  10.870  1.00  0.00     0.046 C 
HETATM    5  C10 UNL     1      29.060  42.248  11.164  1.00  0.00     0.004 C 
HETATM    6  C11 UNL     1      29.374  41.507   9.881  1.00  0.00     0.000 C 
HETATM    7  C12 UNL     1      28.215  40.793   9.275  1.00  0.00     0.000 C 
HETATM    8  C13 UNL     1      27.409  41.746   8.438  1.00  0.00     0.000 C 
HETATM    9  C14 UNL     1      26.169  42.243   9.132  1.00  0.00     0.004 C 
HETATM   10  C15 UNL     1      26.314  43.673   9.616  1.00  0.00     0.046 C 
ENDROOT
BRANCH   3  11
HETATM   11  N2  UNL     1      26.614  44.951  11.617  1.00  0.00    -0.368 N 
ATOM     12  H2  UNL     1      25.732  45.351  11.296  1.00  0.00     0.161 HD
BRANCH  11  13
HETATM   13  C3  UNL     1      27.256  45.654  12.666  1.00  0.00     0.031 A 
HETATM   14  C4  UNL     1      27.012  47.021  12.836  1.00  0.00     0.032 A 
HETATM   15  C5  UNL     1      27.592  47.761  13.822  1.00  0.00     0.041 A 
HETATM   16  C6  UNL     1      28.491  47.189  14.753  1.00  0.00     0.136 A 
HETATM   17  C7  UNL     1      28.732  45.858  14.596  1.00  0.00     0.138 A 
HETATM   18  C8  UNL     1      28.122  45.114  13.568  1.00  0.00     0.067 A 
BRANCH  16  19
HETATM   19  N3  UNL     1      29.056  48.049  15.725  1.00  0.00    -0.113 N 
HETATM   20  O1  UNL     1      30.206  47.990  16.127  1.00  0.00    -0.532 OA
HETATM   21  O2  UNL     1      28.252  49.065  16.217  1.00  0.00    -0.532 OA
ENDBRANCH  16  19
BRANCH  17  22
HETATM   22  N4  UNL     1      29.613  45.160  15.476  1.00  0.00    -0.113 N 
HETATM   23  O3  UNL     1      29.161  44.611  16.485  1.00  0.00    -0.532 OA
HETATM   24  O4  UNL     1      30.950  45.075  15.128  1.00  0.00    -0.532 OA
ENDBRANCH  17  22
ENDBRANCH  11  13
ENDBRANCH   3  11
TORSDOF 4
ENDMDL
MODEL 3
REMARK VINA RESULT: -7.938564380      4.334      7.171
REMARK  4 active torsions:
REMARK  status: ('A' for Active; 'I' for Inactive)
REMARK    1  A    between atoms: C2_3  and  N2_4 
REMARK    2  A    between atoms: N2_4  and  C3_6 
REMARK    3  A    between atoms: C6_9  and  N3_10 
REMARK    4  A    between atoms: C7_13  and  N4_14 
ROOT
HETATM    1  N1  UNL     1      30.201  45.265  12.418  1.00  0.00    -0.195 NA
HETATM    2  C1  UNL     1      29.082  45.105  12.746  1.00  0.00     0.090 C 
HETATM    3  C2  UNL     1      27.651  44.877  13.132  1.00  0.00     0.120 C 
HETATM    4  C9  UNL     1      27.511  45.158  14.575  1.00  0.00     0.046 C 
HETATM    5  C10 UNL     1      28.597  46.030  15.188  1.00  0.00     0.004 C 
HETATM    6  C11 UNL     1      28.132  47.466  15.313  1.00  0.00     0.000 C 
HETATM    7  C12 UNL     1      28.315  48.289  14.084  1.00  0.00     0.000 C 
HETATM    8  C13 UNL     1      27.156  48.075  13.151  1.00  0.00     0.000 C 
HETATM    9  C14 UNL     1      27.469  47.127  12.024  1.00  0.00     0.004 C 
HETATM   10  C15 UNL     1      26.832  45.765  12.224  1.00  0.00     0.046 C 
ENDROOT
BRANCH   3  11
HETATM   11  N2  UNL     1      27.380  43.510  12.809  1.00  0.00    -0.368 N 
ATOM     12  H2  UNL     1      27.417  42.858  13.593  1.00  0.00     0.161 HD
BRANCH  11  13
HETATM   13  C3  UNL     1      27.066  42.935  11.553  1.00  0.00     0.031 A 
HETATM   14  C4  UNL     1      25.993  43.435  10.809  1.00  0.00     0.032 A 
HETATM   15  C5  UNL     1      25.634  42.934   9.594  1.00  0.00     0.041 A 
HETATM   16  C6  UNL     1      26.333  41.859   8.995  1.00  0.00     0.136 A 
HETATM   17  C7  UNL     1      27.382  41.367   9.712  1.00  0.00     0.138 A 
HETATM   18  C8  UNL     1      27.732  41.902  10.966  1.00  0.00     0.067 A 
BRANCH  16  19
HETATM   19  N3  UNL     1      25.865  41.397   7.741  1.00  0.00    -0.113 N 
HETATM   20  O1  UNL     1      26.020  41.978   6.680  1.00  0.00    -0.532 OA
HETATM   21  O2  UNL     1      25.227  40.167   7.716  1.00  0.00    -0.532 OA
ENDBRANCH  16  19
BRANCH  17  22
HETATM   22  N4  UNL     1      28.173  40.289   9.213  1.00  0.00    -0.113 N 
HETATM   23  O3  UNL     1      29.240  40.528   8.641  1.00  0.00    -0.532 OA
HETATM   24  O4  UNL     1      27.736  38.997   9.447  1.00  0.00    -0.532 OA
ENDBRANCH  17  22
ENDBRANCH  11  13
ENDBRANCH   3  11
TORSDOF 4
ENDMDL
MODEL 4
REMARK VINA RESULT: -7.911329954      1.102      2.544
REMARK  4 active torsions:
REMARK  status: ('A' for Active; 'I' for Inactive)
REMARK    1  A    between atoms: C2_3  and  N2_4 
REMARK    2  A    between atoms: N2_4  and  C3_6 
REMARK    3  A    between atoms: C6_9  and  N3_10 
REMARK    4  A    between atoms: C7_13  and  N4_14 
ROOT
HETATM    1  N1  UNL     1      26.032  41.859  11.971  1.00  0.00    -0.195 NA
HETATM    2  C1  UNL     1      26.663  42.221  11.045  1.00  0.00     0.090 C 
HETATM    3  C2  UNL     1      27.439  42.711   9.860  1.00  0.00     0.120 C 
HETATM    4  C9  UNL     1      28.842  42.277  10.014  1.00  0.00     0.046 C 
HETATM    5  C10 UNL     1      29.074  41.111  10.963  1.00  0.00     0.004 C 
HETATM    6  C11 UNL     1      29.221  39.812  10.197  1.00  0.00     0.000 C 
HETATM    7  C12 UNL     1      27.935  39.141   9.857  1.00  0.00     0.000 C 
HETATM    8  C13 UNL     1      27.370  39.732   8.596  1.00  0.00     0.000 C 
HETATM    9  C14 UNL     1      26.269  40.728   8.848  1.00  0.00     0.004 C 
HETATM   10  C15 UNL     1      26.729  42.158   8.645  1.00  0.00     0.046 C 
ENDROOT
BRANCH   3  11
HETATM   11  N2  UNL     1      27.297  44.134   9.869  1.00  0.00    -0.368 N 
ATOM     12  H2  UNL     1      27.056  44.558   8.973  1.00  0.00     0.161 HD
BRANCH  11  13
HETATM   13  C3  UNL     1      27.446  45.038  10.949  1.00  0.00     0.031 A 
HETATM   14  C4  UNL     1      28.228  44.681  12.052  1.00  0.00     0.032 A 
HETATM   15  C5  UNL     1      28.417  45.498  13.125  1.00  0.00     0.041 A 
HETATM   16  C6  UNL     1      27.826  46.782  13.198  1.00  0.00     0.136 A 
HETATM   17  C7  UNL     1      27.064  47.140  12.126  1.00  0.00     0.138 A 
HETATM   18  C8  UNL     1      26.884  46.277  11.029  1.00  0.00     0.067 A 
BRANCH  16  19
HETATM   19  N3  UNL     1      28.066  47.543  14.366  1.00  0.00    -0.113 N 
HETATM   20  O1  UNL     1      28.299  48.740  14.385  1.00  0.00    -0.532 OA
HETATM   21  O2  UNL     1      27.979  46.884  15.583  1.00  0.00    -0.532 OA
ENDBRANCH  16  19
BRANCH  17  22
HETATM   22  N4  UNL     1      26.422  48.413  12.072  1.00  0.00    -0.113 N 
HETATM   23  O3  UNL     1      25.239  48.517  12.407  1.00  0.00    -0.532 OA
HETATM   24  O4  UNL     1      27.179  49.510  11.698  1.00  0.00    -0.532 OA
ENDBRANCH  17  22
ENDBRANCH  11  13
ENDBRANCH   3  11
TORSDOF 4
ENDMDL
MODEL 5
REMARK VINA RESULT: -7.835498993      6.900      8.831
REMARK  4 active torsions:
REMARK  status: ('A' for Active; 'I' for Inactive)
REMARK    1  A    between atoms: C2_3  and  N2_4 
REMARK    2  A    between atoms: N2_4  and  C3_6 
REMARK    3  A    between atoms: C6_9  and  N3_10 
REMARK    4  A    between atoms: C7_13  and  N4_14 
ROOT
HETATM    1  N1  UNL     1      18.297  46.195   6.797  1.00  0.00    -0.195 NA
HETATM    2  C1  UNL     1      19.403  45.864   6.566  1.00  0.00     0.090 C 
HETATM    3  C2  UNL     1      20.818  45.441   6.314  1.00  0.00     0.120 C 
HETATM    4  C9  UNL     1      20.889  44.845   4.964  1.00  0.00     0.046 C 
HETATM    5  C10 UNL     1      19.761  45.221   4.015  1.00  0.00     0.004 C 
HETATM    6  C11 UNL     1      20.194  46.323   3.070  1.00  0.00     0.000 C 
HETATM    7  C12 UNL     1      20.051  47.702   3.615  1.00  0.00     0.000 C 
HETATM    8  C13 UNL     1      21.254  48.048   4.447  1.00  0.00     0.000 C 
HETATM    9  C14 UNL     1      21.009  47.918   5.926  1.00  0.00     0.004 C 
HETATM   10  C15 UNL     1      21.661  46.680   6.511  1.00  0.00     0.046 C 
ENDROOT
BRANCH   3  11
HETATM   11  N2  UNL     1      21.129  44.501   7.347  1.00  0.00    -0.368 N 
ATOM     12  H2  UNL     1      20.326  44.108   7.839  1.00  0.00     0.161 HD
BRANCH  11  13
HETATM   13  C3  UNL     1      22.395  44.040   7.783  1.00  0.00     0.031 A 
HETATM   14  C4  UNL     1      23.015  44.647   8.880  1.00  0.00     0.032 A 
HETATM   15  C5  UNL     1      24.230  44.257   9.356  1.00  0.00     0.041 A 
HETATM   16  C6  UNL     1      24.957  43.197   8.764  1.00  0.00     0.136 A 
HETATM   17  C7  UNL     1      24.360  42.599   7.695  1.00  0.00     0.138 A 
HETATM   18  C8  UNL     1      23.104  43.021   7.222  1.00  0.00     0.067 A 
BRANCH  16  19
HETATM   19  N3  UNL     1      26.221  42.885   9.320  1.00  0.00    -0.113 N 
HETATM   20  O1  UNL     1      27.133  43.680   9.473  1.00  0.00    -0.532 OA
HETATM   21  O2  UNL     1      26.415  41.587   9.767  1.00  0.00    -0.532 OA
ENDBRANCH  16  19
BRANCH  17  22
HETATM   22  N4  UNL     1      24.986  41.511   7.016  1.00  0.00    -0.113 N 
HETATM   23  O3  UNL     1      25.929  41.729   6.250  1.00  0.00    -0.532 OA
HETATM   24  O4  UNL     1      24.543  40.229   7.291  1.00  0.00    -0.532 OA
ENDBRANCH  17  22
ENDBRANCH  11  13
ENDBRANCH   3  11
TORSDOF 4
ENDMDL
