MODEL 1
REMARK VINA RESULT: -6.084149716      0.000      0.000
REMARK  5 active torsions:
REMARK  status: ('A' for Active; 'I' for Inactive)
REMARK    1  A    between atoms: C2_2  and  O1_3 
REMARK    2  A    between atoms: O1_3  and  C3_4 
REMARK    3  A    between atoms: C3_4  and  C4_6 
REMARK    4  A    between atoms: N1_10  and  C6_11 
REMARK    5  A    between atoms: C6_11  and  C7_12 
ROOT
HETATM    1  C4  UNL     1      28.786  46.151  14.396  1.00  0.00     0.105 A 
HETATM    2  S1  UNL     1      27.910  47.595  14.565  1.00  0.00    -0.052 SA
HETATM    3  C5  UNL     1      27.486  47.803  12.925  1.00  0.00     0.146 A 
HETATM    4  S2  UNL     1      26.583  49.047  12.378  1.00  0.00    -0.052 SA
HETATM    5  N1  UNL     1      28.032  46.758  12.305  1.00  0.00    -0.329 N 
HETATM    6  C10 UNL     1      28.706  45.896  13.053  1.00  0.00     0.033 A 
HETATM    7  C11 UNL     1      29.371  44.615  12.560  1.00  0.00     0.070 C 
ENDROOT
BRANCH   5   8
HETATM    8  C6  UNL     1      27.862  46.590  10.862  1.00  0.00     0.188 C 
BRANCH   8   9
HETATM    9  C7  UNL     1      26.865  45.578  10.442  1.00  0.00     0.035 A 
HETATM   10  C8  UNL     1      25.514  45.835  10.591  1.00  0.00     0.079 A 
HETATM   11  S3  UNL     1      24.752  44.423   9.989  1.00  0.00    -0.070 SA
HETATM   12  C9  UNL     1      26.167  43.573   9.577  1.00  0.00     0.143 A 
HETATM   13  S4  UNL     1      26.307  42.055   8.903  1.00  0.00    -0.052 SA
HETATM   14  N2  UNL     1      27.151  44.400   9.915  1.00  0.00    -0.343 N 
ATOM     15  H2  UNL     1      28.122  44.127   9.768  1.00  0.00     0.167 HD
ENDBRANCH   8   9
ENDBRANCH   5   8
BRANCH   1  16
HETATM   16  C3  UNL     1      29.460  45.388  15.470  1.00  0.00     0.302 C 
HETATM   17  O2  UNL     1      28.845  44.581  16.173  1.00  0.00    -0.259 OA
BRANCH  16  18
HETATM   18  O1  UNL     1      30.804  45.595  15.676  1.00  0.00    -0.317 OA
BRANCH  18  19
HETATM   19  C2  UNL     1      31.686  44.659  16.216  1.00  0.00     0.174 C 
HETATM   20  C1  UNL     1      32.672  44.255  15.138  1.00  0.00     0.034 C 
ENDBRANCH  18  19
ENDBRANCH  16  18
ENDBRANCH   1  16
TORSDOF 5
ENDMDL
MODEL 2
REMARK VINA RESULT: -5.981871057      3.415      6.535
REMARK  5 active torsions:
REMARK  status: ('A' for Active; 'I' for Inactive)
REMARK    1  A    between atoms: C2_2  and  O1_3 
REMARK    2  A    between atoms: O1_3  and  C3_4 
REMARK    3  A    between atoms: C3_4  and  C4_6 
REMARK    4  A    between atoms: N1_10  and  C6_11 
REMARK    5  A    between atoms: C6_11  and  C7_12 
ROOT
HETATM    1  C4  UNL     1      26.828  42.869   9.964  1.00  0.00     0.105 A 
HETATM    2  S1  UNL     1      25.559  43.989   9.853  1.00  0.00    -0.052 SA
HETATM    3  C5  UNL     1      26.330  45.293  10.637  1.00  0.00     0.146 A 
HETATM    4  S2  UNL     1      25.633  46.753  10.858  1.00  0.00    -0.052 SA
HETATM    5  N1  UNL     1      27.534  44.824  10.958  1.00  0.00    -0.329 N 
HETATM    6  C10 UNL     1      27.806  43.572  10.615  1.00  0.00     0.033 A 
HETATM    7  C11 UNL     1      29.130  42.852  10.844  1.00  0.00     0.070 C 
ENDROOT
BRANCH   5   8
HETATM    8  C6  UNL     1      28.499  45.684  11.644  1.00  0.00     0.188 C 
BRANCH   8   9
HETATM    9  C7  UNL     1      28.525  45.574  13.121  1.00  0.00     0.035 A 
HETATM   10  C8  UNL     1      27.369  45.783  13.851  1.00  0.00     0.079 A 
HETATM   11  S3  UNL     1      27.856  45.558  15.478  1.00  0.00    -0.070 SA
HETATM   12  C9  UNL     1      29.492  45.210  15.168  1.00  0.00     0.143 A 
HETATM   13  S4  UNL     1      30.704  44.858  16.257  1.00  0.00    -0.052 SA
HETATM   14  N2  UNL     1      29.592  45.281  13.845  1.00  0.00    -0.343 N 
ATOM     15  H2  UNL     1      30.488  45.110  13.389  1.00  0.00     0.167 HD
ENDBRANCH   8   9
ENDBRANCH   5   8
BRANCH   1  16
HETATM   16  C3  UNL     1      26.832  41.476   9.465  1.00  0.00     0.302 C 
HETATM   17  O2  UNL     1      27.114  40.526  10.201  1.00  0.00    -0.259 OA
BRANCH  16  18
HETATM   18  O1  UNL     1      26.509  41.252   8.147  1.00  0.00    -0.317 OA
BRANCH  18  19
HETATM   19  C2  UNL     1      25.316  40.686   7.698  1.00  0.00     0.174 C 
HETATM   20  C1  UNL     1      24.528  41.753   6.964  1.00  0.00     0.034 C 
ENDBRANCH  18  19
ENDBRANCH  16  18
ENDBRANCH   1  16
TORSDOF 5
ENDMDL
MODEL 3
REMARK VINA RESULT: -5.920383044      3.280      6.592
REMARK  5 active torsions:
REMARK  status: ('A' for Active; 'I' for Inactive)
REMARK    1  A    between atoms: C2_2  and  O1_3 
REMARK    2  A    between atoms: O1_3  and  C3_4 
REMARK    3  A    between atoms: C3_4  and  C4_6 
REMARK    4  A    between atoms: N1_10  and  C6_11 
REMARK    5  A    between atoms: C6_11  and  C7_12 
ROOT
HETATM    1  C4  UNL     1      26.515  43.152   9.938  1.00  0.00     0.105 A 
HETATM    2  S1  UNL     1      25.217  44.243   9.871  1.00  0.00    -0.052 SA
HETATM    3  C5  UNL     1      26.002  45.583  10.578  1.00  0.00     0.146 A 
HETATM    4  S2  UNL     1      25.286  47.033  10.802  1.00  0.00    -0.052 SA
HETATM    5  N1  UNL     1      27.232  45.147  10.842  1.00  0.00    -0.329 N 
HETATM    6  C10 UNL     1      27.512  43.893  10.515  1.00  0.00     0.033 A 
HETATM    7  C11 UNL     1      28.862  43.206  10.687  1.00  0.00     0.070 C 
ENDROOT
BRANCH   5   8
HETATM    8  C6  UNL     1      28.214  46.044  11.451  1.00  0.00     0.188 C 
BRANCH   8   9
HETATM    9  C7  UNL     1      28.074  46.259  12.911  1.00  0.00     0.035 A 
HETATM   10  C8  UNL     1      28.054  45.176  13.771  1.00  0.00     0.079 A 
HETATM   11  S3  UNL     1      27.880  45.879  15.324  1.00  0.00    -0.070 SA
HETATM   12  C9  UNL     1      27.841  47.504  14.822  1.00  0.00     0.143 A 
HETATM   13  S4  UNL     1      27.687  48.876  15.756  1.00  0.00    -0.052 SA
HETATM   14  N2  UNL     1      27.961  47.437  13.500  1.00  0.00    -0.343 N 
ATOM     15  H2  UNL     1      27.967  48.291  12.942  1.00  0.00     0.167 HD
ENDBRANCH   8   9
ENDBRANCH   5   8
BRANCH   1  16
HETATM   16  C3  UNL     1      26.522  41.747   9.474  1.00  0.00     0.302 C 
HETATM   17  O2  UNL     1      26.668  40.807  10.261  1.00  0.00    -0.259 OA
BRANCH  16  18
HETATM   18  O1  UNL     1      26.360  41.501   8.131  1.00  0.00    -0.317 OA
BRANCH  18  19
HETATM   19  C2  UNL     1      25.268  40.846   7.562  1.00  0.00     0.174 C 
HETATM   20  C1  UNL     1      24.313  41.893   7.021  1.00  0.00     0.034 C 
ENDBRANCH  18  19
ENDBRANCH  16  18
ENDBRANCH   1  16
TORSDOF 5
ENDMDL
MODEL 4
REMARK VINA RESULT: -5.867324637      3.353      6.047
REMARK  5 active torsions:
REMARK  status: ('A' for Active; 'I' for Inactive)
REMARK    1  A    between atoms: C2_2  and  O1_3 
REMARK    2  A    between atoms: O1_3  and  C3_4 
REMARK    3  A    between atoms: C3_4  and  C4_6 
REMARK    4  A    between atoms: N1_10  and  C6_11 
REMARK    5  A    between atoms: C6_11  and  C7_12 
ROOT
HETATM    1  C4  UNL     1      26.446  43.092   9.917  1.00  0.00     0.105 A 
HETATM    2  S1  UNL     1      25.152  44.189   9.881  1.00  0.00    -0.052 SA
HETATM    3  C5  UNL     1      25.954  45.518  10.588  1.00  0.00     0.146 A 
HETATM    4  S2  UNL     1      25.249  46.969  10.837  1.00  0.00    -0.052 SA
HETATM    5  N1  UNL     1      27.186  45.074  10.828  1.00  0.00    -0.329 N 
HETATM    6  C10 UNL     1      27.456  43.822  10.485  1.00  0.00     0.033 A 
HETATM    7  C11 UNL     1      28.805  43.127  10.629  1.00  0.00     0.070 C 
ENDROOT
BRANCH   5   8
HETATM    8  C6  UNL     1      28.182  45.961  11.430  1.00  0.00     0.188 C 
BRANCH   8   9
HETATM    9  C7  UNL     1      28.049  46.185  12.889  1.00  0.00     0.035 A 
HETATM   10  C8  UNL     1      27.976  45.106  13.751  1.00  0.00     0.079 A 
HETATM   11  S3  UNL     1      27.832  45.819  15.302  1.00  0.00    -0.070 SA
HETATM   12  C9  UNL     1      27.871  47.443  14.797  1.00  0.00     0.143 A 
HETATM   13  S4  UNL     1      27.780  48.823  15.729  1.00  0.00    -0.052 SA
HETATM   14  N2  UNL     1      27.991  47.368  13.476  1.00  0.00    -0.343 N 
ATOM     15  H2  UNL     1      28.038  48.220  12.917  1.00  0.00     0.167 HD
ENDBRANCH   8   9
ENDBRANCH   5   8
BRANCH   1  16
HETATM   16  C3  UNL     1      26.439  41.691   9.439  1.00  0.00     0.302 C 
HETATM   17  O2  UNL     1      25.836  41.361   8.413  1.00  0.00    -0.259 OA
BRANCH  16  18
HETATM   18  O1  UNL     1      27.126  40.748  10.167  1.00  0.00    -0.317 OA
BRANCH  18  19
HETATM   19  C2  UNL     1      27.872  39.703   9.623  1.00  0.00     0.174 C 
HETATM   20  C1  UNL     1      29.080  39.466  10.509  1.00  0.00     0.034 C 
ENDBRANCH  18  19
ENDBRANCH  16  18
ENDBRANCH   1  16
TORSDOF 5
ENDMDL
MODEL 5
REMARK VINA RESULT: -5.818687424      3.551      5.974
REMARK  5 active torsions:
REMARK  status: ('A' for Active; 'I' for Inactive)
REMARK    1  A    between atoms: C2_2  and  O1_3 
REMARK    2  A    between atoms: O1_3  and  C3_4 
REMARK    3  A    between atoms: C3_4  and  C4_6 
REMARK    4  A    between atoms: N1_10  and  C6_11 
REMARK    5  A    between atoms: C6_11  and  C7_12 
ROOT
HETATM    1  C4  UNL     1      26.662  42.981   9.948  1.00  0.00     0.105 A 
HETATM    2  S1  UNL     1      25.414  44.129   9.864  1.00  0.00    -0.052 SA
HETATM    3  C5  UNL     1      26.226  45.411  10.643  1.00  0.00     0.146 A 
HETATM    4  S2  UNL     1      25.564  46.884  10.883  1.00  0.00    -0.052 SA
HETATM    5  N1  UNL     1      27.425  44.915  10.941  1.00  0.00    -0.329 N 
HETATM    6  C10 UNL     1      27.665  43.660  10.587  1.00  0.00     0.033 A 
HETATM    7  C11 UNL     1      28.976  42.910  10.790  1.00  0.00     0.070 C 
ENDROOT
BRANCH   5   8
HETATM    8  C6  UNL     1      28.418  45.750  11.616  1.00  0.00     0.188 C 
BRANCH   8   9
HETATM    9  C7  UNL     1      28.475  45.621  13.091  1.00  0.00     0.035 A 
HETATM   10  C8  UNL     1      27.333  45.814  13.847  1.00  0.00     0.079 A 
HETATM   11  S3  UNL     1      27.854  45.569  15.461  1.00  0.00    -0.070 SA
HETATM   12  C9  UNL     1      29.485  45.235  15.113  1.00  0.00     0.143 A 
HETATM   13  S4  UNL     1      30.721  44.876  16.172  1.00  0.00    -0.052 SA
HETATM   14  N2  UNL     1      29.558  45.324  13.789  1.00  0.00    -0.343 N 
ATOM     15  H2  UNL     1      30.445  45.164  13.313  1.00  0.00     0.167 HD
ENDBRANCH   8   9
ENDBRANCH   5   8
BRANCH   1  16
HETATM   16  C3  UNL     1      26.628  41.591   9.441  1.00  0.00     0.302 C 
HETATM   17  O2  UNL     1      26.076  41.305   8.374  1.00  0.00    -0.259 OA
BRANCH  16  18
HETATM   18  O1  UNL     1      27.232  40.607  10.188  1.00  0.00    -0.317 OA
BRANCH  18  19
HETATM   19  C2  UNL     1      27.986  39.555   9.668  1.00  0.00     0.174 C 
HETATM   20  C1  UNL     1      29.100  39.237  10.647  1.00  0.00     0.034 C 
ENDBRANCH  18  19
ENDBRANCH  16  18
ENDBRANCH   1  16
TORSDOF 5
ENDMDL
