MODEL 1
REMARK VINA RESULT: -6.521705977      0.000      0.000
REMARK  22 active torsions:
REMARK  status: ('A' for Active; 'I' for Inactive)
REMARK    1  A    between atoms: C4_4  and  C5_5 
REMARK    2  A    between atoms: C5_5  and  C6_6 
REMARK    3  A    between atoms: C6_6  and  C7_7 
REMARK    4  A    between atoms: C9_9  and  C10_10 
REMARK    5  A    between atoms: C10_10  and  C11_11 
REMARK    6  A    between atoms: C13_14  and  O2_15 
REMARK    7  A    between atoms: C14_17  and  O3_18 
REMARK    8  A    between atoms: C15_20  and  C16_21 
REMARK    9  A    between atoms: C16_21  and  O4_22 
REMARK   10  A    between atoms: C17_24  and  C18_25 
REMARK   11  A    between atoms: C18_25  and  C19_26 
REMARK   12  A    between atoms: C19_26  and  C20_27 
REMARK   13  A    between atoms: C20_27  and  N1_28 
REMARK   14  A    between atoms: C23_31  and  O5_32 
REMARK   15  A    between atoms: O5_32  and  C24_33 
REMARK   16  A    between atoms: C24_33  and  C25_35 
REMARK   17  A    between atoms: C25_35  and  C26_36 
REMARK   18  A    between atoms: C26_36  and  C27_37 
REMARK   19  A    between atoms: C27_37  and  C28_38 
REMARK   20  A    between atoms: C28_38  and  C29_39 
REMARK   21  A    between atoms: C29_39  and  N2_40 
REMARK   22  A    between atoms: C31_46  and  O8_47 
ROOT
HETATM    1  C11 UNL     1      34.995  26.233  22.801  1.00  0.00     0.264 C 
HETATM    2  O1  UNL     1      35.949  25.238  22.986  1.00  0.00    -0.350 OA
HETATM    3  C12 UNL     1      36.484  25.078  21.738  1.00  0.00     0.185 C 
HETATM    4  C13 UNL     1      37.144  23.758  21.479  1.00  0.00     0.178 C 
HETATM    5  C14 UNL     1      37.377  23.545  20.014  1.00  0.00     0.156 C 
HETATM    6  C15 UNL     1      36.211  23.829  19.134  1.00  0.00     0.047 C 
HETATM    7  C17 UNL     1      35.582  25.136  19.501  1.00  0.00     0.026 C 
HETATM    8  C32 UNL     1      35.175  25.059  20.926  1.00  0.00     0.161 C 
HETATM    9  O9  UNL     1      34.604  26.209  21.451  1.00  0.00    -0.353 OA
ENDROOT
BRANCH   7  10
HETATM   10  C18 UNL     1      34.477  25.580  18.615  1.00  0.00     0.009 C 
BRANCH  10  11
HETATM   11  C19 UNL     1      34.905  26.284  17.368  1.00  0.00     0.020 C 
BRANCH  11  12
HETATM   12  C20 UNL     1      36.048  27.221  17.703  1.00  0.00     0.121 C 
BRANCH  12  13
HETATM   13  N1  UNL     1      35.823  28.555  17.279  1.00  0.00    -0.366 N 
HETATM   14  C21 UNL     1      34.810  28.647  16.302  1.00  0.00     0.124 C 
HETATM   15  C22 UNL     1      35.182  29.231  14.981  1.00  0.00     0.054 C 
HETATM   16  C23 UNL     1      35.292  30.739  15.019  1.00  0.00     0.157 C 
HETATM   17  C30 UNL     1      36.519  31.193  15.781  1.00  0.00     0.205 C 
HETATM   18  O7  UNL     1      36.509  30.727  17.093  1.00  0.00    -0.342 OA
HETATM   19  C31 UNL     1      36.943  29.405  17.188  1.00  0.00     0.365 C 
BRANCH  16  20
HETATM   20  O5  UNL     1      34.144  31.236  15.678  1.00  0.00    -0.314 OA
BRANCH  20  21
HETATM   21  C24 UNL     1      33.219  32.002  14.981  1.00  0.00     0.259 C 
HETATM   22  O6  UNL     1      33.646  32.953  14.293  1.00  0.00    -0.265 OA
BRANCH  21  23
HETATM   23  C25 UNL     1      31.761  31.697  15.054  1.00  0.00     0.111 C 
BRANCH  23  24
HETATM   24  C26 UNL     1      31.580  30.213  14.776  1.00  0.00     0.010 C 
BRANCH  24  25
HETATM   25  C27 UNL     1      30.872  29.605  15.963  1.00  0.00     0.002 C 
BRANCH  25  26
HETATM   26  C28 UNL     1      31.310  28.188  16.210  1.00  0.00     0.027 C 
BRANCH  26  27
HETATM   27  C29 UNL     1      31.123  27.772  17.652  1.00  0.00     0.229 C 
BRANCH  27  28
HETATM   28  N2  UNL     1      29.805  28.292  18.048  1.00  0.00    -0.079 N 
ATOM     29  H23 UNL     1      29.547  29.156  17.572  1.00  0.00     0.274 HD
ATOM     30  H22 UNL     1      29.024  27.729  17.710  1.00  0.00     0.274 HD
ATOM     31  H21 UNL     1      29.836  28.379  19.064  1.00  0.00     0.274 HD
ENDBRANCH  27  28
ENDBRANCH  26  27
ENDBRANCH  25  26
ENDBRANCH  24  25
ENDBRANCH  23  24
ENDBRANCH  21  23
ENDBRANCH  20  21
ENDBRANCH  16  20
BRANCH  19  32
HETATM   32  O8  UNL     1      37.800  29.177  16.129  1.00  0.00    -0.355 OA
ATOM     33  H8  UNL     1      38.391  29.886  15.906  1.00  0.00     0.214 HD
ENDBRANCH  19  32
ENDBRANCH  12  13
ENDBRANCH  11  12
ENDBRANCH  10  11
ENDBRANCH   7  10
BRANCH   6  34
HETATM   34  C16 UNL     1      35.265  22.668  19.180  1.00  0.00     0.172 C 
BRANCH  34  35
HETATM   35  O4  UNL     1      35.719  21.680  18.308  1.00  0.00    -0.400 OA
ATOM     36  H4  UNL     1      36.111  20.978  18.814  1.00  0.00     0.209 HD
ENDBRANCH  34  35
ENDBRANCH   6  34
BRANCH   5  37
HETATM   37  O3  UNL     1      37.886  22.269  19.808  1.00  0.00    -0.392 OA
ATOM     38  H3  UNL     1      37.309  21.789  19.225  1.00  0.00     0.210 HD
ENDBRANCH   5  37
BRANCH   4  39
HETATM   39  O2  UNL     1      36.478  22.741  22.116  1.00  0.00    -0.390 OA
ATOM     40  H2  UNL     1      36.287  22.030  21.516  1.00  0.00     0.210 HD
ENDBRANCH   4  39
BRANCH   1  41
HETATM   41  C10 UNL     1      35.640  27.555  23.158  1.00  0.00     0.088 C 
BRANCH  41  42
HETATM   42  C9  UNL     1      35.036  28.579  22.232  1.00  0.00    -0.020 C 
HETATM   43  C7  UNL     1      35.716  29.092  21.232  1.00  0.00    -0.087 C 
HETATM   44  C8  UNL     1      37.119  28.660  20.996  1.00  0.00     0.043 C 
BRANCH  43  45
HETATM   45  C6  UNL     1      35.116  30.090  20.336  1.00  0.00     0.037 C 
BRANCH  45  46
HETATM   46  C5  UNL     1      33.807  29.592  19.770  1.00  0.00     0.031 C 
BRANCH  46  47
HETATM   47  C4  UNL     1      33.140  30.681  18.993  1.00  0.00    -0.024 C 
HETATM   48  C2  UNL     1      31.941  31.083  19.328  1.00  0.00    -0.091 C 
HETATM   49  C1  UNL     1      31.217  30.478  20.477  1.00  0.00     0.042 C 
HETATM   50  C3  UNL     1      31.265  32.171  18.559  1.00  0.00     0.042 C 
ENDBRANCH  46  47
ENDBRANCH  45  46
ENDBRANCH  43  45
ENDBRANCH  41  42
ENDBRANCH   1  41
TORSDOF 22
ENDMDL
MODEL 2
REMARK VINA RESULT: -6.409768306      1.869      2.590
REMARK  22 active torsions:
REMARK  status: ('A' for Active; 'I' for Inactive)
REMARK    1  A    between atoms: C4_4  and  C5_5 
REMARK    2  A    between atoms: C5_5  and  C6_6 
REMARK    3  A    between atoms: C6_6  and  C7_7 
REMARK    4  A    between atoms: C9_9  and  C10_10 
REMARK    5  A    between atoms: C10_10  and  C11_11 
REMARK    6  A    between atoms: C13_14  and  O2_15 
REMARK    7  A    between atoms: C14_17  and  O3_18 
REMARK    8  A    between atoms: C15_20  and  C16_21 
REMARK    9  A    between atoms: C16_21  and  O4_22 
REMARK   10  A    between atoms: C17_24  and  C18_25 
REMARK   11  A    between atoms: C18_25  and  C19_26 
REMARK   12  A    between atoms: C19_26  and  C20_27 
REMARK   13  A    between atoms: C20_27  and  N1_28 
REMARK   14  A    between atoms: C23_31  and  O5_32 
REMARK   15  A    between atoms: O5_32  and  C24_33 
REMARK   16  A    between atoms: C24_33  and  C25_35 
REMARK   17  A    between atoms: C25_35  and  C26_36 
REMARK   18  A    between atoms: C26_36  and  C27_37 
REMARK   19  A    between atoms: C27_37  and  C28_38 
REMARK   20  A    between atoms: C28_38  and  C29_39 
REMARK   21  A    between atoms: C29_39  and  N2_40 
REMARK   22  A    between atoms: C31_46  and  O8_47 
ROOT
HETATM    1  C11 UNL     1      34.979  26.267  22.793  1.00  0.00     0.264 C 
HETATM    2  O1  UNL     1      35.934  25.273  22.984  1.00  0.00    -0.350 OA
HETATM    3  C12 UNL     1      36.474  25.112  21.739  1.00  0.00     0.185 C 
HETATM    4  C13 UNL     1      37.136  23.792  21.485  1.00  0.00     0.178 C 
HETATM    5  C14 UNL     1      37.375  23.577  20.021  1.00  0.00     0.156 C 
HETATM    6  C15 UNL     1      36.213  23.859  19.136  1.00  0.00     0.047 C 
HETATM    7  C17 UNL     1      35.581  25.166  19.498  1.00  0.00     0.026 C 
HETATM    8  C32 UNL     1      35.168  25.091  20.921  1.00  0.00     0.161 C 
HETATM    9  O9  UNL     1      34.594  26.241  21.441  1.00  0.00    -0.353 OA
ENDROOT
BRANCH   7  10
HETATM   10  C18 UNL     1      34.480  25.607  18.606  1.00  0.00     0.009 C 
BRANCH  10  11
HETATM   11  C19 UNL     1      34.913  26.316  17.363  1.00  0.00     0.020 C 
BRANCH  11  12
HETATM   12  C20 UNL     1      35.989  27.320  17.723  1.00  0.00     0.121 C 
BRANCH  12  13
HETATM   13  N1  UNL     1      35.720  28.627  17.243  1.00  0.00    -0.366 N 
HETATM   14  C21 UNL     1      34.695  28.646  16.274  1.00  0.00     0.124 C 
HETATM   15  C22 UNL     1      35.036  29.182  14.925  1.00  0.00     0.054 C 
HETATM   16  C23 UNL     1      35.101  30.694  14.897  1.00  0.00     0.157 C 
HETATM   17  C30 UNL     1      36.321  31.217  15.625  1.00  0.00     0.205 C 
HETATM   18  O7  UNL     1      36.337  30.809  16.956  1.00  0.00    -0.342 OA
HETATM   19  C31 UNL     1      36.812  29.505  17.104  1.00  0.00     0.365 C 
BRANCH  16  20
HETATM   20  O5  UNL     1      33.945  31.184  15.546  1.00  0.00    -0.314 OA
BRANCH  20  21
HETATM   21  C24 UNL     1      32.762  31.346  14.835  1.00  0.00     0.259 C 
HETATM   22  O6  UNL     1      31.822  30.561  15.077  1.00  0.00    -0.265 OA
BRANCH  21  23
HETATM   23  C25 UNL     1      32.624  32.424  13.813  1.00  0.00     0.111 C 
BRANCH  23  24
HETATM   24  C26 UNL     1      32.626  33.759  14.541  1.00  0.00     0.010 C 
BRANCH  24  25
HETATM   25  C27 UNL     1      31.203  34.069  14.938  1.00  0.00     0.002 C 
BRANCH  25  26
HETATM   26  C28 UNL     1      31.017  35.526  15.262  1.00  0.00     0.027 C 
BRANCH  26  27
HETATM   27  C29 UNL     1      31.769  36.427  14.309  1.00  0.00     0.229 C 
BRANCH  27  28
HETATM   28  N2  UNL     1      32.486  37.392  15.157  1.00  0.00    -0.079 N 
ATOM     29  H23 UNL     1      31.908  37.800  15.891  1.00  0.00     0.274 HD
ATOM     30  H22 UNL     1      33.178  36.962  15.772  1.00  0.00     0.274 HD
ATOM     31  H21 UNL     1      32.881  38.082  14.517  1.00  0.00     0.274 HD
ENDBRANCH  27  28
ENDBRANCH  26  27
ENDBRANCH  25  26
ENDBRANCH  24  25
ENDBRANCH  23  24
ENDBRANCH  21  23
ENDBRANCH  20  21
ENDBRANCH  16  20
BRANCH  19  32
HETATM   32  O8  UNL     1      37.665  29.257  16.046  1.00  0.00    -0.355 OA
ATOM     33  H8  UNL     1      38.590  29.196  16.256  1.00  0.00     0.214 HD
ENDBRANCH  19  32
ENDBRANCH  12  13
ENDBRANCH  11  12
ENDBRANCH  10  11
ENDBRANCH   7  10
BRANCH   6  34
HETATM   34  C16 UNL     1      35.268  22.697  19.179  1.00  0.00     0.172 C 
BRANCH  34  35
HETATM   35  O4  UNL     1      35.724  21.710  18.307  1.00  0.00    -0.400 OA
ATOM     36  H4  UNL     1      36.185  21.046  18.806  1.00  0.00     0.209 HD
ENDBRANCH  34  35
ENDBRANCH   6  34
BRANCH   5  37
HETATM   37  O3  UNL     1      37.886  22.301  19.819  1.00  0.00    -0.392 OA
ATOM     38  H3  UNL     1      38.314  22.262  18.972  1.00  0.00     0.210 HD
ENDBRANCH   5  37
BRANCH   4  39
HETATM   39  O2  UNL     1      36.468  22.776  22.121  1.00  0.00    -0.390 OA
ATOM     40  H2  UNL     1      36.388  22.015  21.557  1.00  0.00     0.210 HD
ENDBRANCH   4  39
BRANCH   1  41
HETATM   41  C10 UNL     1      35.622  27.590  23.151  1.00  0.00     0.088 C 
BRANCH  41  42
HETATM   42  C9  UNL     1      35.028  28.611  22.215  1.00  0.00    -0.020 C 
HETATM   43  C7  UNL     1      35.720  29.125  21.224  1.00  0.00    -0.087 C 
HETATM   44  C8  UNL     1      37.128  28.696  21.009  1.00  0.00     0.043 C 
BRANCH  43  45
HETATM   45  C6  UNL     1      35.130  30.119  20.318  1.00  0.00     0.037 C 
BRANCH  45  46
HETATM   46  C5  UNL     1      33.751  29.694  19.871  1.00  0.00     0.031 C 
BRANCH  46  47
HETATM   47  C4  UNL     1      33.173  30.721  18.952  1.00  0.00    -0.024 C 
HETATM   48  C2  UNL     1      31.936  31.115  19.107  1.00  0.00    -0.091 C 
HETATM   49  C1  UNL     1      31.080  30.560  20.189  1.00  0.00     0.042 C 
HETATM   50  C3  UNL     1      31.347  32.141  18.195  1.00  0.00     0.042 C 
ENDBRANCH  46  47
ENDBRANCH  45  46
ENDBRANCH  43  45
ENDBRANCH  41  42
ENDBRANCH   1  41
TORSDOF 22
ENDMDL
MODEL 3
REMARK VINA RESULT: -6.391946166      2.056      3.815
REMARK  22 active torsions:
REMARK  status: ('A' for Active; 'I' for Inactive)
REMARK    1  A    between atoms: C4_4  and  C5_5 
REMARK    2  A    between atoms: C5_5  and  C6_6 
REMARK    3  A    between atoms: C6_6  and  C7_7 
REMARK    4  A    between atoms: C9_9  and  C10_10 
REMARK    5  A    between atoms: C10_10  and  C11_11 
REMARK    6  A    between atoms: C13_14  and  O2_15 
REMARK    7  A    between atoms: C14_17  and  O3_18 
REMARK    8  A    between atoms: C15_20  and  C16_21 
REMARK    9  A    between atoms: C16_21  and  O4_22 
REMARK   10  A    between atoms: C17_24  and  C18_25 
REMARK   11  A    between atoms: C18_25  and  C19_26 
REMARK   12  A    between atoms: C19_26  and  C20_27 
REMARK   13  A    between atoms: C20_27  and  N1_28 
REMARK   14  A    between atoms: C23_31  and  O5_32 
REMARK   15  A    between atoms: O5_32  and  C24_33 
REMARK   16  A    between atoms: C24_33  and  C25_35 
REMARK   17  A    between atoms: C25_35  and  C26_36 
REMARK   18  A    between atoms: C26_36  and  C27_37 
REMARK   19  A    between atoms: C27_37  and  C28_38 
REMARK   20  A    between atoms: C28_38  and  C29_39 
REMARK   21  A    between atoms: C29_39  and  N2_40 
REMARK   22  A    between atoms: C31_46  and  O8_47 
ROOT
HETATM    1  C11 UNL     1      34.426  26.426  22.448  1.00  0.00     0.264 C 
HETATM    2  O1  UNL     1      35.662  25.818  22.641  1.00  0.00    -0.350 OA
HETATM    3  C12 UNL     1      35.948  25.287  21.414  1.00  0.00     0.185 C 
HETATM    4  C13 UNL     1      36.921  24.148  21.410  1.00  0.00     0.178 C 
HETATM    5  C14 UNL     1      36.899  23.419  20.100  1.00  0.00     0.156 C 
HETATM    6  C15 UNL     1      35.547  23.071  19.587  1.00  0.00     0.047 C 
HETATM    7  C17 UNL     1      34.628  24.248  19.682  1.00  0.00     0.026 C 
HETATM    8  C32 UNL     1      34.572  24.665  21.105  1.00  0.00     0.161 C 
HETATM    9  O9  UNL     1      33.791  25.779  21.374  1.00  0.00    -0.353 OA
ENDROOT
BRANCH   7  10
HETATM   10  C18 UNL     1      33.281  24.052  19.091  1.00  0.00     0.009 C 
BRANCH  10  11
HETATM   11  C19 UNL     1      32.915  25.014  18.007  1.00  0.00     0.020 C 
BRANCH  11  12
HETATM   12  C20 UNL     1      33.350  24.438  16.675  1.00  0.00     0.121 C 
BRANCH  12  13
HETATM   13  N1  UNL     1      34.126  25.338  15.901  1.00  0.00    -0.366 N 
HETATM   14  C21 UNL     1      34.154  26.636  16.451  1.00  0.00     0.124 C 
HETATM   15  C22 UNL     1      33.637  27.751  15.606  1.00  0.00     0.054 C 
HETATM   16  C23 UNL     1      34.618  28.175  14.535  1.00  0.00     0.157 C 
HETATM   17  C30 UNL     1      34.732  27.138  13.437  1.00  0.00     0.205 C 
HETATM   18  O7  UNL     1      35.144  25.906  13.936  1.00  0.00    -0.342 OA
HETATM   19  C31 UNL     1      34.092  25.186  14.501  1.00  0.00     0.365 C 
BRANCH  16  20
HETATM   20  O5  UNL     1      35.883  28.323  15.147  1.00  0.00    -0.314 OA
BRANCH  20  21
HETATM   21  C24 UNL     1      36.278  29.560  15.640  1.00  0.00     0.259 C 
HETATM   22  O6  UNL     1      36.462  30.485  14.820  1.00  0.00    -0.265 OA
BRANCH  21  23
HETATM   23  C25 UNL     1      36.474  29.775  17.102  1.00  0.00     0.111 C 
BRANCH  23  24
HETATM   24  C26 UNL     1      37.506  28.769  17.587  1.00  0.00     0.010 C 
BRANCH  24  25
HETATM   25  C27 UNL     1      36.812  27.813  18.528  1.00  0.00     0.002 C 
BRANCH  25  26
HETATM   26  C28 UNL     1      37.717  27.366  19.641  1.00  0.00     0.027 C 
BRANCH  26  27
HETATM   27  C29 UNL     1      38.270  28.529  20.435  1.00  0.00     0.229 C 
BRANCH  27  28
HETATM   28  N2  UNL     1      37.869  28.286  21.829  1.00  0.00    -0.079 N 
ATOM     29  H23 UNL     1      36.961  27.832  21.919  1.00  0.00     0.274 HD
ATOM     30  H22 UNL     1      38.415  27.559  22.291  1.00  0.00     0.274 HD
ATOM     31  H21 UNL     1      37.920  29.193  22.293  1.00  0.00     0.274 HD
ENDBRANCH  27  28
ENDBRANCH  26  27
ENDBRANCH  25  26
ENDBRANCH  24  25
ENDBRANCH  23  24
ENDBRANCH  21  23
ENDBRANCH  20  21
ENDBRANCH  16  20
BRANCH  19  32
HETATM   32  O8  UNL     1      32.932  25.591  13.870  1.00  0.00    -0.355 OA
ATOM     33  H8  UNL     1      32.403  24.904  13.481  1.00  0.00     0.214 HD
ENDBRANCH  19  32
ENDBRANCH  12  13
ENDBRANCH  11  12
ENDBRANCH  10  11
ENDBRANCH   7  10
BRANCH   6  34
HETATM   34  C16 UNL     1      35.047  21.854  20.303  1.00  0.00     0.172 C 
BRANCH  34  35
HETATM   35  O4  UNL     1      35.075  20.769  19.428  1.00  0.00    -0.400 OA
ATOM     36  H4  UNL     1      35.921  20.342  19.492  1.00  0.00     0.209 HD
ENDBRANCH  34  35
ENDBRANCH   6  34
BRANCH   5  37
HETATM   37  O3  UNL     1      37.730  22.308  20.176  1.00  0.00    -0.392 OA
ATOM     38  H3  UNL     1      37.374  21.611  19.637  1.00  0.00     0.210 HD
ENDBRANCH   5  37
BRANCH   4  39
HETATM   39  O2  UNL     1      36.758  23.357  22.519  1.00  0.00    -0.390 OA
ATOM     40  H2  UNL     1      36.722  23.883  23.310  1.00  0.00     0.210 HD
ENDBRANCH   4  39
BRANCH   1  41
HETATM   41  C10 UNL     1      34.681  27.884  22.132  1.00  0.00     0.088 C 
BRANCH  41  42
HETATM   42  C9  UNL     1      33.518  28.339  21.288  1.00  0.00    -0.020 C 
HETATM   43  C7  UNL     1      33.600  29.393  20.508  1.00  0.00    -0.087 C 
HETATM   44  C8  UNL     1      34.869  30.166  20.446  1.00  0.00     0.043 C 
BRANCH  43  45
HETATM   45  C6  UNL     1      32.459  29.826  19.690  1.00  0.00     0.037 C 
BRANCH  45  46
HETATM   46  C5  UNL     1      32.597  31.276  19.293  1.00  0.00     0.031 C 
BRANCH  46  47
HETATM   47  C4  UNL     1      31.554  31.630  18.283  1.00  0.00    -0.024 C 
HETATM   48  C2  UNL     1      31.861  31.674  17.013  1.00  0.00    -0.091 C 
HETATM   49  C1  UNL     1      33.240  31.376  16.543  1.00  0.00     0.042 C 
HETATM   50  C3  UNL     1      30.827  32.026  15.994  1.00  0.00     0.042 C 
ENDBRANCH  46  47
ENDBRANCH  45  46
ENDBRANCH  43  45
ENDBRANCH  41  42
ENDBRANCH   1  41
TORSDOF 22
ENDMDL
MODEL 4
REMARK VINA RESULT: -6.321784203      3.546      5.527
REMARK  22 active torsions:
REMARK  status: ('A' for Active; 'I' for Inactive)
REMARK    1  A    between atoms: C4_4  and  C5_5 
REMARK    2  A    between atoms: C5_5  and  C6_6 
REMARK    3  A    between atoms: C6_6  and  C7_7 
REMARK    4  A    between atoms: C9_9  and  C10_10 
REMARK    5  A    between atoms: C10_10  and  C11_11 
REMARK    6  A    between atoms: C13_14  and  O2_15 
REMARK    7  A    between atoms: C14_17  and  O3_18 
REMARK    8  A    between atoms: C15_20  and  C16_21 
REMARK    9  A    between atoms: C16_21  and  O4_22 
REMARK   10  A    between atoms: C17_24  and  C18_25 
REMARK   11  A    between atoms: C18_25  and  C19_26 
REMARK   12  A    between atoms: C19_26  and  C20_27 
REMARK   13  A    between atoms: C20_27  and  N1_28 
REMARK   14  A    between atoms: C23_31  and  O5_32 
REMARK   15  A    between atoms: O5_32  and  C24_33 
REMARK   16  A    between atoms: C24_33  and  C25_35 
REMARK   17  A    between atoms: C25_35  and  C26_36 
REMARK   18  A    between atoms: C26_36  and  C27_37 
REMARK   19  A    between atoms: C27_37  and  C28_38 
REMARK   20  A    between atoms: C28_38  and  C29_39 
REMARK   21  A    between atoms: C29_39  and  N2_40 
REMARK   22  A    between atoms: C31_46  and  O8_47 
ROOT
HETATM    1  C11 UNL     1      34.955  26.432  22.771  1.00  0.00     0.264 C 
HETATM    2  O1  UNL     1      36.092  25.631  22.779  1.00  0.00    -0.350 OA
HETATM    3  C12 UNL     1      36.183  25.200  21.486  1.00  0.00     0.185 C 
HETATM    4  C13 UNL     1      36.961  23.937  21.276  1.00  0.00     0.178 C 
HETATM    5  C14 UNL     1      36.710  23.365  19.913  1.00  0.00     0.156 C 
HETATM    6  C15 UNL     1      35.281  23.277  19.510  1.00  0.00     0.047 C 
HETATM    7  C17 UNL     1      34.571  24.560  19.808  1.00  0.00     0.026 C 
HETATM    8  C32 UNL     1      34.705  24.825  21.262  1.00  0.00     0.161 C 
HETATM    9  O9  UNL     1      34.135  26.006  21.712  1.00  0.00    -0.353 OA
ENDROOT
BRANCH   7  10
HETATM   10  C18 UNL     1      33.164  24.630  19.343  1.00  0.00     0.009 C 
BRANCH  10  11
HETATM   11  C19 UNL     1      32.804  25.867  18.585  1.00  0.00     0.020 C 
BRANCH  11  12
HETATM   12  C20 UNL     1      31.745  25.521  17.559  1.00  0.00     0.121 C 
BRANCH  12  13
HETATM   13  N1  UNL     1      30.448  25.967  17.918  1.00  0.00    -0.366 N 
HETATM   14  C21 UNL     1      29.691  24.965  18.559  1.00  0.00     0.124 C 
HETATM   15  C22 UNL     1      28.406  24.560  17.920  1.00  0.00     0.054 C 
HETATM   16  C23 UNL     1      27.296  25.560  18.157  1.00  0.00     0.157 C 
HETATM   17  C30 UNL     1      27.510  26.833  17.367  1.00  0.00     0.205 C 
HETATM   18  O7  UNL     1      28.717  27.444  17.695  1.00  0.00    -0.342 OA
HETATM   19  C31 UNL     1      29.801  26.859  17.040  1.00  0.00     0.365 C 
BRANCH  16  20
HETATM   20  O5  UNL     1      27.293  25.880  19.534  1.00  0.00    -0.314 OA
BRANCH  20  21
HETATM   21  C24 UNL     1      26.142  25.695  20.289  1.00  0.00     0.259 C 
HETATM   22  O6  UNL     1      25.596  24.573  20.258  1.00  0.00    -0.265 OA
BRANCH  21  23
HETATM   23  C25 UNL     1      25.578  26.806  21.109  1.00  0.00     0.111 C 
BRANCH  23  24
HETATM   24  C26 UNL     1      25.332  27.989  20.187  1.00  0.00     0.010 C 
BRANCH  24  25
HETATM   25  C27 UNL     1      25.522  29.251  20.995  1.00  0.00     0.002 C 
BRANCH  25  26
HETATM   26  C28 UNL     1      26.099  30.365  20.167  1.00  0.00     0.027 C 
BRANCH  26  27
HETATM   27  C29 UNL     1      27.573  30.577  20.435  1.00  0.00     0.229 C 
BRANCH  27  28
HETATM   28  N2  UNL     1      28.276  29.974  19.292  1.00  0.00    -0.079 N 
ATOM     29  H23 UNL     1      28.116  28.972  19.196  1.00  0.00     0.274 HD
ATOM     30  H22 UNL     1      27.893  30.246  18.387  1.00  0.00     0.274 HD
ATOM     31  H21 UNL     1      29.258  30.222  19.411  1.00  0.00     0.274 HD
ENDBRANCH  27  28
ENDBRANCH  26  27
ENDBRANCH  25  26
ENDBRANCH  24  25
ENDBRANCH  23  24
ENDBRANCH  21  23
ENDBRANCH  20  21
ENDBRANCH  16  20
BRANCH  19  32
HETATM   32  O8  UNL     1      29.325  26.318  15.861  1.00  0.00    -0.355 OA
ATOM     33  H8  UNL     1      29.689  26.672  15.058  1.00  0.00     0.214 HD
ENDBRANCH  19  32
ENDBRANCH  12  13
ENDBRANCH  11  12
ENDBRANCH  10  11
ENDBRANCH   7  10
BRANCH   6  34
HETATM   34  C16 UNL     1      34.660  22.077  20.157  1.00  0.00     0.172 C 
BRANCH  34  35
HETATM   35  O4  UNL     1      34.966  20.946  19.402  1.00  0.00    -0.400 OA
ATOM     36  H4  UNL     1      34.291  20.292  19.539  1.00  0.00     0.209 HD
ENDBRANCH  34  35
ENDBRANCH   6  34
BRANCH   5  37
HETATM   37  O3  UNL     1      37.360  22.141  19.800  1.00  0.00    -0.392 OA
ATOM     38  H3  UNL     1      38.218  22.201  20.203  1.00  0.00     0.210 HD
ENDBRANCH   5  37
BRANCH   4  39
HETATM   39  O2  UNL     1      36.772  23.063  22.317  1.00  0.00    -0.390 OA
ATOM     40  H2  UNL     1      37.442  22.389  22.322  1.00  0.00     0.210 HD
ENDBRANCH   4  39
BRANCH   1  41
HETATM   41  C10 UNL     1      35.408  27.863  22.568  1.00  0.00     0.088 C 
BRANCH  41  42
HETATM   42  C9  UNL     1      34.697  28.355  21.333  1.00  0.00    -0.020 C 
HETATM   43  C7  UNL     1      35.352  28.668  20.239  1.00  0.00    -0.087 C 
HETATM   44  C8  UNL     1      36.833  28.537  20.203  1.00  0.00     0.043 C 
BRANCH  43  45
HETATM   45  C6  UNL     1      34.649  29.146  19.042  1.00  0.00     0.037 C 
BRANCH  45  46
HETATM   46  C5  UNL     1      34.043  30.509  19.277  1.00  0.00     0.031 C 
BRANCH  46  47
HETATM   47  C4  UNL     1      33.370  30.991  18.033  1.00  0.00    -0.024 C 
HETATM   48  C2  UNL     1      32.194  31.560  18.105  1.00  0.00    -0.091 C 
HETATM   49  C1  UNL     1      31.503  31.742  19.408  1.00  0.00     0.042 C 
HETATM   50  C3  UNL     1      31.510  32.046  16.868  1.00  0.00     0.042 C 
ENDBRANCH  46  47
ENDBRANCH  45  46
ENDBRANCH  43  45
ENDBRANCH  41  42
ENDBRANCH   1  41
TORSDOF 22
ENDMDL
MODEL 5
REMARK VINA RESULT: -6.294914391      2.072      3.880
REMARK  22 active torsions:
REMARK  status: ('A' for Active; 'I' for Inactive)
REMARK    1  A    between atoms: C4_4  and  C5_5 
REMARK    2  A    between atoms: C5_5  and  C6_6 
REMARK    3  A    between atoms: C6_6  and  C7_7 
REMARK    4  A    between atoms: C9_9  and  C10_10 
REMARK    5  A    between atoms: C10_10  and  C11_11 
REMARK    6  A    between atoms: C13_14  and  O2_15 
REMARK    7  A    between atoms: C14_17  and  O3_18 
REMARK    8  A    between atoms: C15_20  and  C16_21 
REMARK    9  A    between atoms: C16_21  and  O4_22 
REMARK   10  A    between atoms: C17_24  and  C18_25 
REMARK   11  A    between atoms: C18_25  and  C19_26 
REMARK   12  A    between atoms: C19_26  and  C20_27 
REMARK   13  A    between atoms: C20_27  and  N1_28 
REMARK   14  A    between atoms: C23_31  and  O5_32 
REMARK   15  A    between atoms: O5_32  and  C24_33 
REMARK   16  A    between atoms: C24_33  and  C25_35 
REMARK   17  A    between atoms: C25_35  and  C26_36 
REMARK   18  A    between atoms: C26_36  and  C27_37 
REMARK   19  A    between atoms: C27_37  and  C28_38 
REMARK   20  A    between atoms: C28_38  and  C29_39 
REMARK   21  A    between atoms: C29_39  and  N2_40 
REMARK   22  A    between atoms: C31_46  and  O8_47 
ROOT
HETATM    1  C11 UNL     1      34.771  26.376  22.803  1.00  0.00     0.264 C 
HETATM    2  O1  UNL     1      35.981  25.689  22.839  1.00  0.00    -0.350 OA
HETATM    3  C12 UNL     1      36.128  25.242  21.556  1.00  0.00     0.185 C 
HETATM    4  C13 UNL     1      37.027  24.057  21.381  1.00  0.00     0.178 C 
HETATM    5  C14 UNL     1      36.849  23.435  20.029  1.00  0.00     0.156 C 
HETATM    6  C15 UNL     1      35.440  23.199  19.614  1.00  0.00     0.047 C 
HETATM    7  C17 UNL     1      34.605  24.413  19.878  1.00  0.00     0.026 C 
HETATM    8  C32 UNL     1      34.696  24.720  21.327  1.00  0.00     0.161 C 
HETATM    9  O9  UNL     1      34.009  25.850  21.745  1.00  0.00    -0.353 OA
ENDROOT
BRANCH   7  10
HETATM   10  C18 UNL     1      33.203  24.336  19.397  1.00  0.00     0.009 C 
BRANCH  10  11
HETATM   11  C19 UNL     1      32.841  25.316  18.329  1.00  0.00     0.020 C 
BRANCH  11  12
HETATM   12  C20 UNL     1      33.238  24.741  16.984  1.00  0.00     0.121 C 
BRANCH  12  13
HETATM   13  N1  UNL     1      34.074  25.603  16.229  1.00  0.00    -0.366 N 
HETATM   14  C21 UNL     1      34.247  26.861  16.844  1.00  0.00     0.124 C 
HETATM   15  C22 UNL     1      33.816  28.065  16.078  1.00  0.00     0.054 C 
HETATM   16  C23 UNL     1      34.799  28.451  14.995  1.00  0.00     0.157 C 
HETATM   17  C30 UNL     1      34.775  27.471  13.841  1.00  0.00     0.205 C 
HETATM   18  O7  UNL     1      35.079  26.179  14.259  1.00  0.00    -0.342 OA
HETATM   19  C31 UNL     1      33.979  25.533  14.826  1.00  0.00     0.365 C 
BRANCH  16  20
HETATM   20  O5  UNL     1      36.092  28.442  15.566  1.00  0.00    -0.314 OA
BRANCH  20  21
HETATM   21  C24 UNL     1      36.872  29.591  15.542  1.00  0.00     0.259 C 
HETATM   22  O6  UNL     1      37.999  29.521  15.008  1.00  0.00    -0.265 OA
BRANCH  21  23
HETATM   23  C25 UNL     1      36.376  30.866  16.135  1.00  0.00     0.111 C 
BRANCH  23  24
HETATM   24  C26 UNL     1      36.821  32.005  15.231  1.00  0.00     0.010 C 
BRANCH  24  25
HETATM   25  C27 UNL     1      35.988  31.948  13.973  1.00  0.00     0.002 C 
BRANCH  25  26
HETATM   26  C28 UNL     1      36.834  32.066  12.735  1.00  0.00     0.027 C 
BRANCH  26  27
HETATM   27  C29 UNL     1      38.275  32.396  13.054  1.00  0.00     0.229 C 
BRANCH  27  28
HETATM   28  N2  UNL     1      39.053  31.218  12.638  1.00  0.00    -0.079 N 
ATOM     29  H23 UNL     1      38.690  30.338  13.002  1.00  0.00     0.274 HD
ATOM     30  H22 UNL     1      38.954  30.991  11.648  1.00  0.00     0.274 HD
ATOM     31  H21 UNL     1      40.015  31.410  12.918  1.00  0.00     0.274 HD
ENDBRANCH  27  28
ENDBRANCH  26  27
ENDBRANCH  25  26
ENDBRANCH  24  25
ENDBRANCH  23  24
ENDBRANCH  21  23
ENDBRANCH  20  21
ENDBRANCH  16  20
BRANCH  19  32
HETATM   32  O8  UNL     1      32.845  26.083  14.260  1.00  0.00    -0.355 OA
ATOM     33  H8  UNL     1      32.542  26.902  14.636  1.00  0.00     0.214 HD
ENDBRANCH  19  32
ENDBRANCH  12  13
ENDBRANCH  11  12
ENDBRANCH  10  11
ENDBRANCH   7  10
BRANCH   6  34
HETATM   34  C16 UNL     1      34.931  21.959  20.282  1.00  0.00     0.172 C 
BRANCH  34  35
HETATM   35  O4  UNL     1      35.107  20.876  19.421  1.00  0.00    -0.400 OA
ATOM     36  H4  UNL     1      34.944  20.072  19.899  1.00  0.00     0.209 HD
ENDBRANCH  34  35
ENDBRANCH   6  34
BRANCH   5  37
HETATM   37  O3  UNL     1      37.616  22.278  19.948  1.00  0.00    -0.392 OA
ATOM     38  H3  UNL     1      37.412  21.820  19.141  1.00  0.00     0.210 HD
ENDBRANCH   5  37
BRANCH   4  39
HETATM   39  O2  UNL     1      36.913  23.191  22.439  1.00  0.00    -0.390 OA
ATOM     40  H2  UNL     1      36.580  22.347  22.155  1.00  0.00     0.210 HD
ENDBRANCH   4  39
BRANCH   1  41
HETATM   41  C10 UNL     1      35.086  27.839  22.572  1.00  0.00     0.088 C 
BRANCH  41  42
HETATM   42  C9  UNL     1      33.960  28.380  21.729  1.00  0.00    -0.020 C 
HETATM   43  C7  UNL     1      34.139  28.721  20.474  1.00  0.00    -0.087 C 
HETATM   44  C8  UNL     1      35.483  28.573  19.855  1.00  0.00     0.043 C 
BRANCH  43  45
HETATM   45  C6  UNL     1      33.034  29.248  19.663  1.00  0.00     0.037 C 
BRANCH  45  46
HETATM   46  C5  UNL     1      33.197  30.730  19.420  1.00  0.00     0.031 C 
BRANCH  46  47
HETATM   47  C4  UNL     1      33.425  30.987  17.966  1.00  0.00    -0.024 C 
HETATM   48  C2  UNL     1      32.489  31.552  17.248  1.00  0.00    -0.091 C 
HETATM   49  C1  UNL     1      31.189  31.950  17.850  1.00  0.00     0.042 C 
HETATM   50  C3  UNL     1      32.705  31.816  15.793  1.00  0.00     0.042 C 
ENDBRANCH  46  47
ENDBRANCH  45  46
ENDBRANCH  43  45
ENDBRANCH  41  42
ENDBRANCH   1  41
TORSDOF 22
ENDMDL
