MODEL 1
REMARK VINA RESULT: -6.908876046      0.000      0.000
REMARK  21 active torsions:
REMARK  status: ('A' for Active; 'I' for Inactive)
REMARK    1  A    between atoms: C2_2  and  O2_4 
REMARK    2  A    between atoms: O2_4  and  C3_5 
REMARK    3  A    between atoms: C6_8  and  C7_9 
REMARK    4  A    between atoms: C8_10  and  C9_11 
REMARK    5  A    between atoms: C9_11  and  C11_13 
REMARK    6  A    between atoms: C11_13  and  C12_14 
REMARK    7  A    between atoms: C12_14  and  C13_15 
REMARK    8  A    between atoms: C13_15  and  O3_16 
REMARK    9  A    between atoms: C13_15  and  C14_18 
REMARK   10  A    between atoms: C14_18  and  C16_20 
REMARK   11  A    between atoms: C16_20  and  C17_21 
REMARK   12  A    between atoms: C17_21  and  C18_23 
REMARK   13  A    between atoms: C18_23  and  C20_25 
REMARK   14  A    between atoms: C20_25  and  O5_26 
REMARK   15  A    between atoms: C20_25  and  C21_28 
REMARK   16  A    between atoms: C23_30  and  C24_31 
REMARK   17  A    between atoms: C24_31  and  C25_32 
REMARK   18  A    between atoms: C31_40  and  C32_41 
REMARK   19  A    between atoms: C32_41  and  O8_42 
REMARK   20  A    between atoms: C33_44  and  O9_45 
REMARK   21  A    between atoms: C34_47  and  O10_48 
ROOT
HETATM    1  C13 UNL     1      36.062  29.288  19.647  1.00  0.00     0.170 C 
ENDROOT
BRANCH   1   2
HETATM    2  C12 UNL     1      37.162  28.688  20.437  1.00  0.00     0.009 C 
BRANCH   2   3
HETATM    3  C11 UNL     1      37.149  28.058  21.570  1.00  0.00     0.005 C 
BRANCH   3   4
HETATM    4  C9  UNL     1      36.230  27.795  22.656  1.00  0.00    -0.062 C 
HETATM    5  C10 UNL     1      35.146  28.850  22.765  1.00  0.00     0.048 C 
BRANCH   4   6
HETATM    6  C8  UNL     1      35.836  26.423  22.842  1.00  0.00     0.003 C 
HETATM    7  C7  UNL     1      35.651  25.398  22.075  1.00  0.00    -0.021 C 
BRANCH   7   8
HETATM    8  C6  UNL     1      35.762  25.176  20.641  1.00  0.00     0.023 C 
HETATM    9  C4  UNL     1      34.838  24.097  20.126  1.00  0.00     0.022 C 
HETATM   10  C3  UNL     1      35.320  22.702  20.423  1.00  0.00     0.167 C 
HETATM   11  C5  UNL     1      33.460  24.221  20.699  1.00  0.00     0.013 C 
HETATM   12  C34 UNL     1      36.757  22.460  20.056  1.00  0.00     0.177 C 
HETATM   13  C33 UNL     1      37.621  23.470  20.771  1.00  0.00     0.156 C 
HETATM   14  C31 UNL     1      37.217  24.835  20.352  1.00  0.00     0.049 C 
BRANCH  10  15
HETATM   15  O2  UNL     1      34.524  21.816  19.658  1.00  0.00    -0.313 OA
BRANCH  15  16
HETATM   16  C2  UNL     1      34.217  20.532  20.102  1.00  0.00     0.255 C 
HETATM   17  C1  UNL     1      33.842  19.521  19.094  1.00  0.00     0.126 C 
HETATM   18  O1  UNL     1      34.282  20.329  21.335  1.00  0.00    -0.266 OA
ENDBRANCH  15  16
ENDBRANCH  10  15
BRANCH  12  19
HETATM   19  O10 UNL     1      36.990  22.372  18.705  1.00  0.00    -0.390 OA
ATOM     20  H10 UNL     1      37.673  22.950  18.386  1.00  0.00     0.210 HD
ENDBRANCH  12  19
BRANCH  13  21
HETATM   21  O9  UNL     1      38.928  23.248  20.389  1.00  0.00    -0.392 OA
ATOM     22  H9  UNL     1      39.097  22.313  20.386  1.00  0.00     0.210 HD
ENDBRANCH  13  21
BRANCH  14  23
HETATM   23  C32 UNL     1      37.501  25.189  18.931  1.00  0.00     0.172 C 
BRANCH  23  24
HETATM   24  O8  UNL     1      38.814  25.573  18.710  1.00  0.00    -0.400 OA
ATOM     25  H8  UNL     1      39.005  26.454  19.009  1.00  0.00     0.209 HD
ENDBRANCH  23  24
ENDBRANCH  14  23
ENDBRANCH   7   8
ENDBRANCH   4   6
ENDBRANCH   3   4
ENDBRANCH   2   3
ENDBRANCH   1   2
BRANCH   1  26
HETATM   26  O3  UNL     1      36.605  30.221  18.710  1.00  0.00    -0.387 OA
ATOM     27  H3  UNL     1      36.308  29.999  17.835  1.00  0.00     0.210 HD
ENDBRANCH   1  26
BRANCH   1  28
HETATM   28  C14 UNL     1      35.209  28.287  18.914  1.00  0.00    -0.048 C 
HETATM   29  C15 UNL     1      35.566  28.241  17.473  1.00  0.00     0.046 C 
BRANCH  28  30
HETATM   30  C16 UNL     1      33.834  28.063  19.344  1.00  0.00     0.056 C 
BRANCH  30  31
HETATM   31  C17 UNL     1      32.910  29.134  19.628  1.00  0.00     0.156 C 
HETATM   32  O4  UNL     1      32.343  29.099  20.727  1.00  0.00    -0.293 OA
BRANCH  31  33
HETATM   33  C18 UNL     1      32.541  30.286  18.763  1.00  0.00     0.088 C 
HETATM   34  C19 UNL     1      31.998  31.469  19.460  1.00  0.00     0.021 C 
BRANCH  33  35
HETATM   35  C20 UNL     1      31.774  29.788  17.589  1.00  0.00     0.157 C 
BRANCH  35  36
HETATM   36  O5  UNL     1      30.694  30.709  17.422  1.00  0.00    -0.390 OA
ATOM     37  H5  UNL     1      30.146  30.336  16.741  1.00  0.00     0.210 HD
ENDBRANCH  35  36
BRANCH  35  38
HETATM   38  C21 UNL     1      32.432  29.673  16.301  1.00  0.00    -0.058 C 
HETATM   39  C22 UNL     1      33.272  30.827  15.795  1.00  0.00     0.046 C 
HETATM   40  C23 UNL     1      32.372  28.623  15.496  1.00  0.00    -0.019 C 
BRANCH  40  41
HETATM   41  C24 UNL     1      31.633  27.366  15.732  1.00  0.00     0.060 C 
BRANCH  41  42
HETATM   42  C25 UNL     1      32.475  26.384  16.466  1.00  0.00     0.140 C 
HETATM   43  O6  UNL     1      31.815  25.170  16.794  1.00  0.00    -0.315 OA
HETATM   44  C26 UNL     1      32.777  24.178  16.994  1.00  0.00     0.263 C 
HETATM   45  O7  UNL     1      32.531  23.017  17.360  1.00  0.00    -0.265 OA
HETATM   46  C27 UNL     1      34.105  24.749  16.700  1.00  0.00     0.087 C 
HETATM   47  C28 UNL     1      35.029  23.770  16.029  1.00  0.00     0.021 C 
HETATM   48  C29 UNL     1      33.680  25.870  15.715  1.00  0.00     0.025 C 
HETATM   49  C30 UNL     1      33.275  25.219  14.398  1.00  0.00     0.013 C 
ENDBRANCH  41  42
ENDBRANCH  40  41
ENDBRANCH  35  38
ENDBRANCH  33  35
ENDBRANCH  31  33
ENDBRANCH  30  31
ENDBRANCH  28  30
ENDBRANCH   1  28
TORSDOF 21
ENDMDL
MODEL 2
REMARK VINA RESULT: -6.908345051      3.087      5.804
REMARK  21 active torsions:
REMARK  status: ('A' for Active; 'I' for Inactive)
REMARK    1  A    between atoms: C2_2  and  O2_4 
REMARK    2  A    between atoms: O2_4  and  C3_5 
REMARK    3  A    between atoms: C6_8  and  C7_9 
REMARK    4  A    between atoms: C8_10  and  C9_11 
REMARK    5  A    between atoms: C9_11  and  C11_13 
REMARK    6  A    between atoms: C11_13  and  C12_14 
REMARK    7  A    between atoms: C12_14  and  C13_15 
REMARK    8  A    between atoms: C13_15  and  O3_16 
REMARK    9  A    between atoms: C13_15  and  C14_18 
REMARK   10  A    between atoms: C14_18  and  C16_20 
REMARK   11  A    between atoms: C16_20  and  C17_21 
REMARK   12  A    between atoms: C17_21  and  C18_23 
REMARK   13  A    between atoms: C18_23  and  C20_25 
REMARK   14  A    between atoms: C20_25  and  O5_26 
REMARK   15  A    between atoms: C20_25  and  C21_28 
REMARK   16  A    between atoms: C23_30  and  C24_31 
REMARK   17  A    between atoms: C24_31  and  C25_32 
REMARK   18  A    between atoms: C31_40  and  C32_41 
REMARK   19  A    between atoms: C32_41  and  O8_42 
REMARK   20  A    between atoms: C33_44  and  O9_45 
REMARK   21  A    between atoms: C34_47  and  O10_48 
ROOT
HETATM    1  C13 UNL     1      32.212  29.484  19.626  1.00  0.00     0.170 C 
ENDROOT
BRANCH   1   2
HETATM    2  C12 UNL     1      32.879  28.238  20.070  1.00  0.00     0.009 C 
BRANCH   2   3
HETATM    3  C11 UNL     1      33.222  27.832  21.253  1.00  0.00     0.005 C 
BRANCH   3   4
HETATM    4  C9  UNL     1      34.411  27.758  22.074  1.00  0.00    -0.062 C 
HETATM    5  C10 UNL     1      34.388  28.756  23.215  1.00  0.00     0.048 C 
BRANCH   4   6
HETATM    6  C8  UNL     1      34.907  26.438  22.361  1.00  0.00     0.003 C 
HETATM    7  C7  UNL     1      35.414  25.467  21.675  1.00  0.00    -0.021 C 
BRANCH   7   8
HETATM    8  C6  UNL     1      35.714  25.276  20.264  1.00  0.00     0.023 C 
HETATM    9  C4  UNL     1      34.867  24.210  19.607  1.00  0.00     0.022 C 
HETATM   10  C3  UNL     1      35.308  22.808  19.935  1.00  0.00     0.167 C 
HETATM   11  C5  UNL     1      33.426  24.324  19.996  1.00  0.00     0.013 C 
HETATM   12  C34 UNL     1      36.780  22.571  19.756  1.00  0.00     0.177 C 
HETATM   13  C33 UNL     1      37.541  23.563  20.601  1.00  0.00     0.156 C 
HETATM   14  C31 UNL     1      37.195  24.939  20.162  1.00  0.00     0.049 C 
BRANCH  10  15
HETATM   15  O2  UNL     1      34.620  21.940  19.052  1.00  0.00    -0.313 OA
BRANCH  15  16
HETATM   16  C2  UNL     1      34.500  20.576  19.306  1.00  0.00     0.255 C 
HETATM   17  C1  UNL     1      34.314  20.145  20.705  1.00  0.00     0.126 C 
HETATM   18  O1  UNL     1      34.560  19.809  18.319  1.00  0.00    -0.266 OA
ENDBRANCH  15  16
ENDBRANCH  10  15
BRANCH  12  19
HETATM   19  O10 UNL     1      37.190  22.512  18.446  1.00  0.00    -0.390 OA
ATOM     20  H10 UNL     1      38.120  22.347  18.333  1.00  0.00     0.210 HD
ENDBRANCH  12  19
BRANCH  13  21
HETATM   21  O9  UNL     1      38.888  23.348  20.391  1.00  0.00    -0.392 OA
ATOM     22  H9  UNL     1      39.034  22.423  20.231  1.00  0.00     0.210 HD
ENDBRANCH  13  21
BRANCH  14  23
HETATM   23  C32 UNL     1      37.664  25.323  18.799  1.00  0.00     0.172 C 
BRANCH  23  24
HETATM   24  O8  UNL     1      39.011  25.644  18.750  1.00  0.00    -0.400 OA
ATOM     25  H8  UNL     1      39.241  26.391  19.290  1.00  0.00     0.209 HD
ENDBRANCH  23  24
ENDBRANCH  14  23
ENDBRANCH   7   8
ENDBRANCH   4   6
ENDBRANCH   3   4
ENDBRANCH   2   3
ENDBRANCH   1   2
BRANCH   1  26
HETATM   26  O3  UNL     1      31.245  29.877  20.603  1.00  0.00    -0.387 OA
ATOM     27  H3  UNL     1      30.408  30.021  20.177  1.00  0.00     0.210 HD
ENDBRANCH   1  26
BRANCH   1  28
HETATM   28  C14 UNL     1      33.152  30.631  19.369  1.00  0.00    -0.048 C 
HETATM   29  C15 UNL     1      32.751  31.383  18.152  1.00  0.00     0.046 C 
BRANCH  28  30
HETATM   30  C16 UNL     1      34.559  30.501  19.728  1.00  0.00     0.056 C 
BRANCH  30  31
HETATM   31  C17 UNL     1      35.583  30.114  18.788  1.00  0.00     0.156 C 
HETATM   32  O4  UNL     1      36.747  30.409  19.085  1.00  0.00    -0.293 OA
BRANCH  31  33
HETATM   33  C18 UNL     1      35.422  29.405  17.492  1.00  0.00     0.088 C 
HETATM   34  C19 UNL     1      35.485  27.931  17.550  1.00  0.00     0.021 C 
BRANCH  33  35
HETATM   35  C20 UNL     1      36.265  30.072  16.462  1.00  0.00     0.157 C 
BRANCH  35  36
HETATM   36  O5  UNL     1      37.237  29.098  16.076  1.00  0.00    -0.390 OA
ATOM     37  H5  UNL     1      37.927  29.157  16.726  1.00  0.00     0.210 HD
ENDBRANCH  35  36
BRANCH  35  38
HETATM   38  C21 UNL     1      35.651  30.560  15.241  1.00  0.00    -0.058 C 
HETATM   39  C22 UNL     1      34.308  30.004  14.817  1.00  0.00     0.046 C 
HETATM   40  C23 UNL     1      36.163  31.477  14.434  1.00  0.00    -0.019 C 
BRANCH  40  41
HETATM   41  C24 UNL     1      37.448  32.186  14.600  1.00  0.00     0.060 C 
BRANCH  41  42
HETATM   42  C25 UNL     1      37.226  33.613  14.952  1.00  0.00     0.140 C 
HETATM   43  O6  UNL     1      37.972  34.067  16.074  1.00  0.00    -0.315 OA
HETATM   44  C26 UNL     1      38.089  35.456  16.000  1.00  0.00     0.263 C 
HETATM   45  O7  UNL     1      38.628  36.167  16.864  1.00  0.00    -0.265 OA
HETATM   46  C27 UNL     1      37.472  35.911  14.739  1.00  0.00     0.087 C 
HETATM   47  C28 UNL     1      38.211  37.057  14.105  1.00  0.00     0.021 C 
HETATM   48  C29 UNL     1      37.637  34.616  13.902  1.00  0.00     0.025 C 
HETATM   49  C30 UNL     1      39.110  34.466  13.540  1.00  0.00     0.013 C 
ENDBRANCH  41  42
ENDBRANCH  40  41
ENDBRANCH  35  38
ENDBRANCH  33  35
ENDBRANCH  31  33
ENDBRANCH  30  31
ENDBRANCH  28  30
ENDBRANCH   1  28
TORSDOF 21
ENDMDL
MODEL 3
REMARK VINA RESULT: -6.882549116      1.369      2.946
REMARK  21 active torsions:
REMARK  status: ('A' for Active; 'I' for Inactive)
REMARK    1  A    between atoms: C2_2  and  O2_4 
REMARK    2  A    between atoms: O2_4  and  C3_5 
REMARK    3  A    between atoms: C6_8  and  C7_9 
REMARK    4  A    between atoms: C8_10  and  C9_11 
REMARK    5  A    between atoms: C9_11  and  C11_13 
REMARK    6  A    between atoms: C11_13  and  C12_14 
REMARK    7  A    between atoms: C12_14  and  C13_15 
REMARK    8  A    between atoms: C13_15  and  O3_16 
REMARK    9  A    between atoms: C13_15  and  C14_18 
REMARK   10  A    between atoms: C14_18  and  C16_20 
REMARK   11  A    between atoms: C16_20  and  C17_21 
REMARK   12  A    between atoms: C17_21  and  C18_23 
REMARK   13  A    between atoms: C18_23  and  C20_25 
REMARK   14  A    between atoms: C20_25  and  O5_26 
REMARK   15  A    between atoms: C20_25  and  C21_28 
REMARK   16  A    between atoms: C23_30  and  C24_31 
REMARK   17  A    between atoms: C24_31  and  C25_32 
REMARK   18  A    between atoms: C31_40  and  C32_41 
REMARK   19  A    between atoms: C32_41  and  O8_42 
REMARK   20  A    between atoms: C33_44  and  O9_45 
REMARK   21  A    between atoms: C34_47  and  O10_48 
ROOT
HETATM    1  C13 UNL     1      32.658  29.517  19.021  1.00  0.00     0.170 C 
ENDROOT
BRANCH   1   2
HETATM    2  C12 UNL     1      33.177  29.331  20.396  1.00  0.00     0.009 C 
BRANCH   2   3
HETATM    3  C11 UNL     1      33.678  28.288  20.981  1.00  0.00     0.005 C 
BRANCH   3   4
HETATM    4  C9  UNL     1      34.614  27.980  22.040  1.00  0.00    -0.062 C 
HETATM    5  C10 UNL     1      34.576  29.002  23.160  1.00  0.00     0.048 C 
BRANCH   4   6
HETATM    6  C8  UNL     1      34.724  26.595  22.415  1.00  0.00     0.003 C 
HETATM    7  C7  UNL     1      35.034  25.492  21.814  1.00  0.00    -0.021 C 
BRANCH   7   8
HETATM    8  C6  UNL     1      35.420  25.158  20.452  1.00  0.00     0.023 C 
HETATM    9  C4  UNL     1      34.630  24.010  19.867  1.00  0.00     0.022 C 
HETATM   10  C3  UNL     1      35.071  22.661  20.370  1.00  0.00     0.167 C 
HETATM   11  C5  UNL     1      33.166  24.134  20.157  1.00  0.00     0.013 C 
HETATM   12  C34 UNL     1      36.555  22.438  20.302  1.00  0.00     0.177 C 
HETATM   13  C33 UNL     1      37.249  23.531  21.077  1.00  0.00     0.156 C 
HETATM   14  C31 UNL     1      36.909  24.844  20.473  1.00  0.00     0.049 C 
BRANCH  10  15
HETATM   15  O2  UNL     1      34.451  21.689  19.548  1.00  0.00    -0.313 OA
BRANCH  15  16
HETATM   16  C2  UNL     1      34.186  20.400  20.003  1.00  0.00     0.255 C 
HETATM   17  C1  UNL     1      33.859  19.364  19.003  1.00  0.00     0.126 C 
HETATM   18  O1  UNL     1      34.245  20.213  21.240  1.00  0.00    -0.266 OA
ENDBRANCH  15  16
ENDBRANCH  10  15
BRANCH  12  19
HETATM   19  O10 UNL     1      37.043  22.247  19.032  1.00  0.00    -0.390 OA
ATOM     20  H10 UNL     1      36.402  22.375  18.342  1.00  0.00     0.210 HD
ENDBRANCH  12  19
BRANCH  13  21
HETATM   21  O9  UNL     1      38.609  23.323  20.969  1.00  0.00    -0.392 OA
ATOM     22  H9  UNL     1      39.061  24.149  21.103  1.00  0.00     0.210 HD
ENDBRANCH  13  21
BRANCH  14  23
HETATM   23  C32 UNL     1      37.452  25.089  19.105  1.00  0.00     0.172 C 
BRANCH  23  24
HETATM   24  O8  UNL     1      38.817  25.329  19.090  1.00  0.00    -0.400 OA
ATOM     25  H8  UNL     1      39.200  25.277  18.222  1.00  0.00     0.209 HD
ENDBRANCH  23  24
ENDBRANCH  14  23
ENDBRANCH   7   8
ENDBRANCH   4   6
ENDBRANCH   3   4
ENDBRANCH   2   3
ENDBRANCH   1   2
BRANCH   1  26
HETATM   26  O3  UNL     1      31.350  28.948  18.927  1.00  0.00    -0.387 OA
ATOM     27  H3  UNL     1      30.901  29.314  18.174  1.00  0.00     0.210 HD
ENDBRANCH   1  26
BRANCH   1  28
HETATM   28  C14 UNL     1      32.609  30.952  18.567  1.00  0.00    -0.048 C 
HETATM   29  C15 UNL     1      31.609  31.722  19.351  1.00  0.00     0.046 C 
BRANCH  28  30
HETATM   30  C16 UNL     1      32.858  31.271  17.167  1.00  0.00     0.056 C 
BRANCH  30  31
HETATM   31  C17 UNL     1      33.780  30.531  16.339  1.00  0.00     0.156 C 
HETATM   32  O4  UNL     1      33.285  29.831  15.448  1.00  0.00    -0.293 OA
BRANCH  31  33
HETATM   33  C18 UNL     1      35.264  30.495  16.420  1.00  0.00     0.088 C 
HETATM   34  C19 UNL     1      35.980  31.512  15.623  1.00  0.00     0.021 C 
BRANCH  33  35
HETATM   35  C20 UNL     1      35.726  29.087  16.282  1.00  0.00     0.157 C 
BRANCH  35  36
HETATM   36  O5  UNL     1      37.083  29.172  15.840  1.00  0.00    -0.390 OA
ATOM     37  H5  UNL     1      37.409  29.997  16.181  1.00  0.00     0.210 HD
ENDBRANCH  35  36
BRANCH  35  38
HETATM   38  C21 UNL     1      35.715  28.213  17.441  1.00  0.00    -0.058 C 
HETATM   39  C22 UNL     1      36.437  28.647  18.700  1.00  0.00     0.046 C 
HETATM   40  C23 UNL     1      35.115  27.035  17.512  1.00  0.00    -0.019 C 
BRANCH  40  41
HETATM   41  C24 UNL     1      34.342  26.368  16.445  1.00  0.00     0.060 C 
BRANCH  41  42
HETATM   42  C25 UNL     1      34.225  24.909  16.707  1.00  0.00     0.140 C 
HETATM   43  O6  UNL     1      32.979  24.340  16.330  1.00  0.00    -0.315 OA
HETATM   44  C26 UNL     1      33.153  22.969  16.138  1.00  0.00     0.263 C 
HETATM   45  O7  UNL     1      32.241  22.170  15.868  1.00  0.00    -0.265 OA
HETATM   46  C27 UNL     1      34.583  22.650  16.313  1.00  0.00     0.087 C 
HETATM   47  C28 UNL     1      35.066  21.586  15.366  1.00  0.00     0.021 C 
HETATM   48  C29 UNL     1      35.190  24.030  15.948  1.00  0.00     0.025 C 
HETATM   49  C30 UNL     1      35.053  24.229  14.443  1.00  0.00     0.013 C 
ENDBRANCH  41  42
ENDBRANCH  40  41
ENDBRANCH  35  38
ENDBRANCH  33  35
ENDBRANCH  31  33
ENDBRANCH  30  31
ENDBRANCH  28  30
ENDBRANCH   1  28
TORSDOF 21
ENDMDL
MODEL 4
REMARK VINA RESULT: -6.847095621      1.986      3.782
REMARK  21 active torsions:
REMARK  status: ('A' for Active; 'I' for Inactive)
REMARK    1  A    between atoms: C2_2  and  O2_4 
REMARK    2  A    between atoms: O2_4  and  C3_5 
REMARK    3  A    between atoms: C6_8  and  C7_9 
REMARK    4  A    between atoms: C8_10  and  C9_11 
REMARK    5  A    between atoms: C9_11  and  C11_13 
REMARK    6  A    between atoms: C11_13  and  C12_14 
REMARK    7  A    between atoms: C12_14  and  C13_15 
REMARK    8  A    between atoms: C13_15  and  O3_16 
REMARK    9  A    between atoms: C13_15  and  C14_18 
REMARK   10  A    between atoms: C14_18  and  C16_20 
REMARK   11  A    between atoms: C16_20  and  C17_21 
REMARK   12  A    between atoms: C17_21  and  C18_23 
REMARK   13  A    between atoms: C18_23  and  C20_25 
REMARK   14  A    between atoms: C20_25  and  O5_26 
REMARK   15  A    between atoms: C20_25  and  C21_28 
REMARK   16  A    between atoms: C23_30  and  C24_31 
REMARK   17  A    between atoms: C24_31  and  C25_32 
REMARK   18  A    between atoms: C31_40  and  C32_41 
REMARK   19  A    between atoms: C32_41  and  O8_42 
REMARK   20  A    between atoms: C33_44  and  O9_45 
REMARK   21  A    between atoms: C34_47  and  O10_48 
ROOT
HETATM    1  C13 UNL     1      35.946  29.140  19.425  1.00  0.00     0.170 C 
ENDROOT
BRANCH   1   2
HETATM    2  C12 UNL     1      36.537  28.729  20.720  1.00  0.00     0.009 C 
BRANCH   2   3
HETATM    3  C11 UNL     1      36.011  28.634  21.901  1.00  0.00     0.005 C 
BRANCH   3   4
HETATM    4  C9  UNL     1      35.021  27.834  22.589  1.00  0.00    -0.062 C 
HETATM    5  C10 UNL     1      33.613  28.108  22.097  1.00  0.00     0.048 C 
BRANCH   4   6
HETATM    6  C8  UNL     1      35.374  26.463  22.847  1.00  0.00     0.003 C 
HETATM    7  C7  UNL     1      35.657  25.426  22.128  1.00  0.00    -0.021 C 
BRANCH   7   8
HETATM    8  C6  UNL     1      35.743  25.183  20.696  1.00  0.00     0.023 C 
HETATM    9  C4  UNL     1      34.799  24.107  20.210  1.00  0.00     0.022 C 
HETATM   10  C3  UNL     1      35.270  22.711  20.520  1.00  0.00     0.167 C 
HETATM   11  C5  UNL     1      33.432  24.255  20.803  1.00  0.00     0.013 C 
HETATM   12  C34 UNL     1      36.698  22.447  20.135  1.00  0.00     0.177 C 
HETATM   13  C33 UNL     1      37.584  23.457  20.822  1.00  0.00     0.156 C 
HETATM   14  C31 UNL     1      37.190  24.821  20.390  1.00  0.00     0.049 C 
BRANCH  10  15
HETATM   15  O2  UNL     1      34.452  21.823  19.780  1.00  0.00    -0.313 OA
BRANCH  15  16
HETATM   16  C2  UNL     1      34.240  20.507  20.184  1.00  0.00     0.255 C 
HETATM   17  C1  UNL     1      33.919  19.507  19.148  1.00  0.00     0.126 C 
HETATM   18  O1  UNL     1      34.336  20.269  21.409  1.00  0.00    -0.266 OA
ENDBRANCH  15  16
ENDBRANCH  10  15
BRANCH  12  19
HETATM   19  O10 UNL     1      36.910  22.337  18.782  1.00  0.00    -0.390 OA
ATOM     20  H10 UNL     1      37.689  22.782  18.469  1.00  0.00     0.210 HD
ENDBRANCH  12  19
BRANCH  13  21
HETATM   21  O9  UNL     1      38.884  23.215  20.424  1.00  0.00    -0.392 OA
ATOM     22  H9  UNL     1      39.424  23.962  20.656  1.00  0.00     0.210 HD
ENDBRANCH  13  21
BRANCH  14  23
HETATM   23  C32 UNL     1      37.456  25.151  18.960  1.00  0.00     0.172 C 
BRANCH  23  24
HETATM   24  O8  UNL     1      38.780  25.470  18.705  1.00  0.00    -0.400 OA
ATOM     25  H8  UNL     1      39.137  26.111  19.310  1.00  0.00     0.209 HD
ENDBRANCH  23  24
ENDBRANCH  14  23
ENDBRANCH   7   8
ENDBRANCH   4   6
ENDBRANCH   3   4
ENDBRANCH   2   3
ENDBRANCH   1   2
BRANCH   1  26
HETATM   26  O3  UNL     1      36.289  30.502  19.159  1.00  0.00    -0.387 OA
ATOM     27  H3  UNL     1      36.877  30.817  19.834  1.00  0.00     0.210 HD
ENDBRANCH   1  26
BRANCH   1  28
HETATM   28  C14 UNL     1      36.362  28.286  18.256  1.00  0.00    -0.048 C 
HETATM   29  C15 UNL     1      37.708  28.677  17.766  1.00  0.00     0.046 C 
BRANCH  28  30
HETATM   30  C16 UNL     1      35.349  27.796  17.329  1.00  0.00     0.056 C 
BRANCH  30  31
HETATM   31  C17 UNL     1      34.100  27.215  17.756  1.00  0.00     0.156 C 
HETATM   32  O4  UNL     1      33.955  26.004  17.553  1.00  0.00    -0.293 OA
BRANCH  31  33
HETATM   33  C18 UNL     1      32.948  27.887  18.412  1.00  0.00     0.088 C 
HETATM   34  C19 UNL     1      31.920  26.995  18.985  1.00  0.00     0.021 C 
BRANCH  33  35
HETATM   35  C20 UNL     1      32.467  28.993  17.539  1.00  0.00     0.157 C 
BRANCH  35  36
HETATM   36  O5  UNL     1      31.040  28.924  17.590  1.00  0.00    -0.390 OA
ATOM     37  H5  UNL     1      30.769  28.644  16.724  1.00  0.00     0.210 HD
ENDBRANCH  35  36
BRANCH  35  38
HETATM   38  C21 UNL     1      32.833  30.362  17.851  1.00  0.00    -0.058 C 
HETATM   39  C22 UNL     1      32.439  30.945  19.192  1.00  0.00     0.046 C 
HETATM   40  C23 UNL     1      33.504  31.180  17.054  1.00  0.00    -0.019 C 
BRANCH  40  41
HETATM   41  C24 UNL     1      34.011  30.882  15.700  1.00  0.00     0.060 C 
BRANCH  41  42
HETATM   42  C25 UNL     1      35.482  31.086  15.627  1.00  0.00     0.140 C 
HETATM   43  O6  UNL     1      36.191  30.042  14.975  1.00  0.00    -0.315 OA
HETATM   44  C26 UNL     1      37.411  30.546  14.520  1.00  0.00     0.263 C 
HETATM   45  O7  UNL     1      38.294  29.870  13.966  1.00  0.00    -0.265 OA
HETATM   46  C27 UNL     1      37.457  31.992  14.811  1.00  0.00     0.087 C 
HETATM   47  C28 UNL     1      38.140  32.785  13.732  1.00  0.00     0.021 C 
HETATM   48  C29 UNL     1      35.934  32.288  14.833  1.00  0.00     0.025 C 
HETATM   49  C30 UNL     1      35.416  32.232  13.400  1.00  0.00     0.013 C 
ENDBRANCH  41  42
ENDBRANCH  40  41
ENDBRANCH  35  38
ENDBRANCH  33  35
ENDBRANCH  31  33
ENDBRANCH  30  31
ENDBRANCH  28  30
ENDBRANCH   1  28
TORSDOF 21
ENDMDL
MODEL 5
REMARK VINA RESULT: -6.811235647      2.194      3.940
REMARK  21 active torsions:
REMARK  status: ('A' for Active; 'I' for Inactive)
REMARK    1  A    between atoms: C2_2  and  O2_4 
REMARK    2  A    between atoms: O2_4  and  C3_5 
REMARK    3  A    between atoms: C6_8  and  C7_9 
REMARK    4  A    between atoms: C8_10  and  C9_11 
REMARK    5  A    between atoms: C9_11  and  C11_13 
REMARK    6  A    between atoms: C11_13  and  C12_14 
REMARK    7  A    between atoms: C12_14  and  C13_15 
REMARK    8  A    between atoms: C13_15  and  O3_16 
REMARK    9  A    between atoms: C13_15  and  C14_18 
REMARK   10  A    between atoms: C14_18  and  C16_20 
REMARK   11  A    between atoms: C16_20  and  C17_21 
REMARK   12  A    between atoms: C17_21  and  C18_23 
REMARK   13  A    between atoms: C18_23  and  C20_25 
REMARK   14  A    between atoms: C20_25  and  O5_26 
REMARK   15  A    between atoms: C20_25  and  C21_28 
REMARK   16  A    between atoms: C23_30  and  C24_31 
REMARK   17  A    between atoms: C24_31  and  C25_32 
REMARK   18  A    between atoms: C31_40  and  C32_41 
REMARK   19  A    between atoms: C32_41  and  O8_42 
REMARK   20  A    between atoms: C33_44  and  O9_45 
REMARK   21  A    between atoms: C34_47  and  O10_48 
ROOT
HETATM    1  C13 UNL     1      36.202  29.276  19.608  1.00  0.00     0.170 C 
ENDROOT
BRANCH   1   2
HETATM    2  C12 UNL     1      37.217  28.657  20.491  1.00  0.00     0.009 C 
BRANCH   2   3
HETATM    3  C11 UNL     1      37.115  28.155  21.682  1.00  0.00     0.005 C 
BRANCH   3   4
HETATM    4  C9  UNL     1      36.082  27.856  22.650  1.00  0.00    -0.062 C 
HETATM    5  C10 UNL     1      34.922  28.830  22.577  1.00  0.00     0.048 C 
BRANCH   4   6
HETATM    6  C8  UNL     1      35.764  26.465  22.838  1.00  0.00     0.003 C 
HETATM    7  C7  UNL     1      35.641  25.430  22.073  1.00  0.00    -0.021 C 
BRANCH   7   8
HETATM    8  C6  UNL     1      35.772  25.211  20.640  1.00  0.00     0.023 C 
HETATM    9  C4  UNL     1      34.839  24.148  20.106  1.00  0.00     0.022 C 
HETATM   10  C3  UNL     1      35.294  22.745  20.406  1.00  0.00     0.167 C 
HETATM   11  C5  UNL     1      33.454  24.292  20.657  1.00  0.00     0.013 C 
HETATM   12  C34 UNL     1      36.733  22.481  20.062  1.00  0.00     0.177 C 
HETATM   13  C33 UNL     1      37.601  23.474  20.795  1.00  0.00     0.156 C 
HETATM   14  C31 UNL     1      37.226  24.847  20.374  1.00  0.00     0.049 C 
BRANCH  10  15
HETATM   15  O2  UNL     1      34.497  21.873  19.625  1.00  0.00    -0.313 OA
BRANCH  15  16
HETATM   16  C2  UNL     1      34.202  20.576  20.038  1.00  0.00     0.255 C 
HETATM   17  C1  UNL     1      33.846  19.584  19.005  1.00  0.00     0.126 C 
HETATM   18  O1  UNL     1      34.260  20.346  21.267  1.00  0.00    -0.266 OA
ENDBRANCH  15  16
ENDBRANCH  10  15
BRANCH  12  19
HETATM   19  O10 UNL     1      36.987  22.393  18.715  1.00  0.00    -0.390 OA
ATOM     20  H10 UNL     1      36.340  21.897  18.225  1.00  0.00     0.210 HD
ENDBRANCH  12  19
BRANCH  13  21
HETATM   21  O9  UNL     1      38.911  23.233  20.434  1.00  0.00    -0.392 OA
ATOM     22  H9  UNL     1      39.117  22.321  20.602  1.00  0.00     0.210 HD
ENDBRANCH  13  21
BRANCH  14  23
HETATM   23  C32 UNL     1      37.538  25.201  18.959  1.00  0.00     0.172 C 
BRANCH  23  24
HETATM   24  O8  UNL     1      38.854  25.590  18.766  1.00  0.00    -0.400 OA
ATOM     25  H8  UNL     1      39.022  25.941  17.899  1.00  0.00     0.209 HD
ENDBRANCH  23  24
ENDBRANCH  14  23
ENDBRANCH   7   8
ENDBRANCH   4   6
ENDBRANCH   3   4
ENDBRANCH   2   3
ENDBRANCH   1   2
BRANCH   1  26
HETATM   26  O3  UNL     1      36.844  30.183  18.709  1.00  0.00    -0.387 OA
ATOM     27  H3  UNL     1      37.113  30.960  19.185  1.00  0.00     0.210 HD
ENDBRANCH   1  26
BRANCH   1  28
HETATM   28  C14 UNL     1      35.385  28.288  18.817  1.00  0.00    -0.048 C 
HETATM   29  C15 UNL     1      35.891  28.177  17.425  1.00  0.00     0.046 C 
BRANCH  28  30
HETATM   30  C16 UNL     1      33.963  28.139  19.104  1.00  0.00     0.056 C 
BRANCH  30  31
HETATM   31  C17 UNL     1      33.072  29.260  19.284  1.00  0.00     0.156 C 
HETATM   32  O4  UNL     1      32.250  29.170  20.204  1.00  0.00    -0.293 OA
BRANCH  31  33
HETATM   33  C18 UNL     1      33.006  30.520  18.499  1.00  0.00     0.088 C 
HETATM   34  C19 UNL     1      32.238  31.623  19.110  1.00  0.00     0.021 C 
BRANCH  33  35
HETATM   35  C20 UNL     1      32.697  30.194  17.079  1.00  0.00     0.157 C 
BRANCH  35  36
HETATM   36  O5  UNL     1      31.381  29.638  17.093  1.00  0.00    -0.390 OA
ATOM     37  H5  UNL     1      31.504  28.697  17.128  1.00  0.00     0.210 HD
ENDBRANCH  35  36
BRANCH  35  38
HETATM   38  C21 UNL     1      32.696  31.253  16.087  1.00  0.00    -0.058 C 
HETATM   39  C22 UNL     1      31.380  31.885  15.684  1.00  0.00     0.046 C 
HETATM   40  C23 UNL     1      33.766  31.741  15.479  1.00  0.00    -0.019 C 
BRANCH  40  41
HETATM   41  C24 UNL     1      35.167  31.318  15.676  1.00  0.00     0.060 C 
BRANCH  41  42
HETATM   42  C25 UNL     1      36.043  31.864  14.605  1.00  0.00     0.140 C 
HETATM   43  O6  UNL     1      37.193  32.553  15.077  1.00  0.00    -0.315 OA
HETATM   44  C26 UNL     1      38.154  32.563  14.065  1.00  0.00     0.263 C 
HETATM   45  O7  UNL     1      39.250  33.144  14.134  1.00  0.00    -0.265 OA
HETATM   46  C27 UNL     1      37.642  31.776  12.926  1.00  0.00     0.087 C 
HETATM   47  C28 UNL     1      38.715  30.982  12.233  1.00  0.00     0.021 C 
HETATM   48  C29 UNL     1      36.669  30.840  13.689  1.00  0.00     0.025 C 
HETATM   49  C30 UNL     1      37.496  29.829  14.474  1.00  0.00     0.013 C 
ENDBRANCH  41  42
ENDBRANCH  40  41
ENDBRANCH  35  38
ENDBRANCH  33  35
ENDBRANCH  31  33
ENDBRANCH  30  31
ENDBRANCH  28  30
ENDBRANCH   1  28
TORSDOF 21
ENDMDL
