MODEL 1
REMARK VINA RESULT: -6.417367897      0.000      0.000
REMARK  20 active torsions:
REMARK  status: ('A' for Active; 'I' for Inactive)
REMARK    1  A    between atoms: C2_2  and  C3_3 
REMARK    2  A    between atoms: C3_3  and  O1_4 
REMARK    3  A    between atoms: O1_4  and  C4_5 
REMARK    4  A    between atoms: C5_7  and  C6_8 
REMARK    5  A    between atoms: C10_12  and  O3_13 
REMARK    6  A    between atoms: O3_13  and  C11_14 
REMARK    7  A    between atoms: C11_14  and  C12_15 
REMARK    8  A    between atoms: C12_15  and  O4_16 
REMARK    9  A    between atoms: C12_15  and  C13_18 
REMARK   10  A    between atoms: C13_18  and  O5_19 
REMARK   11  A    between atoms: O5_19  and  C14_20 
REMARK   12  A    between atoms: C14_20  and  C15_22 
REMARK   13  A    between atoms: C15_22  and  C16_23 
REMARK   14  A    between atoms: C20_27  and  O7_28 
REMARK   15  A    between atoms: C22_31  and  O8_32 
REMARK   16  A    between atoms: C23_34  and  O9_35 
REMARK   17  A    between atoms: C24_37  and  C25_38 
REMARK   18  A    between atoms: C26_39  and  C27_40 
REMARK   19  A    between atoms: C27_40  and  C28_41 
REMARK   20  A    between atoms: C32_45  and  O10_46 
ROOT
HETATM    1  C6  UNL     1      31.874  26.264  17.489  1.00  0.00     0.047 C 
HETATM    2  C7  UNL     1      32.662  26.313  18.754  1.00  0.00     0.016 C 
HETATM    3  C8  UNL     1      34.115  26.675  18.439  1.00  0.00     0.013 C 
HETATM    4  C9  UNL     1      34.218  28.011  17.781  1.00  0.00     0.012 C 
HETATM    5  C10 UNL     1      34.764  25.615  17.569  1.00  0.00     0.156 C 
HETATM    6  C22 UNL     1      33.690  24.629  17.108  1.00  0.00     0.176 C 
HETATM    7  C23 UNL     1      32.491  25.299  16.508  1.00  0.00     0.156 C 
ENDROOT
BRANCH   1   8
HETATM    8  C5  UNL     1      30.428  26.341  17.519  1.00  0.00     0.139 C 
HETATM    9  O2  UNL     1      30.034  25.364  18.503  1.00  0.00    -0.352 OA
HETATM   10  C4  UNL     1      28.770  24.877  18.172  1.00  0.00     0.288 C 
HETATM   11  C32 UNL     1      27.730  25.969  18.192  1.00  0.00     0.174 C 
HETATM   12  C31 UNL     1      28.226  27.236  17.498  1.00  0.00     0.047 C 
HETATM   13  C24 UNL     1      29.654  27.543  17.905  1.00  0.00     0.040 C 
BRANCH  10  14
HETATM   14  O1  UNL     1      28.744  24.244  16.954  1.00  0.00    -0.359 OA
BRANCH  14  15
HETATM   15  C3  UNL     1      27.663  23.369  16.891  1.00  0.00     0.170 C 
BRANCH  15  16
HETATM   16  C2  UNL     1      27.847  22.215  17.852  1.00  0.00     0.022 C 
HETATM   17  C1  UNL     1      26.516  21.918  18.505  1.00  0.00     0.007 C 
ENDBRANCH  15  16
ENDBRANCH  14  15
ENDBRANCH  10  14
BRANCH  11  18
HETATM   18  O10 UNL     1      27.271  26.241  19.478  1.00  0.00    -0.391 OA
ATOM     19  H10 UNL     1      26.960  25.462  19.924  1.00  0.00     0.210 HD
ENDBRANCH  11  18
BRANCH  13  20
HETATM   20  C25 UNL     1      30.054  28.837  17.402  1.00  0.00    -0.023 C 
HETATM   21  C26 UNL     1      30.307  29.997  17.933  1.00  0.00    -0.030 C 
BRANCH  21  22
HETATM   22  C27 UNL     1      30.315  30.556  19.263  1.00  0.00     0.030 C 
BRANCH  22  23
HETATM   23  C28 UNL     1      31.685  30.838  19.833  1.00  0.00    -0.019 C 
HETATM   24  C29 UNL     1      32.161  29.565  20.500  1.00  0.00     0.010 C 
HETATM   25  C30 UNL     1      32.696  31.270  18.845  1.00  0.00     0.010 C 
ENDBRANCH  22  23
ENDBRANCH  21  22
ENDBRANCH  13  20
ENDBRANCH   1   8
BRANCH   7  26
HETATM   26  O9  UNL     1      31.620  24.283  16.135  1.00  0.00    -0.392 OA
ATOM     27  H9  UNL     1      31.916  23.424  16.416  1.00  0.00     0.210 HD
ENDBRANCH   7  26
BRANCH   6  28
HETATM   28  O8  UNL     1      33.393  23.661  18.028  1.00  0.00    -0.390 OA
ATOM     29  H8  UNL     1      34.131  23.112  18.262  1.00  0.00     0.210 HD
ENDBRANCH   6  28
BRANCH   5  30
HETATM   30  O3  UNL     1      35.854  25.125  17.965  1.00  0.00    -0.380 OA
BRANCH  30  31
HETATM   31  C11 UNL     1      36.958  24.661  18.239  1.00  0.00     0.202 C 
BRANCH  31  32
HETATM   32  C12 UNL     1      36.867  23.191  18.729  1.00  0.00     0.166 C 
BRANCH  32  33
HETATM   33  O4  UNL     1      37.175  22.318  17.708  1.00  0.00    -0.391 OA
ATOM     34  H4  UNL     1      37.363  21.452  18.052  1.00  0.00     0.210 HD
ENDBRANCH  32  33
BRANCH  32  35
HETATM   35  C13 UNL     1      37.803  22.947  19.886  1.00  0.00     0.212 C 
BRANCH  35  36
HETATM   36  O5  UNL     1      37.746  24.004  20.828  1.00  0.00    -0.319 OA
BRANCH  36  37
HETATM   37  C14 UNL     1      36.753  24.118  21.781  1.00  0.00     0.259 C 
HETATM   38  O6  UNL     1      36.816  23.446  22.841  1.00  0.00    -0.265 OA
BRANCH  37  39
HETATM   39  C15 UNL     1      35.581  25.021  21.612  1.00  0.00     0.115 C 
BRANCH  39  40
HETATM   40  C16 UNL     1      35.811  26.366  22.232  1.00  0.00    -0.003 C 
HETATM   41  C17 UNL     1      36.748  27.226  21.415  1.00  0.00     0.005 C 
HETATM   42  C18 UNL     1      36.065  28.483  20.920  1.00  0.00     0.003 C 
HETATM   43  C19 UNL     1      35.529  29.317  22.058  1.00  0.00     0.032 C 
HETATM   44  C20 UNL     1      34.929  28.443  23.110  1.00  0.00     0.118 C 
HETATM   45  C21 UNL     1      34.521  27.127  22.442  1.00  0.00     0.037 C 
BRANCH  44  46
HETATM   46  O7  UNL     1      33.851  29.035  23.759  1.00  0.00    -0.396 OA
ATOM     47  H7  UNL     1      33.094  29.146  23.196  1.00  0.00     0.210 HD
ENDBRANCH  44  46
ENDBRANCH  39  40
ENDBRANCH  37  39
ENDBRANCH  36  37
ENDBRANCH  35  36
ENDBRANCH  32  35
ENDBRANCH  31  32
ENDBRANCH  30  31
ENDBRANCH   5  30
TORSDOF 20
ENDMDL
MODEL 2
REMARK VINA RESULT: -6.384705208      2.292      7.470
REMARK  20 active torsions:
REMARK  status: ('A' for Active; 'I' for Inactive)
REMARK    1  A    between atoms: C2_2  and  C3_3 
REMARK    2  A    between atoms: C3_3  and  O1_4 
REMARK    3  A    between atoms: O1_4  and  C4_5 
REMARK    4  A    between atoms: C5_7  and  C6_8 
REMARK    5  A    between atoms: C10_12  and  O3_13 
REMARK    6  A    between atoms: O3_13  and  C11_14 
REMARK    7  A    between atoms: C11_14  and  C12_15 
REMARK    8  A    between atoms: C12_15  and  O4_16 
REMARK    9  A    between atoms: C12_15  and  C13_18 
REMARK   10  A    between atoms: C13_18  and  O5_19 
REMARK   11  A    between atoms: O5_19  and  C14_20 
REMARK   12  A    between atoms: C14_20  and  C15_22 
REMARK   13  A    between atoms: C15_22  and  C16_23 
REMARK   14  A    between atoms: C20_27  and  O7_28 
REMARK   15  A    between atoms: C22_31  and  O8_32 
REMARK   16  A    between atoms: C23_34  and  O9_35 
REMARK   17  A    between atoms: C24_37  and  C25_38 
REMARK   18  A    between atoms: C26_39  and  C27_40 
REMARK   19  A    between atoms: C27_40  and  C28_41 
REMARK   20  A    between atoms: C32_45  and  O10_46 
ROOT
HETATM    1  C6  UNL     1      33.870  24.813  18.247  1.00  0.00     0.047 C 
HETATM    2  C7  UNL     1      32.805  25.561  18.973  1.00  0.00     0.016 C 
HETATM    3  C8  UNL     1      31.524  25.572  18.135  1.00  0.00     0.013 C 
HETATM    4  C9  UNL     1      31.023  24.189  17.881  1.00  0.00     0.012 C 
HETATM    5  C10 UNL     1      31.740  26.297  16.820  1.00  0.00     0.156 C 
HETATM    6  C22 UNL     1      33.230  26.599  16.661  1.00  0.00     0.176 C 
HETATM    7  C23 UNL     1      34.103  25.400  16.878  1.00  0.00     0.156 C 
ENDROOT
BRANCH   1   8
HETATM    8  C5  UNL     1      35.029  24.311  18.955  1.00  0.00     0.139 C 
HETATM    9  O2  UNL     1      35.527  25.447  19.688  1.00  0.00    -0.352 OA
HETATM   10  C4  UNL     1      36.905  25.310  19.849  1.00  0.00     0.288 C 
HETATM   11  C32 UNL     1      37.253  24.081  20.651  1.00  0.00     0.174 C 
HETATM   12  C31 UNL     1      36.449  22.864  20.197  1.00  0.00     0.047 C 
HETATM   13  C24 UNL     1      34.996  23.237  19.975  1.00  0.00     0.040 C 
BRANCH  10  14
HETATM   14  O1  UNL     1      37.582  25.283  18.655  1.00  0.00    -0.359 OA
BRANCH  14  15
HETATM   15  C3  UNL     1      38.526  26.305  18.615  1.00  0.00     0.170 C 
BRANCH  15  16
HETATM   16  C2  UNL     1      37.941  27.601  19.131  1.00  0.00     0.022 C 
HETATM   17  C1  UNL     1      37.507  28.435  17.948  1.00  0.00     0.007 C 
ENDBRANCH  15  16
ENDBRANCH  14  15
ENDBRANCH  10  14
BRANCH  11  18
HETATM   18  O10 UNL     1      37.129  24.289  22.022  1.00  0.00    -0.391 OA
ATOM     19  H10 UNL     1      37.693  23.715  22.528  1.00  0.00     0.210 HD
ENDBRANCH  11  18
BRANCH  13  20
HETATM   20  C25 UNL     1      34.204  22.053  19.734  1.00  0.00    -0.023 C 
HETATM   21  C26 UNL     1      33.898  21.342  18.689  1.00  0.00    -0.030 C 
BRANCH  21  22
HETATM   22  C27 UNL     1      34.193  21.383  17.278  1.00  0.00     0.030 C 
BRANCH  22  23
HETATM   23  C28 UNL     1      35.646  21.179  16.919  1.00  0.00    -0.019 C 
HETATM   24  C29 UNL     1      35.696  20.095  15.863  1.00  0.00     0.010 C 
HETATM   25  C30 UNL     1      36.337  22.381  16.407  1.00  0.00     0.010 C 
ENDBRANCH  22  23
ENDBRANCH  21  22
ENDBRANCH  13  20
ENDBRANCH   1   8
BRANCH   7  26
HETATM   26  O9  UNL     1      35.411  25.830  16.692  1.00  0.00    -0.392 OA
ATOM     27  H9  UNL     1      35.592  26.077  15.793  1.00  0.00     0.210 HD
ENDBRANCH   7  26
BRANCH   6  28
HETATM   28  O8  UNL     1      33.643  27.723  17.324  1.00  0.00    -0.390 OA
ATOM     29  H8  UNL     1      33.817  28.464  16.756  1.00  0.00     0.210 HD
ENDBRANCH   6  28
BRANCH   5  30
HETATM   30  O3  UNL     1      30.937  27.223  16.528  1.00  0.00    -0.380 OA
BRANCH  30  31
HETATM   31  C11 UNL     1      30.143  28.074  16.136  1.00  0.00     0.202 C 
BRANCH  31  32
HETATM   32  C12 UNL     1      29.750  29.068  17.262  1.00  0.00     0.166 C 
BRANCH  32  33
HETATM   33  O4  UNL     1      29.208  28.396  18.337  1.00  0.00    -0.391 OA
ATOM     34  H4  UNL     1      29.834  28.344  19.050  1.00  0.00     0.210 HD
ENDBRANCH  32  33
BRANCH  32  35
HETATM   35  C13 UNL     1      30.946  29.859  17.728  1.00  0.00     0.212 C 
BRANCH  35  36
HETATM   36  O5  UNL     1      31.562  29.252  18.850  1.00  0.00    -0.319 OA
BRANCH  36  37
HETATM   37  C14 UNL     1      32.169  29.969  19.863  1.00  0.00     0.259 C 
HETATM   38  O6  UNL     1      32.556  31.146  19.657  1.00  0.00    -0.265 OA
BRANCH  37  39
HETATM   39  C15 UNL     1      32.394  29.401  21.222  1.00  0.00     0.115 C 
BRANCH  39  40
HETATM   40  C16 UNL     1      33.582  28.489  21.262  1.00  0.00    -0.003 C 
HETATM   41  C17 UNL     1      34.859  29.185  20.850  1.00  0.00     0.005 C 
HETATM   42  C18 UNL     1      35.871  29.209  21.974  1.00  0.00     0.003 C 
HETATM   43  C19 UNL     1      36.221  27.819  22.445  1.00  0.00     0.032 C 
HETATM   44  C20 UNL     1      35.002  26.957  22.486  1.00  0.00     0.118 C 
HETATM   45  C21 UNL     1      33.788  27.879  22.631  1.00  0.00     0.037 C 
BRANCH  44  46
HETATM   46  O7  UNL     1      35.039  26.009  23.503  1.00  0.00    -0.396 OA
ATOM     47  H7  UNL     1      35.083  25.118  23.179  1.00  0.00     0.210 HD
ENDBRANCH  44  46
ENDBRANCH  39  40
ENDBRANCH  37  39
ENDBRANCH  36  37
ENDBRANCH  35  36
ENDBRANCH  32  35
ENDBRANCH  31  32
ENDBRANCH  30  31
ENDBRANCH   5  30
TORSDOF 20
ENDMDL
MODEL 3
REMARK VINA RESULT: -6.225019866      3.721      6.871
REMARK  20 active torsions:
REMARK  status: ('A' for Active; 'I' for Inactive)
REMARK    1  A    between atoms: C2_2  and  C3_3 
REMARK    2  A    between atoms: C3_3  and  O1_4 
REMARK    3  A    between atoms: O1_4  and  C4_5 
REMARK    4  A    between atoms: C5_7  and  C6_8 
REMARK    5  A    between atoms: C10_12  and  O3_13 
REMARK    6  A    between atoms: O3_13  and  C11_14 
REMARK    7  A    between atoms: C11_14  and  C12_15 
REMARK    8  A    between atoms: C12_15  and  O4_16 
REMARK    9  A    between atoms: C12_15  and  C13_18 
REMARK   10  A    between atoms: C13_18  and  O5_19 
REMARK   11  A    between atoms: O5_19  and  C14_20 
REMARK   12  A    between atoms: C14_20  and  C15_22 
REMARK   13  A    between atoms: C15_22  and  C16_23 
REMARK   14  A    between atoms: C20_27  and  O7_28 
REMARK   15  A    between atoms: C22_31  and  O8_32 
REMARK   16  A    between atoms: C23_34  and  O9_35 
REMARK   17  A    between atoms: C24_37  and  C25_38 
REMARK   18  A    between atoms: C26_39  and  C27_40 
REMARK   19  A    between atoms: C27_40  and  C28_41 
REMARK   20  A    between atoms: C32_45  and  O10_46 
ROOT
HETATM    1  C6  UNL     1      33.372  28.899  17.940  1.00  0.00     0.047 C 
HETATM    2  C7  UNL     1      34.393  28.037  18.603  1.00  0.00     0.016 C 
HETATM    3  C8  UNL     1      33.809  27.451  19.891  1.00  0.00     0.013 C 
HETATM    4  C9  UNL     1      32.606  26.611  19.616  1.00  0.00     0.012 C 
HETATM    5  C10 UNL     1      33.463  28.548  20.880  1.00  0.00     0.156 C 
HETATM    6  C22 UNL     1      33.609  29.903  20.187  1.00  0.00     0.176 C 
HETATM    7  C23 UNL     1      32.888  29.977  18.876  1.00  0.00     0.156 C 
ENDROOT
BRANCH   1   8
HETATM    8  C5  UNL     1      33.502  29.249  16.541  1.00  0.00     0.139 C 
HETATM    9  O2  UNL     1      34.679  30.079  16.482  1.00  0.00    -0.352 OA
HETATM   10  C4  UNL     1      34.546  30.974  15.422  1.00  0.00     0.288 C 
HETATM   11  C32 UNL     1      34.444  30.258  14.098  1.00  0.00     0.174 C 
HETATM   12  C31 UNL     1      33.488  29.069  14.170  1.00  0.00     0.047 C 
HETATM   13  C24 UNL     1      33.717  28.278  15.443  1.00  0.00     0.040 C 
BRANCH  10  14
HETATM   14  O1  UNL     1      33.474  31.819  15.568  1.00  0.00    -0.359 OA
BRANCH  14  15
HETATM   15  C3  UNL     1      33.440  32.736  14.521  1.00  0.00     0.170 C 
BRANCH  15  16
HETATM   16  C2  UNL     1      32.111  33.458  14.478  1.00  0.00     0.022 C 
HETATM   17  C1  UNL     1      31.246  32.935  15.602  1.00  0.00     0.007 C 
ENDBRANCH  15  16
ENDBRANCH  14  15
ENDBRANCH  10  14
BRANCH  11  18
HETATM   18  O10 UNL     1      35.689  29.880  13.603  1.00  0.00    -0.391 OA
ATOM     19  H10 UNL     1      36.161  29.314  14.203  1.00  0.00     0.210 HD
ENDBRANCH  11  18
BRANCH  13  20
HETATM   20  C25 UNL     1      32.950  27.052  15.419  1.00  0.00    -0.023 C 
HETATM   21  C26 UNL     1      33.162  25.823  15.783  1.00  0.00    -0.030 C 
BRANCH  21  22
HETATM   22  C27 UNL     1      34.248  25.084  16.381  1.00  0.00     0.030 C 
BRANCH  22  23
HETATM   23  C28 UNL     1      34.562  23.760  15.725  1.00  0.00    -0.019 C 
HETATM   24  C29 UNL     1      35.966  23.379  16.144  1.00  0.00     0.010 C 
HETATM   25  C30 UNL     1      33.641  22.657  16.071  1.00  0.00     0.010 C 
ENDBRANCH  22  23
ENDBRANCH  21  22
ENDBRANCH  13  20
ENDBRANCH   1   8
BRANCH   7  26
HETATM   26  O9  UNL     1      33.106  31.257  18.381  1.00  0.00    -0.392 OA
ATOM     27  H9  UNL     1      34.011  31.534  18.468  1.00  0.00     0.210 HD
ENDBRANCH   7  26
BRANCH   6  28
HETATM   28  O8  UNL     1      34.894  30.371  20.150  1.00  0.00    -0.390 OA
ATOM     29  H8  UNL     1      34.987  31.268  20.449  1.00  0.00     0.210 HD
ENDBRANCH   6  28
BRANCH   5  30
HETATM   30  O3  UNL     1      33.933  28.450  22.045  1.00  0.00    -0.380 OA
BRANCH  30  31
HETATM   31  C11 UNL     1      34.443  28.463  23.162  1.00  0.00     0.202 C 
BRANCH  31  32
HETATM   32  C12 UNL     1      35.554  27.388  23.307  1.00  0.00     0.166 C 
BRANCH  32  33
HETATM   33  O4  UNL     1      35.020  26.121  23.219  1.00  0.00    -0.391 OA
ATOM     34  H4  UNL     1      35.477  25.609  22.562  1.00  0.00     0.210 HD
ENDBRANCH  32  33
BRANCH  32  35
HETATM   35  C13 UNL     1      36.610  27.554  22.243  1.00  0.00     0.212 C 
BRANCH  35  36
HETATM   36  O5  UNL     1      36.940  26.312  21.646  1.00  0.00    -0.319 OA
BRANCH  36  37
HETATM   37  C14 UNL     1      37.160  26.156  20.291  1.00  0.00     0.259 C 
HETATM   38  O6  UNL     1      37.902  26.961  19.676  1.00  0.00    -0.265 OA
BRANCH  37  39
HETATM   39  C15 UNL     1      36.544  25.052  19.502  1.00  0.00     0.115 C 
BRANCH  39  40
HETATM   40  C16 UNL     1      35.759  24.113  20.366  1.00  0.00    -0.003 C 
HETATM   41  C17 UNL     1      34.615  23.463  19.622  1.00  0.00     0.005 C 
HETATM   42  C18 UNL     1      34.775  21.960  19.551  1.00  0.00     0.003 C 
HETATM   43  C19 UNL     1      34.859  21.339  20.924  1.00  0.00     0.032 C 
HETATM   44  C20 UNL     1      35.684  22.189  21.833  1.00  0.00     0.118 C 
HETATM   45  C21 UNL     1      36.625  23.024  20.960  1.00  0.00     0.037 C 
BRANCH  44  46
HETATM   46  O7  UNL     1      36.393  21.449  22.774  1.00  0.00    -0.396 OA
ATOM     47  H7  UNL     1      36.870  21.992  23.391  1.00  0.00     0.210 HD
ENDBRANCH  44  46
ENDBRANCH  39  40
ENDBRANCH  37  39
ENDBRANCH  36  37
ENDBRANCH  35  36
ENDBRANCH  32  35
ENDBRANCH  31  32
ENDBRANCH  30  31
ENDBRANCH   5  30
TORSDOF 20
ENDMDL
MODEL 4
REMARK VINA RESULT: -6.202424232      3.659      6.655
REMARK  20 active torsions:
REMARK  status: ('A' for Active; 'I' for Inactive)
REMARK    1  A    between atoms: C2_2  and  C3_3 
REMARK    2  A    between atoms: C3_3  and  O1_4 
REMARK    3  A    between atoms: O1_4  and  C4_5 
REMARK    4  A    between atoms: C5_7  and  C6_8 
REMARK    5  A    between atoms: C10_12  and  O3_13 
REMARK    6  A    between atoms: O3_13  and  C11_14 
REMARK    7  A    between atoms: C11_14  and  C12_15 
REMARK    8  A    between atoms: C12_15  and  O4_16 
REMARK    9  A    between atoms: C12_15  and  C13_18 
REMARK   10  A    between atoms: C13_18  and  O5_19 
REMARK   11  A    between atoms: O5_19  and  C14_20 
REMARK   12  A    between atoms: C14_20  and  C15_22 
REMARK   13  A    between atoms: C15_22  and  C16_23 
REMARK   14  A    between atoms: C20_27  and  O7_28 
REMARK   15  A    between atoms: C22_31  and  O8_32 
REMARK   16  A    between atoms: C23_34  and  O9_35 
REMARK   17  A    between atoms: C24_37  and  C25_38 
REMARK   18  A    between atoms: C26_39  and  C27_40 
REMARK   19  A    between atoms: C27_40  and  C28_41 
REMARK   20  A    between atoms: C32_45  and  O10_46 
ROOT
HETATM    1  C6  UNL     1      35.146  29.345  16.896  1.00  0.00     0.047 C 
HETATM    2  C7  UNL     1      35.291  27.956  16.374  1.00  0.00     0.016 C 
HETATM    3  C8  UNL     1      34.989  26.955  17.492  1.00  0.00     0.013 C 
HETATM    4  C9  UNL     1      33.595  27.109  18.006  1.00  0.00     0.012 C 
HETATM    5  C10 UNL     1      35.982  27.094  18.631  1.00  0.00     0.156 C 
HETATM    6  C22 UNL     1      36.838  28.337  18.391  1.00  0.00     0.176 C 
HETATM    7  C23 UNL     1      36.029  29.564  18.097  1.00  0.00     0.156 C 
ENDROOT
BRANCH   1   8
HETATM    8  C5  UNL     1      34.981  30.459  15.985  1.00  0.00     0.139 C 
HETATM    9  O2  UNL     1      36.087  30.344  15.068  1.00  0.00    -0.352 OA
HETATM   10  C4  UNL     1      36.425  31.616  14.609  1.00  0.00     0.288 C 
HETATM   11  C32 UNL     1      35.287  32.255  13.851  1.00  0.00     0.174 C 
HETATM   12  C31 UNL     1      33.954  32.073  14.573  1.00  0.00     0.047 C 
HETATM   13  C24 UNL     1      33.817  30.653  15.090  1.00  0.00     0.040 C 
BRANCH  10  14
HETATM   14  O1  UNL     1      36.831  32.456  15.615  1.00  0.00    -0.359 OA
BRANCH  14  15
HETATM   15  C3  UNL     1      37.245  33.675  15.084  1.00  0.00     0.170 C 
BRANCH  15  16
HETATM   16  C2  UNL     1      38.332  34.294  15.936  1.00  0.00     0.022 C 
HETATM   17  C1  UNL     1      37.999  35.752  16.153  1.00  0.00     0.007 C 
ENDBRANCH  15  16
ENDBRANCH  14  15
ENDBRANCH  10  14
BRANCH  11  18
HETATM   18  O10 UNL     1      35.215  31.814  12.532  1.00  0.00    -0.391 OA
ATOM     19  H10 UNL     1      35.220  32.533  11.910  1.00  0.00     0.210 HD
ENDBRANCH  11  18
BRANCH  13  20
HETATM   20  C25 UNL     1      32.483  30.430  15.600  1.00  0.00    -0.023 C 
HETATM   21  C26 UNL     1      31.734  30.990  16.504  1.00  0.00    -0.030 C 
BRANCH  21  22
HETATM   22  C27 UNL     1      31.860  32.090  17.427  1.00  0.00     0.030 C 
BRANCH  22  23
HETATM   23  C28 UNL     1      31.790  31.714  18.889  1.00  0.00    -0.019 C 
HETATM   24  C29 UNL     1      30.512  30.927  19.085  1.00  0.00     0.010 C 
HETATM   25  C30 UNL     1      32.929  30.911  19.382  1.00  0.00     0.010 C 
ENDBRANCH  22  23
ENDBRANCH  21  22
ENDBRANCH  13  20
ENDBRANCH   1   8
BRANCH   7  26
HETATM   26  O9  UNL     1      36.939  30.598  17.913  1.00  0.00    -0.392 OA
ATOM     27  H9  UNL     1      36.819  31.307  18.534  1.00  0.00     0.210 HD
ENDBRANCH   7  26
BRANCH   6  28
HETATM   28  O8  UNL     1      37.884  28.134  17.532  1.00  0.00    -0.390 OA
ATOM     29  H8  UNL     1      38.455  28.886  17.435  1.00  0.00     0.210 HD
ENDBRANCH   6  28
BRANCH   5  30
HETATM   30  O3  UNL     1      36.582  26.053  19.009  1.00  0.00    -0.380 OA
BRANCH  30  31
HETATM   31  C11 UNL     1      37.271  25.102  19.370  1.00  0.00     0.202 C 
BRANCH  31  32
HETATM   32  C12 UNL     1      36.846  23.779  18.677  1.00  0.00     0.166 C 
BRANCH  32  33
HETATM   33  O4  UNL     1      37.581  22.719  19.161  1.00  0.00    -0.391 OA
ATOM     34  H4  UNL     1      37.009  22.050  19.519  1.00  0.00     0.210 HD
ENDBRANCH  32  33
BRANCH  32  35
HETATM   35  C13 UNL     1      35.379  23.502  18.891  1.00  0.00     0.212 C 
BRANCH  35  36
HETATM   36  O5  UNL     1      35.006  23.715  20.242  1.00  0.00    -0.319 OA
BRANCH  36  37
HETATM   37  C14 UNL     1      33.870  24.407  20.615  1.00  0.00     0.259 C 
HETATM   38  O6  UNL     1      32.823  24.318  19.927  1.00  0.00    -0.265 OA
BRANCH  37  39
HETATM   39  C15 UNL     1      33.823  25.276  21.824  1.00  0.00     0.115 C 
BRANCH  39  40
HETATM   40  C16 UNL     1      34.577  26.556  21.627  1.00  0.00    -0.003 C 
HETATM   41  C17 UNL     1      33.681  27.771  21.693  1.00  0.00     0.005 C 
HETATM   42  C18 UNL     1      34.059  28.683  22.840  1.00  0.00     0.003 C 
HETATM   43  C19 UNL     1      35.488  29.156  22.735  1.00  0.00     0.032 C 
HETATM   44  C20 UNL     1      36.374  28.046  22.272  1.00  0.00     0.118 C 
HETATM   45  C21 UNL     1      35.691  26.725  22.637  1.00  0.00     0.037 C 
BRANCH  44  46
HETATM   46  O7  UNL     1      37.656  28.115  22.806  1.00  0.00    -0.396 OA
ATOM     47  H7  UNL     1      38.027  27.261  22.994  1.00  0.00     0.210 HD
ENDBRANCH  44  46
ENDBRANCH  39  40
ENDBRANCH  37  39
ENDBRANCH  36  37
ENDBRANCH  35  36
ENDBRANCH  32  35
ENDBRANCH  31  32
ENDBRANCH  30  31
ENDBRANCH   5  30
TORSDOF 20
ENDMDL
MODEL 5
REMARK VINA RESULT: -6.165685894      2.707      6.382
REMARK  20 active torsions:
REMARK  status: ('A' for Active; 'I' for Inactive)
REMARK    1  A    between atoms: C2_2  and  C3_3 
REMARK    2  A    between atoms: C3_3  and  O1_4 
REMARK    3  A    between atoms: O1_4  and  C4_5 
REMARK    4  A    between atoms: C5_7  and  C6_8 
REMARK    5  A    between atoms: C10_12  and  O3_13 
REMARK    6  A    between atoms: O3_13  and  C11_14 
REMARK    7  A    between atoms: C11_14  and  C12_15 
REMARK    8  A    between atoms: C12_15  and  O4_16 
REMARK    9  A    between atoms: C12_15  and  C13_18 
REMARK   10  A    between atoms: C13_18  and  O5_19 
REMARK   11  A    between atoms: O5_19  and  C14_20 
REMARK   12  A    between atoms: C14_20  and  C15_22 
REMARK   13  A    between atoms: C15_22  and  C16_23 
REMARK   14  A    between atoms: C20_27  and  O7_28 
REMARK   15  A    between atoms: C22_31  and  O8_32 
REMARK   16  A    between atoms: C23_34  and  O9_35 
REMARK   17  A    between atoms: C24_37  and  C25_38 
REMARK   18  A    between atoms: C26_39  and  C27_40 
REMARK   19  A    between atoms: C27_40  and  C28_41 
REMARK   20  A    between atoms: C32_45  and  O10_46 
ROOT
HETATM    1  C6  UNL     1      35.783  28.366  18.551  1.00  0.00     0.047 C 
HETATM    2  C7  UNL     1      35.008  27.137  18.886  1.00  0.00     0.016 C 
HETATM    3  C8  UNL     1      35.336  26.699  20.315  1.00  0.00     0.013 C 
HETATM    4  C9  UNL     1      34.976  27.753  21.309  1.00  0.00     0.012 C 
HETATM    5  C10 UNL     1      36.802  26.334  20.451  1.00  0.00     0.156 C 
HETATM    6  C22 UNL     1      37.530  26.727  19.165  1.00  0.00     0.176 C 
HETATM    7  C23 UNL     1      37.261  28.140  18.743  1.00  0.00     0.156 C 
ENDROOT
BRANCH   1   8
HETATM    8  C5  UNL     1      35.382  29.210  17.444  1.00  0.00     0.139 C 
HETATM    9  O2  UNL     1      35.186  28.298  16.346  1.00  0.00    -0.352 OA
HETATM   10  C4  UNL     1      35.450  28.967  15.153  1.00  0.00     0.288 C 
HETATM   11  C32 UNL     1      34.506  30.124  14.941  1.00  0.00     0.174 C 
HETATM   12  C31 UNL     1      34.328  30.950  16.214  1.00  0.00     0.047 C 
HETATM   13  C24 UNL     1      34.158  30.043  17.417  1.00  0.00     0.040 C 
BRANCH  10  14
HETATM   14  O1  UNL     1      36.746  29.415  15.067  1.00  0.00    -0.359 OA
BRANCH  14  15
HETATM   15  C3  UNL     1      37.015  29.862  13.776  1.00  0.00     0.170 C 
BRANCH  15  16
HETATM   16  C2  UNL     1      38.054  30.962  13.792  1.00  0.00     0.022 C 
HETATM   17  C1  UNL     1      37.446  32.187  14.435  1.00  0.00     0.007 C 
ENDBRANCH  15  16
ENDBRANCH  14  15
ENDBRANCH  10  14
BRANCH  11  18
HETATM   18  O10 UNL     1      33.278  29.719  14.423  1.00  0.00    -0.391 OA
ATOM     19  H10 UNL     1      32.797  30.437  14.029  1.00  0.00     0.210 HD
ENDBRANCH  11  18
BRANCH  13  20
HETATM   20  C25 UNL     1      33.799  30.818  18.584  1.00  0.00    -0.023 C 
HETATM   21  C26 UNL     1      32.707  31.363  19.030  1.00  0.00    -0.030 C 
BRANCH  21  22
HETATM   22  C27 UNL     1      31.337  31.465  18.591  1.00  0.00     0.030 C 
BRANCH  22  23
HETATM   23  C28 UNL     1      30.495  30.231  18.821  1.00  0.00    -0.019 C 
HETATM   24  C29 UNL     1      29.311  30.651  19.666  1.00  0.00     0.010 C 
HETATM   25  C30 UNL     1      30.001  29.575  17.592  1.00  0.00     0.010 C 
ENDBRANCH  22  23
ENDBRANCH  21  22
ENDBRANCH  13  20
ENDBRANCH   1   8
BRANCH   7  26
HETATM   26  O9  UNL     1      37.991  28.345  17.578  1.00  0.00    -0.392 OA
ATOM     27  H9  UNL     1      38.577  29.091  17.639  1.00  0.00     0.210 HD
ENDBRANCH   7  26
BRANCH   6  28
HETATM   28  O8  UNL     1      37.416  25.807  18.159  1.00  0.00    -0.390 OA
ATOM     29  H8  UNL     1      38.017  25.949  17.437  1.00  0.00     0.210 HD
ENDBRANCH   6  28
BRANCH   5  30
HETATM   30  O3  UNL     1      37.077  25.206  20.939  1.00  0.00    -0.380 OA
BRANCH  30  31
HETATM   31  C11 UNL     1      37.245  24.065  21.362  1.00  0.00     0.202 C 
BRANCH  31  32
HETATM   32  C12 UNL     1      37.555  23.059  20.221  1.00  0.00     0.166 C 
BRANCH  32  33
HETATM   33  O4  UNL     1      38.693  22.335  20.506  1.00  0.00    -0.391 OA
ATOM     34  H4  UNL     1      38.560  21.414  20.318  1.00  0.00     0.210 HD
ENDBRANCH  32  33
BRANCH  32  35
HETATM   35  C13 UNL     1      36.405  22.107  20.011  1.00  0.00     0.212 C 
BRANCH  35  36
HETATM   36  O5  UNL     1      36.024  22.050  18.647  1.00  0.00    -0.319 OA
BRANCH  36  37
HETATM   37  C14 UNL     1      35.121  22.924  18.074  1.00  0.00     0.259 C 
HETATM   38  O6  UNL     1      35.530  23.934  17.450  1.00  0.00    -0.265 OA
BRANCH  37  39
HETATM   39  C15 UNL     1      33.647  22.723  18.162  1.00  0.00     0.115 C 
BRANCH  39  40
HETATM   40  C16 UNL     1      32.888  23.970  17.825  1.00  0.00    -0.003 C 
HETATM   41  C17 UNL     1      31.704  23.700  16.926  1.00  0.00     0.005 C 
HETATM   42  C18 UNL     1      30.397  24.068  17.595  1.00  0.00     0.003 C 
HETATM   43  C19 UNL     1      30.362  25.522  17.998  1.00  0.00     0.032 C 
HETATM   44  C20 UNL     1      31.687  25.946  18.543  1.00  0.00     0.118 C 
HETATM   45  C21 UNL     1      32.397  24.692  19.060  1.00  0.00     0.037 C 
BRANCH  44  46
HETATM   46  O7  UNL     1      31.582  26.913  19.537  1.00  0.00    -0.396 OA
ATOM     47  H7  UNL     1      31.521  26.543  20.410  1.00  0.00     0.210 HD
ENDBRANCH  44  46
ENDBRANCH  39  40
ENDBRANCH  37  39
ENDBRANCH  36  37
ENDBRANCH  35  36
ENDBRANCH  32  35
ENDBRANCH  31  32
ENDBRANCH  30  31
ENDBRANCH   5  30
TORSDOF 20
ENDMDL
