MODEL 1
REMARK VINA RESULT: -7.142255335      0.000      0.000
REMARK  22 active torsions:
REMARK  status: ('A' for Active; 'I' for Inactive)
REMARK    1  A    between atoms: C2_2  and  C3_3 
REMARK    2  A    between atoms: C3_3  and  C4_4 
REMARK    3  A    between atoms: C4_4  and  C5_5 
REMARK    4  A    between atoms: C6_6  and  C7_7 
REMARK    5  A    between atoms: C7_7  and  C8_8 
REMARK    6  A    between atoms: C9_9  and  C10_10 
REMARK    7  A    between atoms: C10_10  and  C11_11 
REMARK    8  A    between atoms: C11_11  and  C12_12 
REMARK    9  A    between atoms: C13_13  and  C14_14 
REMARK   10  A    between atoms: C14_14  and  C15_15 
REMARK   11  A    between atoms: C14_14  and  C16_18 
REMARK   12  A    between atoms: C15_15  and  O1_16 
REMARK   13  A    between atoms: C16_18  and  C17_19 
REMARK   14  A    between atoms: C16_18  and  O3_28 
REMARK   15  A    between atoms: C17_19  and  C18_20 
REMARK   16  A    between atoms: O3_28  and  C25_29 
REMARK   17  A    between atoms: C26_30  and  O4_31 
REMARK   18  A    between atoms: C27_33  and  C28_34 
REMARK   19  A    between atoms: C28_34  and  O5_35 
REMARK   20  A    between atoms: C31_41  and  C32_42 
REMARK   21  A    between atoms: C32_42  and  O8_43 
REMARK   22  A    between atoms: C33_46  and  O10_47 
ROOT
HETATM    1  C16 UNL     1      35.542  27.450  19.777  1.00  0.00     0.132 C 
ENDROOT
BRANCH   1   2
HETATM    2  C14 UNL     1      36.125  28.761  19.747  1.00  0.00     0.061 C 
BRANCH   2   3
HETATM    3  C13 UNL     1      35.901  29.727  18.676  1.00  0.00    -0.009 C 
HETATM    4  C12 UNL     1      36.628  29.719  17.559  1.00  0.00     0.052 C 
BRANCH   4   5
HETATM    5  C11 UNL     1      36.442  30.602  16.475  1.00  0.00    -0.129 C 
BRANCH   5   6
HETATM    6  C10 UNL     1      36.285  31.366  15.521  1.00  0.00     0.055 C 
BRANCH   6   7
HETATM    7  C9  UNL     1      35.126  31.291  14.564  1.00  0.00     0.004 C 
HETATM    8  C8  UNL     1      34.379  32.341  14.438  1.00  0.00    -0.022 C 
BRANCH   8   9
HETATM    9  C7  UNL     1      33.197  32.684  13.657  1.00  0.00     0.054 C 
BRANCH   9  10
HETATM   10  C6  UNL     1      32.438  33.777  14.304  1.00  0.00    -0.027 C 
HETATM   11  C5  UNL     1      31.516  33.544  15.242  1.00  0.00    -0.030 C 
BRANCH  11  12
HETATM   12  C4  UNL     1      31.108  32.249  15.772  1.00  0.00     0.027 C 
BRANCH  12  13
HETATM   13  C3  UNL     1      31.446  31.997  17.209  1.00  0.00     0.003 C 
BRANCH  13  14
HETATM   14  C2  UNL     1      32.731  31.258  17.358  1.00  0.00    -0.004 C 
HETATM   15  C1  UNL     1      32.612  29.868  16.696  1.00  0.00     0.005 C 
ENDBRANCH  13  14
ENDBRANCH  12  13
ENDBRANCH  11  12
ENDBRANCH   9  10
ENDBRANCH   8   9
ENDBRANCH   6   7
ENDBRANCH   5   6
ENDBRANCH   4   5
ENDBRANCH   2   3
BRANCH   2  16
HETATM   16  C15 UNL     1      37.690  28.687  19.830  1.00  0.00     0.175 C 
BRANCH  16  17
HETATM   17  O1  UNL     1      38.022  27.957  20.994  1.00  0.00    -0.400 OA
ATOM     18  H1  UNL     1      38.394  27.128  20.716  1.00  0.00     0.209 HD
ENDBRANCH  16  17
ENDBRANCH   2  16
ENDBRANCH   1   2
BRANCH   1  19
HETATM   19  C17 UNL     1      34.011  27.547  19.493  1.00  0.00     0.046 C 
BRANCH  19  20
HETATM   20  C18 UNL     1      33.136  27.374  20.647  1.00  0.00     0.070 C 
HETATM   21  C19 UNL     1      33.832  26.679  21.754  1.00  0.00     0.159 C 
HETATM   22  O2  UNL     1      33.965  25.440  21.965  1.00  0.00    -0.292 OA
HETATM   23  C20 UNL     1      34.351  27.795  22.577  1.00  0.00    -0.019 C 
HETATM   24  C21 UNL     1      35.450  27.647  23.581  1.00  0.00     0.052 C 
HETATM   25  C22 UNL     1      33.694  28.917  22.303  1.00  0.00    -0.011 C 
HETATM   26  C23 UNL     1      32.677  28.635  21.282  1.00  0.00     0.016 C 
HETATM   27  C24 UNL     1      32.385  29.782  20.353  1.00  0.00     0.015 C 
ENDBRANCH  19  20
ENDBRANCH   1  19
BRANCH   1  28
HETATM   28  O3  UNL     1      36.112  26.468  19.041  1.00  0.00    -0.374 OA
BRANCH  28  29
HETATM   29  C25 UNL     1      35.932  25.169  19.516  1.00  0.00     0.190 C 
HETATM   30  C26 UNL     1      37.023  24.708  20.469  1.00  0.00     0.181 C 
HETATM   31  C27 UNL     1      36.964  23.217  20.694  1.00  0.00     0.182 C 
HETATM   32  O6  UNL     1      35.963  22.546  20.087  1.00  0.00    -0.320 OA
HETATM   33  C29 UNL     1      35.663  22.833  18.801  1.00  0.00     0.313 C 
HETATM   34  O7  UNL     1      34.298  22.655  18.627  1.00  0.00    -0.328 OA
HETATM   35  O9  UNL     1      36.335  21.968  17.926  1.00  0.00    -0.321 OA
HETATM   36  C33 UNL     1      36.024  24.218  18.352  1.00  0.00     0.242 C 
HETATM   37  C30 UNL     1      34.147  21.606  17.728  1.00  0.00     0.208 C 
HETATM   38  C31 UNL     1      35.401  21.797  16.889  1.00  0.00     0.175 C 
BRANCH  30  39
HETATM   39  O4  UNL     1      36.886  25.419  21.650  1.00  0.00    -0.390 OA
ATOM     40  H4  UNL     1      37.706  25.867  21.819  1.00  0.00     0.210 HD
ENDBRANCH  30  39
BRANCH  31  41
HETATM   41  C28 UNL     1      38.323  22.542  20.526  1.00  0.00     0.199 C 
BRANCH  41  42
HETATM   42  O5  UNL     1      39.323  23.448  20.185  1.00  0.00    -0.398 OA
ATOM     43  H5  UNL     1      40.181  23.041  20.148  1.00  0.00     0.209 HD
ENDBRANCH  41  42
ENDBRANCH  31  41
BRANCH  38  44
HETATM   44  C32 UNL     1      35.679  20.520  16.133  1.00  0.00     0.198 C 
BRANCH  44  45
HETATM   45  O8  UNL     1      35.350  19.450  16.959  1.00  0.00    -0.398 OA
ATOM     46  H8  UNL     1      34.899  18.800  16.433  1.00  0.00     0.209 HD
ENDBRANCH  44  45
ENDBRANCH  38  44
BRANCH  36  47
HETATM   47  O10 UNL     1      37.298  24.267  17.758  1.00  0.00    -0.385 OA
ATOM     48  H10 UNL     1      37.236  24.225  16.811  1.00  0.00     0.210 HD
ENDBRANCH  36  47
ENDBRANCH  28  29
ENDBRANCH   1  28
TORSDOF 22
ENDMDL
MODEL 2
REMARK VINA RESULT: -7.124336621      1.669      2.532
REMARK  22 active torsions:
REMARK  status: ('A' for Active; 'I' for Inactive)
REMARK    1  A    between atoms: C2_2  and  C3_3 
REMARK    2  A    between atoms: C3_3  and  C4_4 
REMARK    3  A    between atoms: C4_4  and  C5_5 
REMARK    4  A    between atoms: C6_6  and  C7_7 
REMARK    5  A    between atoms: C7_7  and  C8_8 
REMARK    6  A    between atoms: C9_9  and  C10_10 
REMARK    7  A    between atoms: C10_10  and  C11_11 
REMARK    8  A    between atoms: C11_11  and  C12_12 
REMARK    9  A    between atoms: C13_13  and  C14_14 
REMARK   10  A    between atoms: C14_14  and  C15_15 
REMARK   11  A    between atoms: C14_14  and  C16_18 
REMARK   12  A    between atoms: C15_15  and  O1_16 
REMARK   13  A    between atoms: C16_18  and  C17_19 
REMARK   14  A    between atoms: C16_18  and  O3_28 
REMARK   15  A    between atoms: C17_19  and  C18_20 
REMARK   16  A    between atoms: O3_28  and  C25_29 
REMARK   17  A    between atoms: C26_30  and  O4_31 
REMARK   18  A    between atoms: C27_33  and  C28_34 
REMARK   19  A    between atoms: C28_34  and  O5_35 
REMARK   20  A    between atoms: C31_41  and  C32_42 
REMARK   21  A    between atoms: C32_42  and  O8_43 
REMARK   22  A    between atoms: C33_46  and  O10_47 
ROOT
HETATM    1  C16 UNL     1      36.788  27.117  20.033  1.00  0.00     0.132 C 
ENDROOT
BRANCH   1   2
HETATM    2  C14 UNL     1      37.600  28.049  19.305  1.00  0.00     0.061 C 
BRANCH   2   3
HETATM    3  C13 UNL     1      37.064  29.172  18.542  1.00  0.00    -0.009 C 
HETATM    4  C12 UNL     1      37.119  29.208  17.211  1.00  0.00     0.052 C 
BRANCH   4   5
HETATM    5  C11 UNL     1      36.592  30.247  16.415  1.00  0.00    -0.129 C 
BRANCH   5   6
HETATM    6  C10 UNL     1      36.141  31.162  15.725  1.00  0.00     0.055 C 
BRANCH   6   7
HETATM    7  C9  UNL     1      34.750  31.176  15.149  1.00  0.00     0.004 C 
HETATM    8  C8  UNL     1      33.763  31.388  15.960  1.00  0.00    -0.022 C 
BRANCH   8   9
HETATM    9  C7  UNL     1      32.314  31.474  15.828  1.00  0.00     0.054 C 
BRANCH   9  10
HETATM   10  C6  UNL     1      31.840  30.656  14.692  1.00  0.00    -0.027 C 
HETATM   11  C5  UNL     1      31.417  29.398  14.848  1.00  0.00    -0.030 C 
BRANCH  11  12
HETATM   12  C4  UNL     1      31.348  28.642  16.091  1.00  0.00     0.027 C 
BRANCH  12  13
HETATM   13  C3  UNL     1      32.241  27.443  16.176  1.00  0.00     0.003 C 
BRANCH  13  14
HETATM   14  C2  UNL     1      33.663  27.821  16.406  1.00  0.00    -0.004 C 
HETATM   15  C1  UNL     1      34.578  26.612  16.109  1.00  0.00     0.005 C 
ENDBRANCH  13  14
ENDBRANCH  12  13
ENDBRANCH  11  12
ENDBRANCH   9  10
ENDBRANCH   8   9
ENDBRANCH   6   7
ENDBRANCH   5   6
ENDBRANCH   4   5
ENDBRANCH   2   3
BRANCH   2  16
HETATM   16  C15 UNL     1      38.504  27.313  18.255  1.00  0.00     0.175 C 
BRANCH  16  17
HETATM   17  O1  UNL     1      39.652  26.844  18.933  1.00  0.00    -0.400 OA
ATOM     18  H1  UNL     1      40.092  26.226  18.360  1.00  0.00     0.209 HD
ENDBRANCH  16  17
ENDBRANCH   2  16
ENDBRANCH   1   2
BRANCH   1  19
HETATM   19  C17 UNL     1      35.295  27.273  19.608  1.00  0.00     0.046 C 
BRANCH  19  20
HETATM   20  C18 UNL     1      34.378  27.715  20.654  1.00  0.00     0.070 C 
HETATM   21  C19 UNL     1      34.397  29.188  20.802  1.00  0.00     0.159 C 
HETATM   22  O2  UNL     1      35.164  29.914  21.497  1.00  0.00    -0.292 OA
HETATM   23  C20 UNL     1      33.285  29.627  19.930  1.00  0.00    -0.019 C 
HETATM   24  C21 UNL     1      33.131  31.025  19.419  1.00  0.00     0.052 C 
HETATM   25  C22 UNL     1      32.455  28.617  19.692  1.00  0.00    -0.011 C 
HETATM   26  C23 UNL     1      32.945  27.424  20.395  1.00  0.00     0.016 C 
HETATM   27  C24 UNL     1      32.642  26.121  19.708  1.00  0.00     0.015 C 
ENDBRANCH  19  20
ENDBRANCH   1  19
BRANCH   1  28
HETATM   28  O3  UNL     1      37.154  25.814  20.054  1.00  0.00    -0.374 OA
BRANCH  28  29
HETATM   29  C25 UNL     1      36.112  24.888  19.984  1.00  0.00     0.190 C 
HETATM   30  C26 UNL     1      35.946  24.056  21.245  1.00  0.00     0.181 C 
HETATM   31  C27 UNL     1      35.040  22.871  21.006  1.00  0.00     0.182 C 
HETATM   32  O6  UNL     1      34.491  22.757  19.780  1.00  0.00    -0.320 OA
HETATM   33  C29 UNL     1      35.260  22.979  18.691  1.00  0.00     0.313 C 
HETATM   34  O7  UNL     1      34.459  23.531  17.702  1.00  0.00    -0.328 OA
HETATM   35  O9  UNL     1      35.796  21.779  18.205  1.00  0.00    -0.321 OA
HETATM   36  C33 UNL     1      36.438  23.883  18.910  1.00  0.00     0.242 C 
HETATM   37  C30 UNL     1      34.423  22.610  16.662  1.00  0.00     0.208 C 
HETATM   38  C31 UNL     1      35.802  21.989  16.814  1.00  0.00     0.175 C 
BRANCH  30  39
HETATM   39  O4  UNL     1      35.465  24.886  22.244  1.00  0.00    -0.390 OA
ATOM     40  H4  UNL     1      34.916  24.365  22.818  1.00  0.00     0.210 HD
ENDBRANCH  30  39
BRANCH  31  41
HETATM   41  C28 UNL     1      35.638  21.563  21.516  1.00  0.00     0.199 C 
BRANCH  41  42
HETATM   42  O5  UNL     1      36.378  21.739  22.682  1.00  0.00    -0.398 OA
ATOM     43  H5  UNL     1      36.807  20.939  22.962  1.00  0.00     0.209 HD
ENDBRANCH  41  42
ENDBRANCH  31  41
BRANCH  38  44
HETATM   44  C32 UNL     1      35.824  20.668  16.082  1.00  0.00     0.198 C 
BRANCH  44  45
HETATM   45  O8  UNL     1      35.479  19.668  16.985  1.00  0.00    -0.398 OA
ATOM     46  H8  UNL     1      34.673  19.925  17.416  1.00  0.00     0.209 HD
ENDBRANCH  44  45
ENDBRANCH  38  44
BRANCH  36  47
HETATM   47  O10 UNL     1      37.605  23.166  19.227  1.00  0.00    -0.385 OA
ATOM     48  H10 UNL     1      38.276  23.297  18.567  1.00  0.00     0.210 HD
ENDBRANCH  36  47
ENDBRANCH  28  29
ENDBRANCH   1  28
TORSDOF 22
ENDMDL
MODEL 3
REMARK VINA RESULT: -6.996948649      1.949      3.020
REMARK  22 active torsions:
REMARK  status: ('A' for Active; 'I' for Inactive)
REMARK    1  A    between atoms: C2_2  and  C3_3 
REMARK    2  A    between atoms: C3_3  and  C4_4 
REMARK    3  A    between atoms: C4_4  and  C5_5 
REMARK    4  A    between atoms: C6_6  and  C7_7 
REMARK    5  A    between atoms: C7_7  and  C8_8 
REMARK    6  A    between atoms: C9_9  and  C10_10 
REMARK    7  A    between atoms: C10_10  and  C11_11 
REMARK    8  A    between atoms: C11_11  and  C12_12 
REMARK    9  A    between atoms: C13_13  and  C14_14 
REMARK   10  A    between atoms: C14_14  and  C15_15 
REMARK   11  A    between atoms: C14_14  and  C16_18 
REMARK   12  A    between atoms: C15_15  and  O1_16 
REMARK   13  A    between atoms: C16_18  and  C17_19 
REMARK   14  A    between atoms: C16_18  and  O3_28 
REMARK   15  A    between atoms: C17_19  and  C18_20 
REMARK   16  A    between atoms: O3_28  and  C25_29 
REMARK   17  A    between atoms: C26_30  and  O4_31 
REMARK   18  A    between atoms: C27_33  and  C28_34 
REMARK   19  A    between atoms: C28_34  and  O5_35 
REMARK   20  A    between atoms: C31_41  and  C32_42 
REMARK   21  A    between atoms: C32_42  and  O8_43 
REMARK   22  A    between atoms: C33_46  and  O10_47 
ROOT
HETATM    1  C16 UNL     1      37.177  26.802  20.377  1.00  0.00     0.132 C 
ENDROOT
BRANCH   1   2
HETATM    2  C14 UNL     1      37.755  27.509  19.271  1.00  0.00     0.061 C 
BRANCH   2   3
HETATM    3  C13 UNL     1      36.987  28.006  18.132  1.00  0.00    -0.009 C 
HETATM    4  C12 UNL     1      37.164  29.235  17.648  1.00  0.00     0.052 C 
BRANCH   4   5
HETATM    5  C11 UNL     1      36.479  29.763  16.533  1.00  0.00    -0.129 C 
BRANCH   5   6
HETATM    6  C10 UNL     1      35.889  30.232  15.559  1.00  0.00     0.055 C 
BRANCH   6   7
HETATM    7  C9  UNL     1      34.391  30.271  15.419  1.00  0.00     0.004 C 
HETATM    8  C8  UNL     1      33.766  31.295  15.908  1.00  0.00    -0.022 C 
BRANCH   8   9
HETATM    9  C7  UNL     1      32.373  31.714  15.993  1.00  0.00     0.054 C 
BRANCH   9  10
HETATM   10  C6  UNL     1      31.952  31.857  17.403  1.00  0.00    -0.027 C 
HETATM   11  C5  UNL     1      31.037  31.056  17.957  1.00  0.00    -0.030 C 
BRANCH  11  12
HETATM   12  C4  UNL     1      30.325  29.958  17.315  1.00  0.00     0.027 C 
BRANCH  12  13
HETATM   13  C3  UNL     1      30.744  28.581  17.726  1.00  0.00     0.003 C 
BRANCH  13  14
HETATM   14  C2  UNL     1      31.898  28.086  16.925  1.00  0.00    -0.004 C 
HETATM   15  C1  UNL     1      33.170  28.065  17.802  1.00  0.00     0.005 C 
ENDBRANCH  13  14
ENDBRANCH  12  13
ENDBRANCH  11  12
ENDBRANCH   9  10
ENDBRANCH   8   9
ENDBRANCH   6   7
ENDBRANCH   5   6
ENDBRANCH   4   5
ENDBRANCH   2   3
BRANCH   2  16
HETATM   16  C15 UNL     1      38.887  26.665  18.588  1.00  0.00     0.175 C 
BRANCH  16  17
HETATM   17  O1  UNL     1      38.272  25.570  17.941  1.00  0.00    -0.400 OA
ATOM     18  H1  UNL     1      38.803  24.800  18.113  1.00  0.00     0.209 HD
ENDBRANCH  16  17
ENDBRANCH   2  16
ENDBRANCH   1   2
BRANCH   1  19
HETATM   19  C17 UNL     1      35.726  27.315  20.633  1.00  0.00     0.046 C 
BRANCH  19  20
HETATM   20  C18 UNL     1      35.611  28.528  21.436  1.00  0.00     0.070 C 
HETATM   21  C19 UNL     1      34.654  29.485  20.836  1.00  0.00     0.159 C 
HETATM   22  O2  UNL     1      34.851  30.370  19.955  1.00  0.00    -0.292 OA
HETATM   23  C20 UNL     1      33.382  29.161  21.519  1.00  0.00    -0.019 C 
HETATM   24  C21 UNL     1      32.035  29.559  21.004  1.00  0.00     0.052 C 
HETATM   25  C22 UNL     1      33.617  28.492  22.644  1.00  0.00    -0.011 C 
HETATM   26  C23 UNL     1      35.068  28.326  22.803  1.00  0.00     0.016 C 
HETATM   27  C24 UNL     1      35.481  27.062  23.506  1.00  0.00     0.015 C 
ENDBRANCH  19  20
ENDBRANCH   1  19
BRANCH   1  28
HETATM   28  O3  UNL     1      37.221  25.449  20.378  1.00  0.00    -0.374 OA
BRANCH  28  29
HETATM   29  C25 UNL     1      36.036  24.802  20.732  1.00  0.00     0.190 C 
HETATM   30  C26 UNL     1      36.243  23.395  21.270  1.00  0.00     0.181 C 
HETATM   31  C27 UNL     1      34.942  22.632  21.328  1.00  0.00     0.182 C 
HETATM   32  O6  UNL     1      33.826  23.295  20.963  1.00  0.00    -0.320 OA
HETATM   33  C29 UNL     1      33.856  24.076  19.860  1.00  0.00     0.313 C 
HETATM   34  O7  UNL     1      33.000  25.148  20.067  1.00  0.00    -0.328 OA
HETATM   35  O9  UNL     1      33.411  23.369  18.735  1.00  0.00    -0.321 OA
HETATM   36  C33 UNL     1      35.208  24.611  19.489  1.00  0.00     0.242 C 
HETATM   37  C30 UNL     1      31.977  25.024  19.135  1.00  0.00     0.208 C 
HETATM   38  C31 UNL     1      32.737  24.360  17.999  1.00  0.00     0.175 C 
BRANCH  30  39
HETATM   39  O4  UNL     1      36.843  23.499  22.515  1.00  0.00    -0.390 OA
ATOM     40  H4  UNL     1      37.676  23.043  22.477  1.00  0.00     0.210 HD
ENDBRANCH  30  39
BRANCH  31  41
HETATM   41  C28 UNL     1      35.045  21.245  20.699  1.00  0.00     0.199 C 
BRANCH  41  42
HETATM   42  O5  UNL     1      35.678  21.274  19.460  1.00  0.00    -0.398 OA
ATOM     43  H5  UNL     1      36.416  20.677  19.418  1.00  0.00     0.209 HD
ENDBRANCH  41  42
ENDBRANCH  31  41
BRANCH  38  44
HETATM   44  C32 UNL     1      31.744  23.730  17.052  1.00  0.00     0.198 C 
BRANCH  44  45
HETATM   45  O8  UNL     1      32.088  22.391  16.895  1.00  0.00    -0.398 OA
ATOM     46  H8  UNL     1      32.035  21.971  17.745  1.00  0.00     0.209 HD
ENDBRANCH  44  45
ENDBRANCH  38  44
BRANCH  36  47
HETATM   47  O10 UNL     1      35.868  23.783  18.563  1.00  0.00    -0.385 OA
ATOM     48  H10 UNL     1      36.233  23.017  18.990  1.00  0.00     0.210 HD
ENDBRANCH  36  47
ENDBRANCH  28  29
ENDBRANCH   1  28
TORSDOF 22
ENDMDL
MODEL 4
REMARK VINA RESULT: -6.913960131      1.473      2.512
REMARK  22 active torsions:
REMARK  status: ('A' for Active; 'I' for Inactive)
REMARK    1  A    between atoms: C2_2  and  C3_3 
REMARK    2  A    between atoms: C3_3  and  C4_4 
REMARK    3  A    between atoms: C4_4  and  C5_5 
REMARK    4  A    between atoms: C6_6  and  C7_7 
REMARK    5  A    between atoms: C7_7  and  C8_8 
REMARK    6  A    between atoms: C9_9  and  C10_10 
REMARK    7  A    between atoms: C10_10  and  C11_11 
REMARK    8  A    between atoms: C11_11  and  C12_12 
REMARK    9  A    between atoms: C13_13  and  C14_14 
REMARK   10  A    between atoms: C14_14  and  C15_15 
REMARK   11  A    between atoms: C14_14  and  C16_18 
REMARK   12  A    between atoms: C15_15  and  O1_16 
REMARK   13  A    between atoms: C16_18  and  C17_19 
REMARK   14  A    between atoms: C16_18  and  O3_28 
REMARK   15  A    between atoms: C17_19  and  C18_20 
REMARK   16  A    between atoms: O3_28  and  C25_29 
REMARK   17  A    between atoms: C26_30  and  O4_31 
REMARK   18  A    between atoms: C27_33  and  C28_34 
REMARK   19  A    between atoms: C28_34  and  O5_35 
REMARK   20  A    between atoms: C31_41  and  C32_42 
REMARK   21  A    between atoms: C32_42  and  O8_43 
REMARK   22  A    between atoms: C33_46  and  O10_47 
ROOT
HETATM    1  C16 UNL     1      36.891  27.140  20.057  1.00  0.00     0.132 C 
ENDROOT
BRANCH   1   2
HETATM    2  C14 UNL     1      37.728  28.071  19.357  1.00  0.00     0.061 C 
BRANCH   2   3
HETATM    3  C13 UNL     1      37.222  29.228  18.623  1.00  0.00    -0.009 C 
HETATM    4  C12 UNL     1      37.003  29.185  17.309  1.00  0.00     0.052 C 
BRANCH   4   5
HETATM    5  C11 UNL     1      36.485  30.255  16.549  1.00  0.00    -0.129 C 
BRANCH   5   6
HETATM    6  C10 UNL     1      36.044  31.189  15.877  1.00  0.00     0.055 C 
BRANCH   6   7
HETATM    7  C9  UNL     1      34.683  31.193  15.233  1.00  0.00     0.004 C 
HETATM    8  C8  UNL     1      33.999  30.094  15.261  1.00  0.00    -0.022 C 
BRANCH   8   9
HETATM    9  C7  UNL     1      32.692  29.675  14.771  1.00  0.00     0.054 C 
BRANCH   9  10
HETATM   10  C6  UNL     1      31.789  29.348  15.895  1.00  0.00    -0.027 C 
HETATM   11  C5  UNL     1      30.816  30.175  16.290  1.00  0.00    -0.030 C 
BRANCH  11  12
HETATM   12  C4  UNL     1      30.482  31.474  15.722  1.00  0.00     0.027 C 
BRANCH  12  13
HETATM   13  C3  UNL     1      31.295  32.630  16.215  1.00  0.00     0.003 C 
BRANCH  13  14
HETATM   14  C2  UNL     1      31.213  33.803  15.300  1.00  0.00    -0.004 C 
HETATM   15  C1  UNL     1      32.262  33.658  14.175  1.00  0.00     0.005 C 
ENDBRANCH  13  14
ENDBRANCH  12  13
ENDBRANCH  11  12
ENDBRANCH   9  10
ENDBRANCH   8   9
ENDBRANCH   6   7
ENDBRANCH   5   6
ENDBRANCH   4   5
ENDBRANCH   2   3
BRANCH   2  16
HETATM   16  C15 UNL     1      38.618  27.342  18.290  1.00  0.00     0.175 C 
BRANCH  16  17
HETATM   17  O1  UNL     1      39.599  26.601  18.986  1.00  0.00    -0.400 OA
ATOM     18  H1  UNL     1      40.012  26.014  18.363  1.00  0.00     0.209 HD
ENDBRANCH  16  17
ENDBRANCH   2  16
ENDBRANCH   1   2
BRANCH   1  19
HETATM   19  C17 UNL     1      35.407  27.326  19.613  1.00  0.00     0.046 C 
BRANCH  19  20
HETATM   20  C18 UNL     1      34.502  27.864  20.624  1.00  0.00     0.070 C 
HETATM   21  C19 UNL     1      34.504  29.345  20.617  1.00  0.00     0.159 C 
HETATM   22  O2  UNL     1      35.273  30.148  21.217  1.00  0.00    -0.292 OA
HETATM   23  C20 UNL     1      33.371  29.677  19.725  1.00  0.00    -0.019 C 
HETATM   24  C21 UNL     1      33.189  31.012  19.073  1.00  0.00     0.052 C 
HETATM   25  C22 UNL     1      32.551  28.637  19.609  1.00  0.00    -0.011 C 
HETATM   26  C23 UNL     1      33.070  27.531  20.424  1.00  0.00     0.016 C 
HETATM   27  C24 UNL     1      32.772  26.160  19.882  1.00  0.00     0.015 C 
ENDBRANCH  19  20
ENDBRANCH   1  19
BRANCH   1  28
HETATM   28  O3  UNL     1      37.237  25.831  20.062  1.00  0.00    -0.374 OA
BRANCH  28  29
HETATM   29  C25 UNL     1      36.180  24.923  19.982  1.00  0.00     0.190 C 
HETATM   30  C26 UNL     1      35.986  24.097  21.243  1.00  0.00     0.181 C 
HETATM   31  C27 UNL     1      35.064  22.927  20.997  1.00  0.00     0.182 C 
HETATM   32  O6  UNL     1      34.528  22.818  19.765  1.00  0.00    -0.320 OA
HETATM   33  C29 UNL     1      35.314  23.024  18.684  1.00  0.00     0.313 C 
HETATM   34  O7  UNL     1      34.533  23.586  17.684  1.00  0.00    -0.328 OA
HETATM   35  O9  UNL     1      35.835  21.814  18.208  1.00  0.00    -0.321 OA
HETATM   36  C33 UNL     1      36.503  23.910  18.915  1.00  0.00     0.242 C 
HETATM   37  C30 UNL     1      34.494  22.663  16.646  1.00  0.00     0.208 C 
HETATM   38  C31 UNL     1      35.861  22.019  16.817  1.00  0.00     0.175 C 
BRANCH  30  39
HETATM   39  O4  UNL     1      35.507  24.938  22.235  1.00  0.00    -0.390 OA
ATOM     40  H4  UNL     1      36.236  25.173  22.796  1.00  0.00     0.210 HD
ENDBRANCH  30  39
BRANCH  31  41
HETATM   41  C28 UNL     1      35.634  21.610  21.518  1.00  0.00     0.199 C 
BRANCH  41  42
HETATM   42  O5  UNL     1      36.337  21.773  22.708  1.00  0.00    -0.398 OA
ATOM     43  H5  UNL     1      37.208  21.395  22.668  1.00  0.00     0.209 HD
ENDBRANCH  41  42
ENDBRANCH  31  41
BRANCH  38  44
HETATM   44  C32 UNL     1      35.870  20.697  16.088  1.00  0.00     0.198 C 
BRANCH  44  45
HETATM   45  O8  UNL     1      35.461  19.710  16.980  1.00  0.00    -0.398 OA
ATOM     46  H8  UNL     1      35.654  18.865  16.592  1.00  0.00     0.209 HD
ENDBRANCH  44  45
ENDBRANCH  38  44
BRANCH  36  47
HETATM   47  O10 UNL     1      37.654  23.174  19.247  1.00  0.00    -0.385 OA
ATOM     48  H10 UNL     1      37.777  22.444  18.652  1.00  0.00     0.210 HD
ENDBRANCH  36  47
ENDBRANCH  28  29
ENDBRANCH   1  28
TORSDOF 22
ENDMDL
MODEL 5
REMARK VINA RESULT: -6.799107352      1.830      3.181
REMARK  22 active torsions:
REMARK  status: ('A' for Active; 'I' for Inactive)
REMARK    1  A    between atoms: C2_2  and  C3_3 
REMARK    2  A    between atoms: C3_3  and  C4_4 
REMARK    3  A    between atoms: C4_4  and  C5_5 
REMARK    4  A    between atoms: C6_6  and  C7_7 
REMARK    5  A    between atoms: C7_7  and  C8_8 
REMARK    6  A    between atoms: C9_9  and  C10_10 
REMARK    7  A    between atoms: C10_10  and  C11_11 
REMARK    8  A    between atoms: C11_11  and  C12_12 
REMARK    9  A    between atoms: C13_13  and  C14_14 
REMARK   10  A    between atoms: C14_14  and  C15_15 
REMARK   11  A    between atoms: C14_14  and  C16_18 
REMARK   12  A    between atoms: C15_15  and  O1_16 
REMARK   13  A    between atoms: C16_18  and  C17_19 
REMARK   14  A    between atoms: C16_18  and  O3_28 
REMARK   15  A    between atoms: C17_19  and  C18_20 
REMARK   16  A    between atoms: O3_28  and  C25_29 
REMARK   17  A    between atoms: C26_30  and  O4_31 
REMARK   18  A    between atoms: C27_33  and  C28_34 
REMARK   19  A    between atoms: C28_34  and  O5_35 
REMARK   20  A    between atoms: C31_41  and  C32_42 
REMARK   21  A    between atoms: C32_42  and  O8_43 
REMARK   22  A    between atoms: C33_46  and  O10_47 
ROOT
HETATM    1  C16 UNL     1      37.261  26.842  20.475  1.00  0.00     0.132 C 
ENDROOT
BRANCH   1   2
HETATM    2  C14 UNL     1      37.993  27.615  19.513  1.00  0.00     0.061 C 
BRANCH   2   3
HETATM    3  C13 UNL     1      37.444  28.770  18.810  1.00  0.00    -0.009 C 
HETATM    4  C12 UNL     1      37.284  28.775  17.486  1.00  0.00     0.052 C 
BRANCH   4   5
HETATM    5  C11 UNL     1      36.730  29.845  16.751  1.00  0.00    -0.129 C 
BRANCH   5   6
HETATM    6  C10 UNL     1      36.236  30.772  16.108  1.00  0.00     0.055 C 
BRANCH   6   7
HETATM    7  C9  UNL     1      34.759  31.056  16.040  1.00  0.00     0.004 C 
HETATM    8  C8  UNL     1      33.976  30.365  16.806  1.00  0.00    -0.022 C 
BRANCH   8   9
HETATM    9  C7  UNL     1      32.539  30.314  17.042  1.00  0.00     0.054 C 
BRANCH   9  10
HETATM   10  C6  UNL     1      32.073  31.546  17.714  1.00  0.00    -0.027 C 
HETATM   11  C5  UNL     1      31.409  32.505  17.061  1.00  0.00    -0.030 C 
BRANCH  11  12
HETATM   12  C4  UNL     1      31.042  32.517  15.651  1.00  0.00     0.027 C 
BRANCH  12  13
HETATM   13  C3  UNL     1      31.533  33.689  14.859  1.00  0.00     0.003 C 
BRANCH  13  14
HETATM   14  C2  UNL     1      30.849  34.953  15.251  1.00  0.00    -0.004 C 
HETATM   15  C1  UNL     1      31.714  36.163  14.835  1.00  0.00     0.005 C 
ENDBRANCH  13  14
ENDBRANCH  12  13
ENDBRANCH  11  12
ENDBRANCH   9  10
ENDBRANCH   8   9
ENDBRANCH   6   7
ENDBRANCH   5   6
ENDBRANCH   4   5
ENDBRANCH   2   3
BRANCH   2  16
HETATM   16  C15 UNL     1      38.522  26.711  18.345  1.00  0.00     0.175 C 
BRANCH  16  17
HETATM   17  O1  UNL     1      39.746  26.143  18.763  1.00  0.00    -0.400 OA
ATOM     18  H1  UNL     1      39.620  25.204  18.825  1.00  0.00     0.209 HD
ENDBRANCH  16  17
ENDBRANCH   2  16
ENDBRANCH   1   2
BRANCH   1  19
HETATM   19  C17 UNL     1      35.797  27.372  20.573  1.00  0.00     0.046 C 
BRANCH  19  20
HETATM   20  C18 UNL     1      35.583  28.490  21.486  1.00  0.00     0.070 C 
HETATM   21  C19 UNL     1      34.691  29.510  20.890  1.00  0.00     0.159 C 
HETATM   22  O2  UNL     1      34.977  30.485  20.137  1.00  0.00    -0.292 OA
HETATM   23  C20 UNL     1      33.354  29.119  21.389  1.00  0.00    -0.019 C 
HETATM   24  C21 UNL     1      32.069  29.575  20.773  1.00  0.00     0.052 C 
HETATM   25  C22 UNL     1      33.468  28.331  22.453  1.00  0.00    -0.011 C 
HETATM   26  C23 UNL     1      34.894  28.143  22.753  1.00  0.00     0.016 C 
HETATM   27  C24 UNL     1      35.238  26.809  23.357  1.00  0.00     0.015 C 
ENDBRANCH  19  20
ENDBRANCH   1  19
BRANCH   1  28
HETATM   28  O3  UNL     1      37.284  25.492  20.378  1.00  0.00    -0.374 OA
BRANCH  28  29
HETATM   29  C25 UNL     1      36.105  24.836  20.734  1.00  0.00     0.190 C 
HETATM   30  C26 UNL     1      36.322  23.421  21.244  1.00  0.00     0.181 C 
HETATM   31  C27 UNL     1      35.023  22.653  21.304  1.00  0.00     0.182 C 
HETATM   32  O6  UNL     1      33.901  23.321  20.964  1.00  0.00    -0.320 OA
HETATM   33  C29 UNL     1      33.916  24.122  19.875  1.00  0.00     0.313 C 
HETATM   34  O7  UNL     1      33.061  25.188  20.112  1.00  0.00    -0.328 OA
HETATM   35  O9  UNL     1      33.459  23.434  18.743  1.00  0.00    -0.321 OA
HETATM   36  C33 UNL     1      35.263  24.666  19.498  1.00  0.00     0.242 C 
HETATM   37  C30 UNL     1      32.026  25.078  19.191  1.00  0.00     0.208 C 
HETATM   38  C31 UNL     1      32.775  24.436  18.033  1.00  0.00     0.175 C 
BRANCH  30  39
HETATM   39  O4  UNL     1      36.936  23.503  22.483  1.00  0.00    -0.390 OA
ATOM     40  H4  UNL     1      36.464  24.143  23.002  1.00  0.00     0.210 HD
ENDBRANCH  30  39
BRANCH  31  41
HETATM   41  C28 UNL     1      35.121  21.279  20.649  1.00  0.00     0.199 C 
BRANCH  41  42
HETATM   42  O5  UNL     1      35.758  21.328  19.412  1.00  0.00    -0.398 OA
ATOM     43  H5  UNL     1      36.424  22.005  19.376  1.00  0.00     0.209 HD
ENDBRANCH  41  42
ENDBRANCH  31  41
BRANCH  38  44
HETATM   44  C32 UNL     1      31.771  23.821  17.087  1.00  0.00     0.198 C 
BRANCH  44  45
HETATM   45  O8  UNL     1      32.342  22.679  16.536  1.00  0.00    -0.398 OA
ATOM     46  H8  UNL     1      32.064  22.618  15.629  1.00  0.00     0.209 HD
ENDBRANCH  44  45
ENDBRANCH  38  44
BRANCH  36  47
HETATM   47  O10 UNL     1      35.913  23.857  18.549  1.00  0.00    -0.385 OA
ATOM     48  H10 UNL     1      35.384  23.100  18.326  1.00  0.00     0.210 HD
ENDBRANCH  36  47
ENDBRANCH  28  29
ENDBRANCH   1  28
TORSDOF 22
ENDMDL
