MODEL 1
REMARK VINA RESULT: -7.371860324      0.000      0.000
REMARK  15 active torsions:
REMARK  status: ('A' for Active; 'I' for Inactive)
REMARK    1  A    between atoms: C2_2  and  C3_3 
REMARK    2  A    between atoms: C3_3  and  C4_4 
REMARK    3  A    between atoms: C4_4  and  C7_7 
REMARK    4  A    between atoms: C7_7  and  C8_8 
REMARK    5  A    between atoms: C8_8  and  C9_9 
REMARK    6  A    between atoms: C8_8  and  C15_20 
REMARK    7  A    between atoms: C10_10  and  O1_11 
REMARK    8  A    between atoms: C13_16  and  C14_17 
REMARK    9  A    between atoms: C14_17  and  O3_18 
REMARK   10  A    between atoms: C15_20  and  N1_21 
REMARK   11  A    between atoms: C15_20  and  N5_37 
REMARK   12  A    between atoms: N1_21  and  C16_23 
REMARK   13  A    between atoms: C18_25  and  O4_26 
REMARK   14  A    between atoms: N7_44  and  O9_45 
REMARK   15  A    between atoms: O9_45  and  S1_46 
ROOT
HETATM    1  C15 UNL     1       5.303  15.590  87.991  1.00  0.00     0.204 C 
ENDROOT
BRANCH   1   2
HETATM    2  C8  UNL     1       3.986  14.933  88.474  1.00  0.00     0.068 C 
BRANCH   2   3
HETATM    3  C7  UNL     1       3.281  15.935  89.331  1.00  0.00     0.022 C 
BRANCH   3   4
HETATM    4  C4  UNL     1       1.857  16.260  89.029  1.00  0.00    -0.047 C 
HETATM    5  C5  UNL     1       1.058  15.231  89.864  1.00  0.00     0.015 C 
HETATM    6  C6  UNL     1       1.469  17.566  89.834  1.00  0.00     0.015 C 
BRANCH   4   7
HETATM    7  C3  UNL     1       1.326  16.365  87.697  1.00  0.00     0.008 C 
BRANCH   7   8
HETATM    8  C2  UNL     1       0.689  17.640  87.223  1.00  0.00    -0.004 C 
HETATM    9  C1  UNL     1      -0.239  17.580  86.064  1.00  0.00     0.005 C 
ENDBRANCH   7   8
ENDBRANCH   4   7
ENDBRANCH   3   4
ENDBRANCH   2   3
BRANCH   2  10
HETATM   10  C9  UNL     1       4.228  13.620  89.029  1.00  0.00     0.019 A 
HETATM   11  C10 UNL     1       3.608  12.435  88.666  1.00  0.00     0.191 A 
HETATM   12  O2  UNL     1       4.176  11.433  89.285  1.00  0.00    -0.292 OA
HETATM   13  C11 UNL     1       5.141  11.866  90.046  1.00  0.00     0.061 A 
HETATM   14  C12 UNL     1       6.030  11.014  90.917  1.00  0.00     0.077 C 
HETATM   15  C13 UNL     1       5.221  13.238  89.923  1.00  0.00     0.006 A 
BRANCH  11  16
HETATM   16  O1  UNL     1       2.516  12.242  87.778  1.00  0.00    -0.340 OA
ATOM     17  H1  UNL     1       2.336  12.683  86.956  1.00  0.00     0.220 HD
ENDBRANCH  11  16
BRANCH  15  18
HETATM   18  C14 UNL     1       6.206  14.095  90.553  1.00  0.00     0.206 C 
BRANCH  18  19
HETATM   19  O3  UNL     1       7.464  14.042  89.894  1.00  0.00    -0.396 OA
ATOM     20  H3  UNL     1       8.171  14.359  90.444  1.00  0.00     0.209 HD
ENDBRANCH  18  19
ENDBRANCH  15  18
ENDBRANCH   2  10
ENDBRANCH   1   2
BRANCH   1  21
HETATM   21  N1  UNL     1       5.325  16.975  88.428  1.00  0.00    -0.377 N 
ATOM     22  H1  UNL     1       4.451  17.468  88.615  1.00  0.00     0.157 HD
BRANCH  21  23
HETATM   23  C16 UNL     1       6.541  17.623  88.590  1.00  0.00     0.225 C 
HETATM   24  C17 UNL     1       6.484  18.857  87.642  1.00  0.00     0.083 C 
HETATM   25  C18 UNL     1       5.290  19.723  87.957  1.00  0.00     0.142 C 
HETATM   26  C19 UNL     1       4.918  19.713  89.418  1.00  0.00     0.186 C 
HETATM   27  N2  UNL     1       6.018  19.226  90.238  1.00  0.00    -0.232 N 
HETATM   28  C20 UNL     1       6.424  19.669  91.435  1.00  0.00     0.333 A 
HETATM   29  N4  UNL     1       6.806  18.256  89.882  1.00  0.00    -0.200 N 
HETATM   30  O5  UNL     1       5.944  20.601  92.152  1.00  0.00    -0.260 OA
HETATM   31  C21 UNL     1       7.513  18.916  91.796  1.00  0.00     0.332 A 
HETATM   32  O6  UNL     1       8.203  19.013  92.864  1.00  0.00    -0.260 OA
HETATM   33  N3  UNL     1       7.720  18.046  90.800  1.00  0.00    -0.238 N 
HETATM   34  C22 UNL     1       8.820  17.068  90.802  1.00  0.00     0.183 C 
BRANCH  25  35
HETATM   35  O4  UNL     1       4.217  19.403  87.139  1.00  0.00    -0.394 OA
ATOM     36  H4  UNL     1       3.750  20.185  86.869  1.00  0.00     0.210 HD
ENDBRANCH  25  35
ENDBRANCH  21  23
ENDBRANCH   1  21
BRANCH   1  37
HETATM   37  N5  UNL     1       5.581  15.497  86.593  1.00  0.00    -0.227 N 
HETATM   38  C23 UNL     1       6.589  14.734  86.104  1.00  0.00     0.336 A 
HETATM   39  O7  UNL     1       7.361  14.086  86.858  1.00  0.00    -0.246 OA
HETATM   40  N6  UNL     1       6.843  14.612  84.790  1.00  0.00    -0.258 N 
HETATM   41  C24 UNL     1       6.102  15.248  83.887  1.00  0.00     0.360 A 
ATOM     42  H6  UNL     1       7.617  14.023  84.480  1.00  0.00     0.175 HD
HETATM   43  O8  UNL     1       6.327  15.146  82.630  1.00  0.00    -0.244 OA
HETATM   44  N7  UNL     1       5.094  16.013  84.325  1.00  0.00    -0.096 N 
HETATM   45  C25 UNL     1       4.851  16.125  85.654  1.00  0.00     0.364 A 
HETATM   46  O13 UNL     1       3.872  16.870  85.924  1.00  0.00    -0.244 OA
BRANCH  44  47
HETATM   47  O9  UNL     1       4.339  16.659  83.373  1.00  0.00    -0.116 OA
BRANCH  47  48
HETATM   48  S1  UNL     1       2.949  16.005  82.659  1.00  0.00     0.274 S 
HETATM   49  O10 UNL     1       2.450  16.972  81.632  1.00  0.00    -0.571 OA
HETATM   50  O11 UNL     1       1.919  15.769  83.741  1.00  0.00    -0.571 OA
HETATM   51  O12 UNL     1       3.323  14.503  82.005  1.00  0.00    -0.571 OA
ENDBRANCH  47  48
ENDBRANCH  44  47
ENDBRANCH   1  37
TORSDOF 15
ENDMDL
MODEL 2
REMARK VINA RESULT: -7.154693566      0.977      1.736
REMARK  15 active torsions:
REMARK  status: ('A' for Active; 'I' for Inactive)
REMARK    1  A    between atoms: C2_2  and  C3_3 
REMARK    2  A    between atoms: C3_3  and  C4_4 
REMARK    3  A    between atoms: C4_4  and  C7_7 
REMARK    4  A    between atoms: C7_7  and  C8_8 
REMARK    5  A    between atoms: C8_8  and  C9_9 
REMARK    6  A    between atoms: C8_8  and  C15_20 
REMARK    7  A    between atoms: C10_10  and  O1_11 
REMARK    8  A    between atoms: C13_16  and  C14_17 
REMARK    9  A    between atoms: C14_17  and  O3_18 
REMARK   10  A    between atoms: C15_20  and  N1_21 
REMARK   11  A    between atoms: C15_20  and  N5_37 
REMARK   12  A    between atoms: N1_21  and  C16_23 
REMARK   13  A    between atoms: C18_25  and  O4_26 
REMARK   14  A    between atoms: N7_44  and  O9_45 
REMARK   15  A    between atoms: O9_45  and  S1_46 
ROOT
HETATM    1  C15 UNL     1       5.265  15.980  87.910  1.00  0.00     0.204 C 
ENDROOT
BRANCH   1   2
HETATM    2  C8  UNL     1       4.078  15.180  88.501  1.00  0.00     0.068 C 
BRANCH   2   3
HETATM    3  C7  UNL     1       3.325  16.105  89.403  1.00  0.00     0.022 C 
BRANCH   3   4
HETATM    4  C4  UNL     1       1.837  16.025  89.429  1.00  0.00    -0.047 C 
HETATM    5  C5  UNL     1       1.429  17.059  90.507  1.00  0.00     0.015 C 
HETATM    6  C6  UNL     1       1.280  16.783  88.156  1.00  0.00     0.015 C 
BRANCH   4   7
HETATM    7  C3  UNL     1       1.104  14.798  89.592  1.00  0.00     0.008 C 
BRANCH   7   8
HETATM    8  C2  UNL     1       0.821  14.249  90.961  1.00  0.00    -0.004 C 
HETATM    9  C1  UNL     1       1.886  13.470  91.646  1.00  0.00     0.005 C 
ENDBRANCH   7   8
ENDBRANCH   4   7
ENDBRANCH   3   4
ENDBRANCH   2   3
BRANCH   2  10
HETATM   10  C9  UNL     1       4.518  13.916  89.047  1.00  0.00     0.019 A 
HETATM   11  C10 UNL     1       4.044  12.656  88.718  1.00  0.00     0.191 A 
HETATM   12  O2  UNL     1       4.769  11.743  89.310  1.00  0.00    -0.292 OA
HETATM   13  C11 UNL     1       5.704  12.307  90.022  1.00  0.00     0.061 A 
HETATM   14  C12 UNL     1       6.739  11.588  90.851  1.00  0.00     0.077 C 
HETATM   15  C13 UNL     1       5.595  13.676  89.892  1.00  0.00     0.006 A 
BRANCH  11  16
HETATM   16  O1  UNL     1       2.946  12.312  87.885  1.00  0.00    -0.340 OA
ATOM     17  H1  UNL     1       2.663  12.725  87.078  1.00  0.00     0.220 HD
ENDBRANCH  11  16
BRANCH  15  18
HETATM   18  C14 UNL     1       6.487  14.662  90.471  1.00  0.00     0.206 C 
BRANCH  18  19
HETATM   19  O3  UNL     1       7.733  14.722  89.791  1.00  0.00    -0.396 OA
ATOM     20  H3  UNL     1       8.470  14.611  90.381  1.00  0.00     0.209 HD
ENDBRANCH  18  19
ENDBRANCH  15  18
ENDBRANCH   2  10
ENDBRANCH   1   2
BRANCH   1  21
HETATM   21  N1  UNL     1       5.069  17.391  88.198  1.00  0.00    -0.377 N 
ATOM     22  H1  UNL     1       4.152  17.734  88.483  1.00  0.00     0.157 HD
BRANCH  21  23
HETATM   23  C16 UNL     1       6.138  18.268  88.081  1.00  0.00     0.225 C 
HETATM   24  C17 UNL     1       5.512  19.694  88.130  1.00  0.00     0.083 C 
HETATM   25  C18 UNL     1       4.707  19.885  89.392  1.00  0.00     0.142 C 
HETATM   26  C19 UNL     1       5.257  19.118  90.569  1.00  0.00     0.186 C 
HETATM   27  N2  UNL     1       6.638  18.721  90.340  1.00  0.00    -0.232 N 
HETATM   28  C20 UNL     1       7.656  18.709  91.210  1.00  0.00     0.333 A 
HETATM   29  N4  UNL     1       7.092  18.326  89.187  1.00  0.00    -0.200 N 
HETATM   30  O5  UNL     1       7.664  19.018  92.442  1.00  0.00    -0.260 OA
HETATM   31  C21 UNL     1       8.768  18.284  90.525  1.00  0.00     0.332 A 
HETATM   32  O6  UNL     1       9.949  18.132  90.982  1.00  0.00    -0.260 OA
HETATM   33  N3  UNL     1       8.374  18.057  89.266  1.00  0.00    -0.238 N 
HETATM   34  C22 UNL     1       9.290  17.604  88.207  1.00  0.00     0.183 C 
BRANCH  25  35
HETATM   35  O4  UNL     1       3.365  19.613  89.169  1.00  0.00    -0.394 OA
ATOM     36  H4  UNL     1       3.013  20.179  88.492  1.00  0.00     0.210 HD
ENDBRANCH  25  35
ENDBRANCH  21  23
ENDBRANCH   1  21
BRANCH   1  37
HETATM   37  N5  UNL     1       5.535  15.780  86.522  1.00  0.00    -0.227 N 
HETATM   38  C23 UNL     1       6.541  14.981  86.088  1.00  0.00     0.336 A 
HETATM   39  O7  UNL     1       7.318  14.394  86.886  1.00  0.00    -0.246 OA
HETATM   40  N6  UNL     1       6.788  14.759  84.786  1.00  0.00    -0.258 N 
HETATM   41  C24 UNL     1       6.041  15.323  83.841  1.00  0.00     0.360 A 
ATOM     42  H6  UNL     1       7.560  14.148  84.519  1.00  0.00     0.175 HD
HETATM   43  O8  UNL     1       6.259  15.124  82.594  1.00  0.00    -0.244 OA
HETATM   44  N7  UNL     1       5.036  16.119  84.225  1.00  0.00    -0.096 N 
HETATM   45  C25 UNL     1       4.800  16.334  85.542  1.00  0.00     0.364 A 
HETATM   46  O13 UNL     1       3.822  17.097  85.759  1.00  0.00    -0.244 OA
BRANCH  44  47
HETATM   47  O9  UNL     1       4.275  16.690  83.230  1.00  0.00    -0.116 OA
BRANCH  47  48
HETATM   48  S1  UNL     1       2.880  15.983  82.577  1.00  0.00     0.274 S 
HETATM   49  O10 UNL     1       2.319  16.916  81.550  1.00  0.00    -0.571 OA
HETATM   50  O11 UNL     1       1.895  15.741  83.699  1.00  0.00    -0.571 OA
HETATM   51  O12 UNL     1       3.274  14.479  81.941  1.00  0.00    -0.571 OA
ENDBRANCH  47  48
ENDBRANCH  44  47
ENDBRANCH   1  37
TORSDOF 15
ENDMDL
MODEL 3
REMARK VINA RESULT: -7.065130798      0.817      1.873
REMARK  15 active torsions:
REMARK  status: ('A' for Active; 'I' for Inactive)
REMARK    1  A    between atoms: C2_2  and  C3_3 
REMARK    2  A    between atoms: C3_3  and  C4_4 
REMARK    3  A    between atoms: C4_4  and  C7_7 
REMARK    4  A    between atoms: C7_7  and  C8_8 
REMARK    5  A    between atoms: C8_8  and  C9_9 
REMARK    6  A    between atoms: C8_8  and  C15_20 
REMARK    7  A    between atoms: C10_10  and  O1_11 
REMARK    8  A    between atoms: C13_16  and  C14_17 
REMARK    9  A    between atoms: C14_17  and  O3_18 
REMARK   10  A    between atoms: C15_20  and  N1_21 
REMARK   11  A    between atoms: C15_20  and  N5_37 
REMARK   12  A    between atoms: N1_21  and  C16_23 
REMARK   13  A    between atoms: C18_25  and  O4_26 
REMARK   14  A    between atoms: N7_44  and  O9_45 
REMARK   15  A    between atoms: O9_45  and  S1_46 
ROOT
HETATM    1  C15 UNL     1       5.594  15.742  87.961  1.00  0.00     0.204 C 
ENDROOT
BRANCH   1   2
HETATM    2  C8  UNL     1       4.343  15.060  88.568  1.00  0.00     0.068 C 
BRANCH   2   3
HETATM    3  C7  UNL     1       3.693  16.054  89.475  1.00  0.00     0.022 C 
BRANCH   3   4
HETATM    4  C4  UNL     1       2.222  16.273  89.360  1.00  0.00    -0.047 C 
HETATM    5  C5  UNL     1       2.090  17.802  89.162  1.00  0.00     0.015 C 
HETATM    6  C6  UNL     1       1.767  15.810  87.916  1.00  0.00     0.015 C 
BRANCH   4   7
HETATM    7  C3  UNL     1       1.264  15.794  90.321  1.00  0.00     0.008 C 
BRANCH   7   8
HETATM    8  C2  UNL     1      -0.114  15.383  89.890  1.00  0.00    -0.004 C 
HETATM    9  C1  UNL     1      -1.263  16.244  90.274  1.00  0.00     0.005 C 
ENDBRANCH   7   8
ENDBRANCH   4   7
ENDBRANCH   3   4
ENDBRANCH   2   3
BRANCH   2  10
HETATM   10  C9  UNL     1       4.668  13.760  89.113  1.00  0.00     0.019 A 
HETATM   11  C10 UNL     1       5.860  13.382  89.710  1.00  0.00     0.191 A 
HETATM   12  O2  UNL     1       5.743  12.177  90.203  1.00  0.00    -0.292 OA
HETATM   13  C11 UNL     1       4.546  11.714  89.976  1.00  0.00     0.061 A 
HETATM   14  C12 UNL     1       4.027  10.360  90.390  1.00  0.00     0.077 C 
HETATM   15  C13 UNL     1       3.823  12.672  89.293  1.00  0.00     0.006 A 
BRANCH  11  16
HETATM   16  O1  UNL     1       7.073  14.115  89.810  1.00  0.00    -0.340 OA
ATOM     17  H1  UNL     1       7.915  13.923  89.417  1.00  0.00     0.220 HD
ENDBRANCH  11  16
BRANCH  15  18
HETATM   18  C14 UNL     1       2.428  12.575  88.910  1.00  0.00     0.206 C 
BRANCH  18  19
HETATM   19  O3  UNL     1       2.255  11.871  87.688  1.00  0.00    -0.396 OA
ATOM     20  H3  UNL     1       1.343  11.668  87.518  1.00  0.00     0.209 HD
ENDBRANCH  18  19
ENDBRANCH  15  18
ENDBRANCH   2  10
ENDBRANCH   1   2
BRANCH   1  21
HETATM   21  N1  UNL     1       5.594  17.145  88.340  1.00  0.00    -0.377 N 
ATOM     22  H1  UNL     1       4.712  17.640  88.476  1.00  0.00     0.157 HD
BRANCH  21  23
HETATM   23  C16 UNL     1       6.801  17.807  88.516  1.00  0.00     0.225 C 
HETATM   24  C17 UNL     1       6.694  19.099  87.653  1.00  0.00     0.083 C 
HETATM   25  C18 UNL     1       5.491  19.917  88.054  1.00  0.00     0.142 C 
HETATM   26  C19 UNL     1       5.157  19.801  89.520  1.00  0.00     0.186 C 
HETATM   27  N2  UNL     1       6.286  19.286  90.279  1.00  0.00    -0.232 N 
HETATM   28  C20 UNL     1       6.714  19.658  91.492  1.00  0.00     0.333 A 
HETATM   29  N4  UNL     1       7.085  18.359  89.840  1.00  0.00    -0.200 N 
HETATM   30  O5  UNL     1       6.233  20.529  92.281  1.00  0.00    -0.260 OA
HETATM   31  C21 UNL     1       7.827  18.906  91.776  1.00  0.00     0.332 A 
HETATM   32  O6  UNL     1       8.541  18.947  92.832  1.00  0.00    -0.260 OA
HETATM   33  N3  UNL     1       8.026  18.109  90.720  1.00  0.00    -0.238 N 
HETATM   34  C22 UNL     1       9.145  17.157  90.631  1.00  0.00     0.183 C 
BRANCH  25  35
HETATM   35  O4  UNL     1       4.404  19.627  87.243  1.00  0.00    -0.394 OA
ATOM     36  H4  UNL     1       4.333  20.256  86.534  1.00  0.00     0.210 HD
ENDBRANCH  25  35
ENDBRANCH  21  23
ENDBRANCH   1  21
BRANCH   1  37
HETATM   37  N5  UNL     1       5.771  15.601  86.551  1.00  0.00    -0.227 N 
HETATM   38  C23 UNL     1       6.722  14.794  86.017  1.00  0.00     0.336 A 
HETATM   39  O7  UNL     1       7.527  14.148  86.737  1.00  0.00    -0.246 OA
HETATM   40  N6  UNL     1       6.881  14.627  84.694  1.00  0.00    -0.258 N 
HETATM   41  C24 UNL     1       6.096  15.257  83.825  1.00  0.00     0.360 A 
ATOM     42  H6  UNL     1       7.615  14.007  84.350  1.00  0.00     0.175 HD
HETATM   43  O8  UNL     1       6.229  15.111  82.559  1.00  0.00    -0.244 OA
HETATM   44  N7  UNL     1       5.142  16.063  84.307  1.00  0.00    -0.096 N 
HETATM   45  C25 UNL     1       4.995  16.221  85.645  1.00  0.00     0.364 A 
HETATM   46  O13 UNL     1       4.058  17.002  85.958  1.00  0.00    -0.244 OA
BRANCH  44  47
HETATM   47  O9  UNL     1       4.340  16.703  83.389  1.00  0.00    -0.116 OA
BRANCH  47  48
HETATM   48  S1  UNL     1       2.928  16.034  82.732  1.00  0.00     0.274 S 
HETATM   49  O10 UNL     1       2.365  17.006  81.743  1.00  0.00    -0.571 OA
HETATM   50  O11 UNL     1       1.956  15.765  83.858  1.00  0.00    -0.571 OA
HETATM   51  O12 UNL     1       3.298  14.547  82.041  1.00  0.00    -0.571 OA
ENDBRANCH  47  48
ENDBRANCH  44  47
ENDBRANCH   1  37
TORSDOF 15
ENDMDL
MODEL 4
REMARK VINA RESULT: -7.046838188      2.742      6.901
REMARK  15 active torsions:
REMARK  status: ('A' for Active; 'I' for Inactive)
REMARK    1  A    between atoms: C2_2  and  C3_3 
REMARK    2  A    between atoms: C3_3  and  C4_4 
REMARK    3  A    between atoms: C4_4  and  C7_7 
REMARK    4  A    between atoms: C7_7  and  C8_8 
REMARK    5  A    between atoms: C8_8  and  C9_9 
REMARK    6  A    between atoms: C8_8  and  C15_20 
REMARK    7  A    between atoms: C10_10  and  O1_11 
REMARK    8  A    between atoms: C13_16  and  C14_17 
REMARK    9  A    between atoms: C14_17  and  O3_18 
REMARK   10  A    between atoms: C15_20  and  N1_21 
REMARK   11  A    between atoms: C15_20  and  N5_37 
REMARK   12  A    between atoms: N1_21  and  C16_23 
REMARK   13  A    between atoms: C18_25  and  O4_26 
REMARK   14  A    between atoms: N7_44  and  O9_45 
REMARK   15  A    between atoms: O9_45  and  S1_46 
ROOT
HETATM    1  C15 UNL     1       3.547  15.650  88.480  1.00  0.00     0.204 C 
ENDROOT
BRANCH   1   2
HETATM    2  C8  UNL     1       4.249  14.634  89.415  1.00  0.00     0.068 C 
BRANCH   2   3
HETATM    3  C7  UNL     1       5.251  13.893  88.590  1.00  0.00     0.022 C 
BRANCH   3   4
HETATM    4  C4  UNL     1       6.604  13.639  89.164  1.00  0.00    -0.047 C 
HETATM    5  C5  UNL     1       7.559  13.839  87.963  1.00  0.00     0.015 C 
HETATM    6  C6  UNL     1       7.025  14.906  90.012  1.00  0.00     0.015 C 
BRANCH   4   7
HETATM    7  C3  UNL     1       6.950  12.454  89.903  1.00  0.00     0.008 C 
BRANCH   7   8
HETATM    8  C2  UNL     1       6.345  12.188  91.252  1.00  0.00    -0.004 C 
HETATM    9  C1  UNL     1       5.420  11.034  91.399  1.00  0.00     0.005 C 
ENDBRANCH   7   8
ENDBRANCH   4   7
ENDBRANCH   3   4
ENDBRANCH   2   3
BRANCH   2  10
HETATM   10  C9  UNL     1       3.286  13.859  90.165  1.00  0.00     0.019 A 
HETATM   11  C10 UNL     1       2.799  14.137  91.433  1.00  0.00     0.191 A 
HETATM   12  O2  UNL     1       1.845  13.295  91.733  1.00  0.00    -0.292 OA
HETATM   13  C11 UNL     1       1.657  12.462  90.748  1.00  0.00     0.061 A 
HETATM   14  C12 UNL     1       0.645  11.344  90.716  1.00  0.00     0.077 C 
HETATM   15  C13 UNL     1       2.537  12.773  89.731  1.00  0.00     0.006 A 
BRANCH  11  16
HETATM   16  O1  UNL     1       3.214  15.149  92.339  1.00  0.00    -0.340 OA
ATOM     17  H1  UNL     1       2.828  15.392  93.172  1.00  0.00     0.220 HD
ENDBRANCH  11  16
BRANCH  15  18
HETATM   18  C14 UNL     1       2.603  12.128  88.434  1.00  0.00     0.206 C 
BRANCH  18  19
HETATM   19  O3  UNL     1       3.434  10.975  88.451  1.00  0.00    -0.396 OA
ATOM     20  H3  UNL     1       2.931  10.170  88.427  1.00  0.00     0.209 HD
ENDBRANCH  18  19
ENDBRANCH  15  18
ENDBRANCH   2  10
ENDBRANCH   1   2
BRANCH   1  21
HETATM   21  N1  UNL     1       4.471  16.036  87.428  1.00  0.00    -0.377 N 
ATOM     22  H1  UNL     1       5.420  15.662  87.415  1.00  0.00     0.157 HD
BRANCH  21  23
HETATM   23  C16 UNL     1       4.054  16.917  86.440  1.00  0.00     0.225 C 
HETATM   24  C17 UNL     1       5.217  17.941  86.279  1.00  0.00     0.083 C 
HETATM   25  C18 UNL     1       6.513  17.238  85.957  1.00  0.00     0.142 C 
HETATM   26  C19 UNL     1       6.320  15.983  85.144  1.00  0.00     0.186 C 
HETATM   27  N2  UNL     1       5.011  15.962  84.508  1.00  0.00    -0.232 N 
HETATM   28  C20 UNL     1       4.689  15.539  83.279  1.00  0.00     0.333 A 
HETATM   29  N4  UNL     1       3.928  16.399  85.078  1.00  0.00    -0.200 N 
HETATM   30  O5  UNL     1       5.434  15.038  82.381  1.00  0.00    -0.260 OA
HETATM   31  C21 UNL     1       3.340  15.743  83.123  1.00  0.00     0.332 A 
HETATM   32  O6  UNL     1       2.630  15.478  82.097  1.00  0.00    -0.260 OA
HETATM   33  N3  UNL     1       2.903  16.282  84.267  1.00  0.00    -0.238 N 
HETATM   34  C22 UNL     1       1.500  16.668  84.489  1.00  0.00     0.183 C 
BRANCH  25  35
HETATM   35  O4  UNL     1       7.252  17.010  87.108  1.00  0.00    -0.394 OA
ATOM     36  H4  UNL     1       7.649  17.814  87.421  1.00  0.00     0.210 HD
ENDBRANCH  25  35
ENDBRANCH  21  23
ENDBRANCH   1  21
BRANCH   1  37
HETATM   37  N5  UNL     1       2.984  16.803  89.107  1.00  0.00    -0.227 N 
HETATM   38  C23 UNL     1       1.646  16.970  89.250  1.00  0.00     0.336 A 
HETATM   39  O7  UNL     1       0.819  16.130  88.808  1.00  0.00    -0.246 OA
HETATM   40  N6  UNL     1       1.103  18.035  89.864  1.00  0.00    -0.258 N 
HETATM   41  C24 UNL     1       1.869  18.996  90.373  1.00  0.00     0.360 A 
ATOM     42  H6  UNL     1       0.089  18.107  89.942  1.00  0.00     0.175 HD
HETATM   43  O8  UNL     1       1.372  20.019  90.963  1.00  0.00    -0.244 OA
HETATM   44  N7  UNL     1       3.197  18.872  90.255  1.00  0.00    -0.096 N 
HETATM   45  C25 UNL     1       3.728  17.793  89.632  1.00  0.00     0.364 A 
HETATM   46  O13 UNL     1       4.988  17.802  89.598  1.00  0.00    -0.244 OA
BRANCH  44  47
HETATM   47  O9  UNL     1       3.969  19.878  90.791  1.00  0.00    -0.116 OA
BRANCH  47  48
HETATM   48  S1  UNL     1       4.466  21.253  89.935  1.00  0.00     0.274 S 
HETATM   49  O10 UNL     1       5.671  21.820  90.617  1.00  0.00    -0.571 OA
HETATM   50  O11 UNL     1       3.325  22.244  89.916  1.00  0.00    -0.571 OA
HETATM   51  O12 UNL     1       4.767  20.824  88.338  1.00  0.00    -0.571 OA
ENDBRANCH  47  48
ENDBRANCH  44  47
ENDBRANCH   1  37
TORSDOF 15
ENDMDL
MODEL 5
REMARK VINA RESULT: -6.998864854      1.494      2.575
REMARK  15 active torsions:
REMARK  status: ('A' for Active; 'I' for Inactive)
REMARK    1  A    between atoms: C2_2  and  C3_3 
REMARK    2  A    between atoms: C3_3  and  C4_4 
REMARK    3  A    between atoms: C4_4  and  C7_7 
REMARK    4  A    between atoms: C7_7  and  C8_8 
REMARK    5  A    between atoms: C8_8  and  C9_9 
REMARK    6  A    between atoms: C8_8  and  C15_20 
REMARK    7  A    between atoms: C10_10  and  O1_11 
REMARK    8  A    between atoms: C13_16  and  C14_17 
REMARK    9  A    between atoms: C14_17  and  O3_18 
REMARK   10  A    between atoms: C15_20  and  N1_21 
REMARK   11  A    between atoms: C15_20  and  N5_37 
REMARK   12  A    between atoms: N1_21  and  C16_23 
REMARK   13  A    between atoms: C18_25  and  O4_26 
REMARK   14  A    between atoms: N7_44  and  O9_45 
REMARK   15  A    between atoms: O9_45  and  S1_46 
ROOT
HETATM    1  C15 UNL     1       5.517  15.971  87.810  1.00  0.00     0.204 C 
ENDROOT
BRANCH   1   2
HETATM    2  C8  UNL     1       4.289  15.278  88.451  1.00  0.00     0.068 C 
BRANCH   2   3
HETATM    3  C7  UNL     1       3.663  16.262  89.386  1.00  0.00     0.022 C 
BRANCH   3   4
HETATM    4  C4  UNL     1       2.222  16.603  89.208  1.00  0.00    -0.047 C 
HETATM    5  C5  UNL     1       1.514  15.814  90.336  1.00  0.00     0.015 C 
HETATM    6  C6  UNL     1       1.989  18.066  89.764  1.00  0.00     0.015 C 
BRANCH   4   7
HETATM    7  C3  UNL     1       1.516  16.465  87.962  1.00  0.00     0.008 C 
BRANCH   7   8
HETATM    8  C2  UNL     1       0.924  17.665  87.280  1.00  0.00    -0.004 C 
HETATM    9  C1  UNL     1      -0.152  17.451  86.277  1.00  0.00     0.005 C 
ENDBRANCH   7   8
ENDBRANCH   4   7
ENDBRANCH   3   4
ENDBRANCH   2   3
BRANCH   2  10
HETATM   10  C9  UNL     1       4.636  13.976  88.975  1.00  0.00     0.019 A 
HETATM   11  C10 UNL     1       5.833  13.611  89.572  1.00  0.00     0.191 A 
HETATM   12  O2  UNL     1       5.737  12.395  90.044  1.00  0.00    -0.292 OA
HETATM   13  C11 UNL     1       4.550  11.913  89.802  1.00  0.00     0.061 A 
HETATM   14  C12 UNL     1       4.056  10.542  90.189  1.00  0.00     0.077 C 
HETATM   15  C13 UNL     1       3.812  12.868  89.132  1.00  0.00     0.006 A 
BRANCH  11  16
HETATM   16  O1  UNL     1       7.029  14.366  89.692  1.00  0.00    -0.340 OA
ATOM     17  H1  UNL     1       7.847  14.118  90.107  1.00  0.00     0.220 HD
ENDBRANCH  11  16
BRANCH  15  18
HETATM   18  C14 UNL     1       2.421  12.751  88.739  1.00  0.00     0.206 C 
BRANCH  18  19
HETATM   19  O3  UNL     1       2.247  11.866  87.641  1.00  0.00    -0.396 OA
ATOM     20  H3  UNL     1       1.635  12.207  87.000  1.00  0.00     0.209 HD
ENDBRANCH  18  19
ENDBRANCH  15  18
ENDBRANCH   2  10
ENDBRANCH   1   2
BRANCH   1  21
HETATM   21  N1  UNL     1       5.474  17.388  88.128  1.00  0.00    -0.377 N 
ATOM     22  H1  UNL     1       4.658  17.786  88.593  1.00  0.00     0.157 HD
BRANCH  21  23
HETATM   23  C16 UNL     1       6.552  18.197  87.794  1.00  0.00     0.225 C 
HETATM   24  C17 UNL     1       6.430  19.450  88.711  1.00  0.00     0.083 C 
HETATM   25  C18 UNL     1       6.400  19.051  90.166  1.00  0.00     0.142 C 
HETATM   26  C19 UNL     1       7.212  17.815  90.459  1.00  0.00     0.186 C 
HETATM   27  N2  UNL     1       8.159  17.540  89.388  1.00  0.00    -0.232 N 
HETATM   28  C20 UNL     1       9.422  17.105  89.485  1.00  0.00     0.333 A 
HETATM   29  N4  UNL     1       7.891  17.715  88.129  1.00  0.00    -0.200 N 
HETATM   30  O5  UNL     1      10.092  16.807  90.522  1.00  0.00    -0.260 OA
HETATM   31  C21 UNL     1       9.919  17.022  88.208  1.00  0.00     0.332 A 
HETATM   32  O6  UNL     1      11.086  16.651  87.853  1.00  0.00    -0.260 OA
HETATM   33  N3  UNL     1       8.933  17.413  87.391  1.00  0.00    -0.238 N 
HETATM   34  C22 UNL     1       9.082  17.483  85.928  1.00  0.00     0.183 C 
BRANCH  25  35
HETATM   35  O4  UNL     1       5.095  18.942  90.622  1.00  0.00    -0.394 OA
ATOM     36  H4  UNL     1       4.856  19.696  91.150  1.00  0.00     0.210 HD
ENDBRANCH  25  35
ENDBRANCH  21  23
ENDBRANCH   1  21
BRANCH   1  37
HETATM   37  N5  UNL     1       5.694  15.773  86.407  1.00  0.00    -0.227 N 
HETATM   38  C23 UNL     1       6.654  14.956  85.906  1.00  0.00     0.336 A 
HETATM   39  O7  UNL     1       7.467  14.349  86.651  1.00  0.00    -0.246 OA
HETATM   40  N6  UNL     1       6.814  14.736  84.590  1.00  0.00    -0.258 N 
HETATM   41  C24 UNL     1       6.020  15.321  83.697  1.00  0.00     0.360 A 
ATOM     42  H6  UNL     1       7.554  14.111  84.272  1.00  0.00     0.175 HD
HETATM   43  O8  UNL     1       6.155  15.124  82.438  1.00  0.00    -0.244 OA
HETATM   44  N7  UNL     1       5.058  16.135  84.146  1.00  0.00    -0.096 N 
HETATM   45  C25 UNL     1       4.910  16.347  85.477  1.00  0.00     0.364 A 
HETATM   46  O13 UNL     1       3.964  17.129  85.759  1.00  0.00    -0.244 OA
BRANCH  44  47
HETATM   47  O9  UNL     1       4.247  16.727  83.204  1.00  0.00    -0.116 OA
BRANCH  47  48
HETATM   48  S1  UNL     1       2.814  16.039  82.617  1.00  0.00     0.274 S 
HETATM   49  O10 UNL     1       2.248  16.953  81.577  1.00  0.00    -0.571 OA
HETATM   50  O11 UNL     1       1.858  15.862  83.776  1.00  0.00    -0.571 OA
HETATM   51  O12 UNL     1       3.147  14.504  82.021  1.00  0.00    -0.571 OA
ENDBRANCH  47  48
ENDBRANCH  44  47
ENDBRANCH   1  37
TORSDOF 15
ENDMDL
