MODEL 1
REMARK VINA RESULT: -9.427597692      0.000      0.000
REMARK  18 active torsions:
REMARK  status: ('A' for Active; 'I' for Inactive)
REMARK    1  A    between atoms: C2_2  and  O1_3 
REMARK    2  A    between atoms: O1_3  and  C3_4 
REMARK    3  A    between atoms: C3_4  and  C4_6 
REMARK    4  A    between atoms: C5_7  and  C6_8 
REMARK    5  A    between atoms: C6_8  and  O4_10 
REMARK    6  A    between atoms: O4_10  and  C7_11 
REMARK    7  A    between atoms: C7_11  and  C8_12 
REMARK    8  A    between atoms: C10_16  and  N2_17 
REMARK    9  A    between atoms: N2_17  and  C11_19 
REMARK   10  A    between atoms: C12_22  and  O5_23 
REMARK   11  A    between atoms: C18_37  and  O9_38 
REMARK   12  A    between atoms: O9_38  and  C19_39 
REMARK   13  A    between atoms: C19_39  and  C20_40 
REMARK   14  A    between atoms: C20_40  and  O10_41 
REMARK   15  A    between atoms: C21_43  and  O11_44 
REMARK   16  A    between atoms: C22_46  and  C23_47 
REMARK   17  A    between atoms: C23_47  and  C24_48 
REMARK   18  A    between atoms: C25_51  and  O14_52 
ROOT
HETATM    1  C8  UNL     1       1.228  19.801  81.068  1.00  0.00     0.122 C 
HETATM    2  C9  UNL     1       0.260  19.977  82.162  1.00  0.00     0.154 C 
HETATM    3  N1  UNL     1      -1.090  20.045  81.628  1.00  0.00    -0.223 N 
ATOM      4  H1  UNL     1      -1.863  19.671  82.179  1.00  0.00     0.177 HD
HETATM    5  C10 UNL     1      -1.333  20.565  80.485  1.00  0.00     0.711 C 
HETATM    6  N5  UNL     1      -0.308  21.070  79.610  1.00  0.00    -0.046 N 
HETATM    7  C15 UNL     1      -0.619  21.645  78.399  1.00  0.00     0.206 C 
HETATM    8  N6  UNL     1      -0.856  22.129  77.398  1.00  0.00    -0.171 NA
HETATM    9  C16 UNL     1       1.016  20.940  80.112  1.00  0.00     0.261 C 
HETATM   10  O7  UNL     1       1.886  21.740  79.748  1.00  0.00    -0.271 OA
ENDROOT
BRANCH   5  11
HETATM   11  N2  UNL     1      -2.704  20.588  80.052  1.00  0.00    -0.021 N 
ATOM     12  H2  UNL     1      -3.070  19.848  79.453  1.00  0.00     0.203 HD
BRANCH  11  13
HETATM   13  C11 UNL     1      -3.460  21.555  80.428  1.00  0.00     0.701 A 
HETATM   14  N3  UNL     1      -3.782  21.773  81.713  1.00  0.00    -0.170 N 
HETATM   15  C12 UNL     1      -4.578  22.805  82.032  1.00  0.00     0.160 A 
ATOM     16  H3  UNL     1      -3.423  21.158  82.442  1.00  0.00     0.186 HD
HETATM   17  C13 UNL     1      -5.080  23.654  81.067  1.00  0.00     0.131 A 
HETATM   18  C14 UNL     1      -4.747  23.423  79.767  1.00  0.00     0.263 A 
HETATM   19  O6  UNL     1      -5.186  24.181  78.839  1.00  0.00    -0.268 OA
HETATM   20  N4  UNL     1      -3.954  22.390  79.483  1.00  0.00    -0.155 N 
ATOM     21  H4  UNL     1      -3.707  22.221  78.508  1.00  0.00     0.187 HD
BRANCH  15  22
HETATM   22  O5  UNL     1      -4.938  23.068  83.360  1.00  0.00    -0.346 OA
ATOM     23  H5  UNL     1      -5.659  23.649  83.573  1.00  0.00     0.219 HD
ENDBRANCH  15  22
ENDBRANCH  11  13
ENDBRANCH   5  11
BRANCH   1  24
HETATM   24  C7  UNL     1       2.648  19.551  81.345  1.00  0.00     0.195 C 
BRANCH  24  25
HETATM   25  O4  UNL     1       3.083  18.757  82.350  1.00  0.00    -0.315 OA
BRANCH  25  26
HETATM   26  C6  UNL     1       2.940  17.410  82.616  1.00  0.00     0.318 C 
HETATM   27  O3  UNL     1       2.598  16.732  81.658  1.00  0.00    -0.257 OA
BRANCH  26  28
HETATM   28  C5  UNL     1       3.198  16.903  83.970  1.00  0.00     0.171 A 
HETATM   29  C4  UNL     1       4.313  16.171  84.253  1.00  0.00     0.130 A 
HETATM   30  C27 UNL     1       4.400  15.765  85.601  1.00  0.00     0.207 A 
HETATM   31  C26 UNL     1       3.440  16.086  86.528  1.00  0.00     0.086 A 
HETATM   32  O15 UNL     1       5.401  15.083  85.951  1.00  0.00    -0.286 OA
HETATM   33  C17 UNL     1       2.358  16.825  86.142  1.00  0.00     0.129 A 
HETATM   34  C25 UNL     1       3.555  15.667  87.859  1.00  0.00     0.092 A 
HETATM   35  O8  UNL     1       2.278  17.200  84.899  1.00  0.00    -0.299 OA
HETATM   36  C18 UNL     1       1.358  17.170  87.070  1.00  0.00     0.137 A 
HETATM   37  C21 UNL     1       1.505  16.740  88.382  1.00  0.00     0.111 A 
HETATM   38  C22 UNL     1       2.597  15.988  88.787  1.00  0.00     0.022 A 
BRANCH  29  39
HETATM   39  C3  UNL     1       5.360  15.809  83.330  1.00  0.00     0.300 C 
HETATM   40  O2  UNL     1       5.432  14.990  82.422  1.00  0.00    -0.259 OA
BRANCH  39  41
HETATM   41  O1  UNL     1       6.565  16.538  83.490  1.00  0.00    -0.318 OA
BRANCH  41  42
HETATM   42  C2  UNL     1       7.786  15.838  83.782  1.00  0.00     0.174 C 
HETATM   43  C1  UNL     1       8.432  16.618  84.891  1.00  0.00     0.034 C 
ENDBRANCH  41  42
ENDBRANCH  39  41
ENDBRANCH  29  39
BRANCH  36  44
HETATM   44  O9  UNL     1       0.320  17.904  86.619  1.00  0.00    -0.344 OA
BRANCH  44  45
HETATM   45  C19 UNL     1      -0.861  17.441  86.091  1.00  0.00     0.201 C 
BRANCH  45  46
HETATM   46  C20 UNL     1      -0.857  17.343  84.598  1.00  0.00     0.190 C 
BRANCH  46  47
HETATM   47  O10 UNL     1      -1.638  18.332  84.057  1.00  0.00    -0.399 OA
ATOM     48  H10 UNL     1      -1.373  19.180  84.396  1.00  0.00     0.209 HD
ENDBRANCH  46  47
ENDBRANCH  45  46
ENDBRANCH  44  45
ENDBRANCH  36  44
BRANCH  37  49
HETATM   49  O11 UNL     1       0.578  17.046  89.337  1.00  0.00    -0.357 OA
ATOM     50  H11 UNL     1       0.654  17.834  89.862  1.00  0.00     0.217 HD
ENDBRANCH  37  49
BRANCH  38  51
HETATM   51  C23 UNL     1       2.703  15.561  90.180  1.00  0.00     0.157 C 
BRANCH  51  52
HETATM   52  C24 UNL     1       3.413  16.503  91.046  1.00  0.00     0.177 C 
HETATM   53  O12 UNL     1       2.825  17.511  91.492  1.00  0.00    -0.648 OA
HETATM   54  O13 UNL     1       4.734  16.286  91.375  1.00  0.00    -0.648 OA
ENDBRANCH  51  52
ENDBRANCH  38  51
BRANCH  34  55
HETATM   55  O14 UNL     1       4.677  14.928  88.153  1.00  0.00    -0.359 OA
ATOM     56  H14 UNL     1       4.675  13.981  88.229  1.00  0.00     0.217 HD
ENDBRANCH  34  55
ENDBRANCH  26  28
ENDBRANCH  25  26
ENDBRANCH  24  25
ENDBRANCH   1  24
TORSDOF 18
ENDMDL
MODEL 2
REMARK VINA RESULT: -9.210327437      3.193      6.817
REMARK  18 active torsions:
REMARK  status: ('A' for Active; 'I' for Inactive)
REMARK    1  A    between atoms: C2_2  and  O1_3 
REMARK    2  A    between atoms: O1_3  and  C3_4 
REMARK    3  A    between atoms: C3_4  and  C4_6 
REMARK    4  A    between atoms: C5_7  and  C6_8 
REMARK    5  A    between atoms: C6_8  and  O4_10 
REMARK    6  A    between atoms: O4_10  and  C7_11 
REMARK    7  A    between atoms: C7_11  and  C8_12 
REMARK    8  A    between atoms: C10_16  and  N2_17 
REMARK    9  A    between atoms: N2_17  and  C11_19 
REMARK   10  A    between atoms: C12_22  and  O5_23 
REMARK   11  A    between atoms: C18_37  and  O9_38 
REMARK   12  A    between atoms: O9_38  and  C19_39 
REMARK   13  A    between atoms: C19_39  and  C20_40 
REMARK   14  A    between atoms: C20_40  and  O10_41 
REMARK   15  A    between atoms: C21_43  and  O11_44 
REMARK   16  A    between atoms: C22_46  and  C23_47 
REMARK   17  A    between atoms: C23_47  and  C24_48 
REMARK   18  A    between atoms: C25_51  and  O14_52 
ROOT
HETATM    1  C8  UNL     1       2.952  17.282  82.622  1.00  0.00     0.122 C 
HETATM    2  C9  UNL     1       2.768  17.933  81.316  1.00  0.00     0.154 C 
HETATM    3  N1  UNL     1       1.888  19.083  81.451  1.00  0.00    -0.223 N 
ATOM      4  H1  UNL     1       2.035  19.896  80.852  1.00  0.00     0.177 HD
HETATM    5  C10 UNL     1       0.934  19.100  82.302  1.00  0.00     0.711 C 
HETATM    6  N5  UNL     1       0.679  18.028  83.229  1.00  0.00    -0.046 N 
HETATM    7  C15 UNL     1      -0.378  18.079  84.110  1.00  0.00     0.206 C 
HETATM    8  N6  UNL     1      -1.248  18.100  84.841  1.00  0.00    -0.171 NA
HETATM    9  C16 UNL     1       1.583  16.936  83.133  1.00  0.00     0.261 C 
HETATM   10  O7  UNL     1       1.207  15.804  83.464  1.00  0.00    -0.271 OA
ENDROOT
BRANCH   5  11
HETATM   11  N2  UNL     1       0.119  20.284  82.352  1.00  0.00    -0.021 N 
ATOM     12  H2  UNL     1       0.062  20.837  83.207  1.00  0.00     0.203 HD
BRANCH  11  13
HETATM   13  C11 UNL     1      -0.536  20.634  81.305  1.00  0.00     0.701 A 
HETATM   14  N3  UNL     1       0.058  20.998  80.159  1.00  0.00    -0.170 N 
HETATM   15  C12 UNL     1      -0.692  21.351  79.104  1.00  0.00     0.160 A 
ATOM     16  H3  UNL     1       1.075  21.006  80.089  1.00  0.00     0.186 HD
HETATM   17  C13 UNL     1      -2.071  21.350  79.167  1.00  0.00     0.131 A 
HETATM   18  C14 UNL     1      -2.664  20.979  80.336  1.00  0.00     0.263 A 
HETATM   19  O6  UNL     1      -3.935  20.962  80.443  1.00  0.00    -0.268 OA
HETATM   20  N4  UNL     1      -1.891  20.634  81.365  1.00  0.00    -0.155 N 
ATOM     21  H4  UNL     1      -2.338  20.356  82.238  1.00  0.00     0.187 HD
BRANCH  15  22
HETATM   22  O5  UNL     1      -0.112  21.738  77.889  1.00  0.00    -0.346 OA
ATOM     23  H5  UNL     1      -0.434  21.408  77.058  1.00  0.00     0.219 HD
ENDBRANCH  15  22
ENDBRANCH  11  13
ENDBRANCH   5  11
BRANCH   1  24
HETATM   24  C7  UNL     1       3.914  16.185  82.793  1.00  0.00     0.195 C 
BRANCH  24  25
HETATM   25  O4  UNL     1       5.231  16.380  83.033  1.00  0.00    -0.315 OA
BRANCH  25  26
HETATM   26  C6  UNL     1       6.181  15.655  83.723  1.00  0.00     0.318 C 
HETATM   27  O3  UNL     1       6.284  14.486  83.380  1.00  0.00    -0.257 OA
BRANCH  26  28
HETATM   28  C5  UNL     1       6.972  16.306  84.776  1.00  0.00     0.171 A 
HETATM   29  C4  UNL     1       6.466  16.498  86.027  1.00  0.00     0.130 A 
HETATM   30  C27 UNL     1       7.361  17.139  86.910  1.00  0.00     0.207 A 
HETATM   31  C26 UNL     1       8.619  17.527  86.526  1.00  0.00     0.086 A 
HETATM   32  O15 UNL     1       6.974  17.357  88.090  1.00  0.00    -0.286 OA
HETATM   33  C17 UNL     1       9.032  17.289  85.245  1.00  0.00     0.129 A 
HETATM   34  C25 UNL     1       9.484  18.162  87.426  1.00  0.00     0.092 A 
HETATM   35  O8  UNL     1       8.207  16.697  84.432  1.00  0.00    -0.299 OA
HETATM   36  C18 UNL     1      10.317  17.675  84.822  1.00  0.00     0.137 A 
HETATM   37  C21 UNL     1      11.149  18.300  85.742  1.00  0.00     0.111 A 
HETATM   38  C22 UNL     1      10.744  18.550  87.044  1.00  0.00     0.022 A 
BRANCH  29  39
HETATM   39  C3  UNL     1       5.160  16.107  86.495  1.00  0.00     0.300 C 
HETATM   40  O2  UNL     1       4.736  15.110  87.065  1.00  0.00    -0.259 OA
BRANCH  39  41
HETATM   41  O1  UNL     1       4.138  17.060  86.251  1.00  0.00    -0.318 OA
BRANCH  41  42
HETATM   42  C2  UNL     1       3.274  17.467  87.324  1.00  0.00     0.174 C 
HETATM   43  C1  UNL     1       1.891  17.076  86.889  1.00  0.00     0.034 C 
ENDBRANCH  41  42
ENDBRANCH  39  41
ENDBRANCH  29  39
BRANCH  36  44
HETATM   44  O9  UNL     1      10.657  17.404  83.546  1.00  0.00    -0.344 OA
BRANCH  44  45
HETATM   45  C19 UNL     1      11.605  16.511  83.107  1.00  0.00     0.201 C 
BRANCH  45  46
HETATM   46  C20 UNL     1      11.168  15.083  83.182  1.00  0.00     0.190 C 
BRANCH  46  47
HETATM   47  O10 UNL     1       9.835  14.980  82.878  1.00  0.00    -0.399 OA
ATOM     48  H10 UNL     1       9.387  14.464  83.538  1.00  0.00     0.209 HD
ENDBRANCH  46  47
ENDBRANCH  45  46
ENDBRANCH  44  45
ENDBRANCH  36  44
BRANCH  37  49
HETATM   49  O11 UNL     1      12.412  18.693  85.403  1.00  0.00    -0.357 OA
ATOM     50  H11 UNL     1      13.176  18.247  85.748  1.00  0.00     0.217 HD
ENDBRANCH  37  49
BRANCH  38  51
HETATM   51  C23 UNL     1      11.658  19.212  87.971  1.00  0.00     0.157 C 
BRANCH  51  52
HETATM   52  C24 UNL     1      11.510  20.667  88.025  1.00  0.00     0.177 C 
HETATM   53  O12 UNL     1      11.221  21.228  89.102  1.00  0.00    -0.648 OA
HETATM   54  O13 UNL     1      11.689  21.427  86.889  1.00  0.00    -0.648 OA
ENDBRANCH  51  52
ENDBRANCH  38  51
BRANCH  34  55
HETATM   55  O14 UNL     1       8.982  18.360  88.691  1.00  0.00    -0.359 OA
ATOM     56  H14 UNL     1       8.060  18.277  88.907  1.00  0.00     0.217 HD
ENDBRANCH  34  55
ENDBRANCH  26  28
ENDBRANCH  25  26
ENDBRANCH  24  25
ENDBRANCH   1  24
TORSDOF 18
ENDMDL
MODEL 3
REMARK VINA RESULT: -9.047306635      2.788      4.456
REMARK  18 active torsions:
REMARK  status: ('A' for Active; 'I' for Inactive)
REMARK    1  A    between atoms: C2_2  and  O1_3 
REMARK    2  A    between atoms: O1_3  and  C3_4 
REMARK    3  A    between atoms: C3_4  and  C4_6 
REMARK    4  A    between atoms: C5_7  and  C6_8 
REMARK    5  A    between atoms: C6_8  and  O4_10 
REMARK    6  A    between atoms: O4_10  and  C7_11 
REMARK    7  A    between atoms: C7_11  and  C8_12 
REMARK    8  A    between atoms: C10_16  and  N2_17 
REMARK    9  A    between atoms: N2_17  and  C11_19 
REMARK   10  A    between atoms: C12_22  and  O5_23 
REMARK   11  A    between atoms: C18_37  and  O9_38 
REMARK   12  A    between atoms: O9_38  and  C19_39 
REMARK   13  A    between atoms: C19_39  and  C20_40 
REMARK   14  A    between atoms: C20_40  and  O10_41 
REMARK   15  A    between atoms: C21_43  and  O11_44 
REMARK   16  A    between atoms: C22_46  and  C23_47 
REMARK   17  A    between atoms: C23_47  and  C24_48 
REMARK   18  A    between atoms: C25_51  and  O14_52 
ROOT
HETATM    1  C8  UNL     1       3.059  17.296  82.647  1.00  0.00     0.122 C 
HETATM    2  C9  UNL     1       2.904  17.973  81.350  1.00  0.00     0.154 C 
HETATM    3  N1  UNL     1       2.016  19.116  81.486  1.00  0.00    -0.223 N 
ATOM      4  H1  UNL     1       2.175  19.942  80.908  1.00  0.00     0.177 HD
HETATM    5  C10 UNL     1       1.041  19.112  82.314  1.00  0.00     0.711 C 
HETATM    6  N5  UNL     1       0.768  18.021  83.212  1.00  0.00    -0.046 N 
HETATM    7  C15 UNL     1      -0.310  18.050  84.068  1.00  0.00     0.206 C 
HETATM    8  N6  UNL     1      -1.198  18.052  84.777  1.00  0.00    -0.171 NA
HETATM    9  C16 UNL     1       1.679  16.934  83.117  1.00  0.00     0.261 C 
HETATM   10  O7  UNL     1       1.301  15.795  83.415  1.00  0.00    -0.271 OA
ENDROOT
BRANCH   5  11
HETATM   11  N2  UNL     1       0.220  20.291  82.368  1.00  0.00    -0.021 N 
ATOM     12  H2  UNL     1       0.175  20.853  83.219  1.00  0.00     0.203 HD
BRANCH  11  13
HETATM   13  C11 UNL     1      -0.457  20.627  81.330  1.00  0.00     0.701 A 
HETATM   14  N3  UNL     1       0.114  20.979  80.168  1.00  0.00    -0.170 N 
HETATM   15  C12 UNL     1      -0.658  21.318  79.124  1.00  0.00     0.160 A 
ATOM     16  H3  UNL     1       1.130  20.989  80.078  1.00  0.00     0.186 HD
HETATM   17  C13 UNL     1      -2.035  21.315  79.214  1.00  0.00     0.131 A 
HETATM   18  C14 UNL     1      -2.604  20.956  80.399  1.00  0.00     0.263 A 
HETATM   19  O6  UNL     1      -3.872  20.938  80.531  1.00  0.00    -0.268 OA
HETATM   20  N4  UNL     1      -1.809  20.625  81.416  1.00  0.00    -0.155 N 
ATOM     21  H4  UNL     1      -2.239  20.356  82.301  1.00  0.00     0.187 HD
BRANCH  15  22
HETATM   22  O5  UNL     1      -0.102  21.692  77.893  1.00  0.00    -0.346 OA
ATOM     23  H5  UNL     1      -0.649  21.911  77.148  1.00  0.00     0.219 HD
ENDBRANCH  15  22
ENDBRANCH  11  13
ENDBRANCH   5  11
BRANCH   1  24
HETATM   24  C7  UNL     1       4.021  16.200  82.819  1.00  0.00     0.195 C 
BRANCH  24  25
HETATM   25  O4  UNL     1       5.260  16.371  83.335  1.00  0.00    -0.315 OA
BRANCH  25  26
HETATM   26  C6  UNL     1       5.901  15.850  84.441  1.00  0.00     0.318 C 
HETATM   27  O3  UNL     1       6.309  14.705  84.306  1.00  0.00    -0.257 OA
BRANCH  26  28
HETATM   28  C5  UNL     1       6.048  16.669  85.651  1.00  0.00     0.171 A 
HETATM   29  C4  UNL     1       7.276  16.964  86.165  1.00  0.00     0.130 A 
HETATM   30  C27 UNL     1       7.230  17.758  87.330  1.00  0.00     0.207 A 
HETATM   31  C26 UNL     1       6.048  18.186  87.880  1.00  0.00     0.086 A 
HETATM   32  O15 UNL     1       8.322  18.078  87.872  1.00  0.00    -0.286 OA
HETATM   33  C17 UNL     1       4.868  17.835  87.288  1.00  0.00     0.129 A 
HETATM   34  C25 UNL     1       6.035  18.974  89.038  1.00  0.00     0.092 A 
HETATM   35  O8  UNL     1       4.911  17.103  86.213  1.00  0.00    -0.299 OA
HETATM   36  C18 UNL     1       3.640  18.259  87.828  1.00  0.00     0.137 A 
HETATM   37  C21 UNL     1       3.665  19.041  88.976  1.00  0.00     0.111 A 
HETATM   38  C22 UNL     1       4.855  19.403  89.589  1.00  0.00     0.022 A 
BRANCH  29  39
HETATM   39  C3  UNL     1       8.551  16.554  85.631  1.00  0.00     0.300 C 
HETATM   40  O2  UNL     1       9.267  15.579  85.822  1.00  0.00    -0.259 OA
BRANCH  39  41
HETATM   41  O1  UNL     1       9.111  17.452  84.687  1.00  0.00    -0.318 OA
BRANCH  41  42
HETATM   42  C2  UNL     1      10.380  18.069  84.959  1.00  0.00     0.174 C 
HETATM   43  C1  UNL     1      11.243  17.732  83.777  1.00  0.00     0.034 C 
ENDBRANCH  41  42
ENDBRANCH  39  41
ENDBRANCH  29  39
BRANCH  36  44
HETATM   44  O9  UNL     1       2.516  17.878  87.189  1.00  0.00    -0.344 OA
BRANCH  44  45
HETATM   45  C19 UNL     1       1.623  16.908  87.578  1.00  0.00     0.201 C 
BRANCH  45  46
HETATM   46  C20 UNL     1       2.120  15.513  87.369  1.00  0.00     0.190 C 
BRANCH  46  47
HETATM   47  O10 UNL     1       2.585  15.364  86.088  1.00  0.00    -0.399 OA
ATOM     48  H10 UNL     1       3.433  14.934  86.095  1.00  0.00     0.209 HD
ENDBRANCH  46  47
ENDBRANCH  45  46
ENDBRANCH  44  45
ENDBRANCH  36  44
BRANCH  37  49
HETATM   49  O11 UNL     1       2.512  19.496  89.550  1.00  0.00    -0.357 OA
ATOM     50  H11 UNL     1       2.529  20.140  90.247  1.00  0.00     0.217 HD
ENDBRANCH  37  49
BRANCH  38  51
HETATM   51  C23 UNL     1       4.824  20.227  90.795  1.00  0.00     0.157 C 
BRANCH  51  52
HETATM   52  C24 UNL     1       4.800  21.668  90.538  1.00  0.00     0.177 C 
HETATM   53  O12 UNL     1       5.712  22.398  90.976  1.00  0.00    -0.648 OA
HETATM   54  O13 UNL     1       3.771  22.228  89.810  1.00  0.00    -0.648 OA
ENDBRANCH  51  52
ENDBRANCH  38  51
BRANCH  34  55
HETATM   55  O14 UNL     1       7.270  19.275  89.563  1.00  0.00    -0.359 OA
ATOM     56  H14 UNL     1       8.085  19.141  89.093  1.00  0.00     0.217 HD
ENDBRANCH  34  55
ENDBRANCH  26  28
ENDBRANCH  25  26
ENDBRANCH  24  25
ENDBRANCH   1  24
TORSDOF 18
ENDMDL
MODEL 4
REMARK VINA RESULT: -8.970144722      3.248      6.814
REMARK  18 active torsions:
REMARK  status: ('A' for Active; 'I' for Inactive)
REMARK    1  A    between atoms: C2_2  and  O1_3 
REMARK    2  A    between atoms: O1_3  and  C3_4 
REMARK    3  A    between atoms: C3_4  and  C4_6 
REMARK    4  A    between atoms: C5_7  and  C6_8 
REMARK    5  A    between atoms: C6_8  and  O4_10 
REMARK    6  A    between atoms: O4_10  and  C7_11 
REMARK    7  A    between atoms: C7_11  and  C8_12 
REMARK    8  A    between atoms: C10_16  and  N2_17 
REMARK    9  A    between atoms: N2_17  and  C11_19 
REMARK   10  A    between atoms: C12_22  and  O5_23 
REMARK   11  A    between atoms: C18_37  and  O9_38 
REMARK   12  A    between atoms: O9_38  and  C19_39 
REMARK   13  A    between atoms: C19_39  and  C20_40 
REMARK   14  A    between atoms: C20_40  and  O10_41 
REMARK   15  A    between atoms: C21_43  and  O11_44 
REMARK   16  A    between atoms: C22_46  and  C23_47 
REMARK   17  A    between atoms: C23_47  and  C24_48 
REMARK   18  A    between atoms: C25_51  and  O14_52 
ROOT
HETATM    1  C8  UNL     1       3.050  17.307  82.578  1.00  0.00     0.122 C 
HETATM    2  C9  UNL     1       2.925  17.987  81.278  1.00  0.00     0.154 C 
HETATM    3  N1  UNL     1       2.076  19.160  81.408  1.00  0.00    -0.223 N 
ATOM      4  H1  UNL     1       2.265  19.979  80.829  1.00  0.00     0.177 HD
HETATM    5  C10 UNL     1       1.097  19.191  82.231  1.00  0.00     0.711 C 
HETATM    6  N5  UNL     1       0.782  18.111  83.129  1.00  0.00    -0.046 N 
HETATM    7  C15 UNL     1      -0.298  18.178  83.979  1.00  0.00     0.206 C 
HETATM    8  N6  UNL     1      -1.190  18.212  84.684  1.00  0.00    -0.171 NA
HETATM    9  C16 UNL     1       1.656  16.994  83.041  1.00  0.00     0.261 C 
HETATM   10  O7  UNL     1       1.238  15.869  83.339  1.00  0.00    -0.271 OA
ENDROOT
BRANCH   5  11
HETATM   11  N2  UNL     1       0.316  20.397  82.278  1.00  0.00    -0.021 N 
ATOM     12  H2  UNL     1       0.447  21.069  83.035  1.00  0.00     0.203 HD
BRANCH  11  13
HETATM   13  C11 UNL     1      -0.548  20.617  81.355  1.00  0.00     0.701 A 
HETATM   14  N3  UNL     1      -1.872  20.604  81.575  1.00  0.00    -0.170 N 
HETATM   15  C12 UNL     1      -2.716  20.844  80.560  1.00  0.00     0.160 A 
ATOM     16  H3  UNL     1      -2.234  20.414  82.509  1.00  0.00     0.186 HD
HETATM   17  C13 UNL     1      -2.256  21.105  79.285  1.00  0.00     0.131 A 
HETATM   18  C14 UNL     1      -0.911  21.115  79.074  1.00  0.00     0.263 A 
HETATM   19  O6  UNL     1      -0.438  21.352  77.913  1.00  0.00    -0.268 OA
HETATM   20  N4  UNL     1      -0.099  20.874  80.102  1.00  0.00    -0.155 N 
ATOM     21  H4  UNL     1       0.908  20.883  79.940  1.00  0.00     0.187 HD
BRANCH  15  22
HETATM   22  O5  UNL     1      -4.105  20.840  80.747  1.00  0.00    -0.346 OA
ATOM     23  H5  UNL     1      -4.613  21.642  80.710  1.00  0.00     0.219 HD
ENDBRANCH  15  22
ENDBRANCH  11  13
ENDBRANCH   5  11
BRANCH   1  24
HETATM   24  C7  UNL     1       3.974  16.180  82.757  1.00  0.00     0.195 C 
BRANCH  24  25
HETATM   25  O4  UNL     1       5.298  16.331  82.986  1.00  0.00    -0.315 OA
BRANCH  25  26
HETATM   26  C6  UNL     1       6.218  15.605  83.717  1.00  0.00     0.318 C 
HETATM   27  O3  UNL     1       6.312  14.429  83.398  1.00  0.00    -0.257 OA
BRANCH  26  28
HETATM   28  C5  UNL     1       6.987  16.264  84.780  1.00  0.00     0.171 A 
HETATM   29  C4  UNL     1       6.469  16.435  86.030  1.00  0.00     0.130 A 
HETATM   30  C27 UNL     1       7.343  17.088  86.924  1.00  0.00     0.207 A 
HETATM   31  C26 UNL     1       8.596  17.505  86.552  1.00  0.00     0.086 A 
HETATM   32  O15 UNL     1       6.944  17.289  88.102  1.00  0.00    -0.286 OA
HETATM   33  C17 UNL     1       9.023  17.286  85.272  1.00  0.00     0.129 A 
HETATM   34  C25 UNL     1       9.442  18.151  87.463  1.00  0.00     0.092 A 
HETATM   35  O8  UNL     1       8.216  16.683  84.448  1.00  0.00    -0.299 OA
HETATM   36  C18 UNL     1      10.303  17.701  84.861  1.00  0.00     0.137 A 
HETATM   37  C21 UNL     1      11.115  18.336  85.792  1.00  0.00     0.111 A 
HETATM   38  C22 UNL     1      10.695  18.567  87.093  1.00  0.00     0.022 A 
BRANCH  29  39
HETATM   39  C3  UNL     1       5.167  16.014  86.485  1.00  0.00     0.300 C 
HETATM   40  O2  UNL     1       4.765  15.019  87.074  1.00  0.00    -0.259 OA
BRANCH  39  41
HETATM   41  O1  UNL     1       4.120  16.926  86.198  1.00  0.00    -0.318 OA
BRANCH  41  42
HETATM   42  C2  UNL     1       3.231  17.342  87.248  1.00  0.00     0.174 C 
HETATM   43  C1  UNL     1       1.853  17.006  86.755  1.00  0.00     0.034 C 
ENDBRANCH  41  42
ENDBRANCH  39  41
ENDBRANCH  29  39
BRANCH  36  44
HETATM   44  O9  UNL     1      10.658  17.447  83.586  1.00  0.00    -0.344 OA
BRANCH  44  45
HETATM   45  C19 UNL     1      11.574  16.525  83.143  1.00  0.00     0.201 C 
BRANCH  45  46
HETATM   46  C20 UNL     1      11.044  15.127  83.085  1.00  0.00     0.190 C 
BRANCH  46  47
HETATM   47  O10 UNL     1      11.887  14.332  82.350  1.00  0.00    -0.399 OA
ATOM     48  H10 UNL     1      11.644  13.419  82.449  1.00  0.00     0.209 HD
ENDBRANCH  46  47
ENDBRANCH  45  46
ENDBRANCH  44  45
ENDBRANCH  36  44
BRANCH  37  49
HETATM   49  O11 UNL     1      12.372  18.757  85.465  1.00  0.00    -0.357 OA
ATOM     50  H11 UNL     1      13.055  18.829  86.122  1.00  0.00     0.217 HD
ENDBRANCH  37  49
BRANCH  38  51
HETATM   51  C23 UNL     1      11.590  19.240  88.032  1.00  0.00     0.157 C 
BRANCH  51  52
HETATM   52  C24 UNL     1      11.422  20.693  88.084  1.00  0.00     0.177 C 
HETATM   53  O12 UNL     1      11.149  21.254  89.165  1.00  0.00    -0.648 OA
HETATM   54  O13 UNL     1      11.566  21.452  86.942  1.00  0.00    -0.648 OA
ENDBRANCH  51  52
ENDBRANCH  38  51
BRANCH  34  55
HETATM   55  O14 UNL     1       8.927  18.328  88.725  1.00  0.00    -0.359 OA
ATOM     56  H14 UNL     1       8.654  19.173  89.066  1.00  0.00     0.217 HD
ENDBRANCH  34  55
ENDBRANCH  26  28
ENDBRANCH  25  26
ENDBRANCH  24  25
ENDBRANCH   1  24
TORSDOF 18
ENDMDL
MODEL 5
REMARK VINA RESULT: -8.965067616      5.487     10.264
REMARK  18 active torsions:
REMARK  status: ('A' for Active; 'I' for Inactive)
REMARK    1  A    between atoms: C2_2  and  O1_3 
REMARK    2  A    between atoms: O1_3  and  C3_4 
REMARK    3  A    between atoms: C3_4  and  C4_6 
REMARK    4  A    between atoms: C5_7  and  C6_8 
REMARK    5  A    between atoms: C6_8  and  O4_10 
REMARK    6  A    between atoms: O4_10  and  C7_11 
REMARK    7  A    between atoms: C7_11  and  C8_12 
REMARK    8  A    between atoms: C10_16  and  N2_17 
REMARK    9  A    between atoms: N2_17  and  C11_19 
REMARK   10  A    between atoms: C12_22  and  O5_23 
REMARK   11  A    between atoms: C18_37  and  O9_38 
REMARK   12  A    between atoms: O9_38  and  C19_39 
REMARK   13  A    between atoms: C19_39  and  C20_40 
REMARK   14  A    between atoms: C20_40  and  O10_41 
REMARK   15  A    between atoms: C21_43  and  O11_44 
REMARK   16  A    between atoms: C22_46  and  C23_47 
REMARK   17  A    between atoms: C23_47  and  C24_48 
REMARK   18  A    between atoms: C25_51  and  O14_52 
ROOT
HETATM    1  C8  UNL     1       5.914  16.385  84.338  1.00  0.00     0.122 C 
HETATM    2  C9  UNL     1       5.720  15.543  83.148  1.00  0.00     0.154 C 
HETATM    3  N1  UNL     1       4.423  15.814  82.549  1.00  0.00    -0.223 N 
ATOM      4  H1  UNL     1       4.317  15.744  81.537  1.00  0.00     0.177 HD
HETATM    5  C10 UNL     1       3.411  16.138  83.261  1.00  0.00     0.711 C 
HETATM    6  N5  UNL     1       3.471  16.317  84.689  1.00  0.00    -0.046 N 
HETATM    7  C15 UNL     1       2.349  16.641  85.418  1.00  0.00     0.206 C 
HETATM    8  N6  UNL     1       1.433  16.902  86.038  1.00  0.00    -0.171 NA
HETATM    9  C16 UNL     1       4.758  16.113  85.257  1.00  0.00     0.261 C 
HETATM   10  O7  UNL     1       4.851  15.737  86.432  1.00  0.00    -0.271 OA
ENDROOT
BRANCH   5  11
HETATM   11  N2  UNL     1       2.173  16.381  82.572  1.00  0.00    -0.021 N 
ATOM     12  H2  UNL     1       1.467  15.647  82.502  1.00  0.00     0.203 HD
BRANCH  11  13
HETATM   13  C11 UNL     1       1.967  17.533  82.047  1.00  0.00     0.701 A 
HETATM   14  N3  UNL     1       1.050  18.396  82.511  1.00  0.00    -0.170 N 
HETATM   15  C12 UNL     1       0.892  19.585  81.910  1.00  0.00     0.160 A 
ATOM     16  H3  UNL     1       0.476  18.148  83.317  1.00  0.00     0.186 HD
HETATM   17  C13 UNL     1       1.654  19.948  80.818  1.00  0.00     0.131 A 
HETATM   18  C14 UNL     1       2.581  19.065  80.355  1.00  0.00     0.263 A 
HETATM   19  O6  UNL     1       3.309  19.356  79.349  1.00  0.00    -0.268 OA
HETATM   20  N4  UNL     1       2.714  17.893  80.974  1.00  0.00    -0.155 N 
ATOM     21  H4  UNL     1       3.411  17.235  80.625  1.00  0.00     0.187 HD
BRANCH  15  22
HETATM   22  O5  UNL     1      -0.054  20.514  82.363  1.00  0.00    -0.346 OA
ATOM     23  H5  UNL     1       0.208  21.331  82.772  1.00  0.00     0.219 HD
ENDBRANCH  15  22
ENDBRANCH  11  13
ENDBRANCH   5  11
BRANCH   1  24
HETATM   24  C7  UNL     1       7.202  16.417  85.042  1.00  0.00     0.195 C 
BRANCH  24  25
HETATM   25  O4  UNL     1       8.343  16.885  84.487  1.00  0.00    -0.315 OA
BRANCH  25  26
HETATM   26  C6  UNL     1       9.476  16.265  83.996  1.00  0.00     0.318 C 
HETATM   27  O3  UNL     1       9.275  15.193  83.445  1.00  0.00    -0.257 OA
BRANCH  26  28
HETATM   28  C5  UNL     1      10.786  16.908  84.160  1.00  0.00     0.171 A 
HETATM   29  C4  UNL     1      11.112  17.572  85.305  1.00  0.00     0.130 A 
HETATM   30  C27 UNL     1      12.409  18.129  85.289  1.00  0.00     0.207 A 
HETATM   31  C26 UNL     1      13.249  18.003  84.213  1.00  0.00     0.086 A 
HETATM   32  O15 UNL     1      12.793  18.763  86.309  1.00  0.00    -0.286 OA
HETATM   33  C17 UNL     1      12.826  17.315  83.110  1.00  0.00     0.129 A 
HETATM   34  C25 UNL     1      14.531  18.567  84.228  1.00  0.00     0.092 A 
HETATM   35  O8  UNL     1      11.631  16.802  83.125  1.00  0.00    -0.299 OA
HETATM   36  C18 UNL     1      13.666  17.168  81.991  1.00  0.00     0.137 A 
HETATM   37  C21 UNL     1      14.931  17.739  82.042  1.00  0.00     0.111 A 
HETATM   38  C22 UNL     1      15.373  18.440  83.153  1.00  0.00     0.022 A 
BRANCH  29  39
HETATM   39  C3  UNL     1      10.280  17.734  86.471  1.00  0.00     0.300 C 
HETATM   40  O2  UNL     1       9.555  18.637  86.867  1.00  0.00    -0.259 OA
BRANCH  39  41
HETATM   41  O1  UNL     1      10.291  16.628  87.360  1.00  0.00    -0.318 OA
BRANCH  41  42
HETATM   42  C2  UNL     1      10.458  16.850  88.769  1.00  0.00     0.174 C 
HETATM   43  C1  UNL     1      11.931  16.700  89.021  1.00  0.00     0.034 C 
ENDBRANCH  41  42
ENDBRANCH  39  41
ENDBRANCH  29  39
BRANCH  36  44
HETATM   44  O9  UNL     1      13.183  16.474  80.940  1.00  0.00    -0.344 OA
BRANCH  44  45
HETATM   45  C19 UNL     1      13.275  15.120  80.723  1.00  0.00     0.201 C 
BRANCH  45  46
HETATM   46  C20 UNL     1      11.972  14.398  80.857  1.00  0.00     0.190 C 
BRANCH  46  47
HETATM   47  O10 UNL     1      11.713  14.132  82.177  1.00  0.00    -0.399 OA
ATOM     48  H10 UNL     1      10.779  14.010  82.310  1.00  0.00     0.209 HD
ENDBRANCH  46  47
ENDBRANCH  45  46
ENDBRANCH  44  45
ENDBRANCH  36  44
BRANCH  37  49
HETATM   49  O11 UNL     1      15.802  17.627  80.996  1.00  0.00    -0.357 OA
ATOM     50  H11 UNL     1      16.050  18.383  80.478  1.00  0.00     0.217 HD
ENDBRANCH  37  49
BRANCH  38  51
HETATM   51  C23 UNL     1      16.713  19.021  83.154  1.00  0.00     0.157 C 
BRANCH  51  52
HETATM   52  C24 UNL     1      17.737  18.168  83.759  1.00  0.00     0.177 C 
HETATM   53  O12 UNL     1      18.221  18.463  84.871  1.00  0.00    -0.648 OA
HETATM   54  O13 UNL     1      18.174  17.035  83.106  1.00  0.00    -0.648 OA
ENDBRANCH  51  52
ENDBRANCH  38  51
BRANCH  34  55
HETATM   55  O14 UNL     1      14.868  19.240  85.379  1.00  0.00    -0.359 OA
ATOM     56  H14 UNL     1      14.870  20.188  85.450  1.00  0.00     0.217 HD
ENDBRANCH  34  55
ENDBRANCH  26  28
ENDBRANCH  25  26
ENDBRANCH  24  25
ENDBRANCH   1  24
TORSDOF 18
ENDMDL
