MODEL 1
REMARK VINA RESULT: -9.731360171      0.000      0.000
REMARK  13 active torsions:
REMARK  status: ('A' for Active; 'I' for Inactive)
REMARK    1  A    between atoms: S1_2  and  C2_5 
REMARK    2  A    between atoms: C4_12  and  C5_13 
REMARK    3  A    between atoms: C5_13  and  S2_14 
REMARK    4  A    between atoms: S2_14  and  C6_17 
REMARK    5  A    between atoms: N4_24  and  C11_25 
REMARK    6  A    between atoms: C11_25  and  C12_26 
REMARK    7  A    between atoms: C12_26  and  O5_27 
REMARK    8  A    between atoms: C12_26  and  C13_29 
REMARK    9  A    between atoms: C13_29  and  N5_30 
REMARK   10  A    between atoms: C16_34  and  O7_35 
REMARK   11  A    between atoms: O7_35  and  S3_36 
REMARK   12  A    between atoms: C20_47  and  N7_48 
REMARK   13  A    between atoms: N7_48  and  O13_50 
ROOT
HETATM    1  C6  UNL     1       3.373  17.266  85.386  1.00  0.00     0.130 A 
HETATM    2  C7  UNL     1       2.865  16.020  84.960  1.00  0.00     0.043 A 
HETATM    3  C8  UNL     1       2.566  15.812  83.654  1.00  0.00     0.020 A 
HETATM    4  C9  UNL     1       2.772  16.846  82.743  1.00  0.00     0.026 A 
HETATM    5  C10 UNL     1       2.529  17.046  81.411  1.00  0.00     0.122 A 
HETATM    6  N3  UNL     1       2.879  18.330  81.097  1.00  0.00    -0.307 N 
ATOM      7  H3  UNL     1       2.791  18.743  80.168  1.00  0.00     0.186 HD
HETATM    8  N4  UNL     1       3.336  18.946  82.131  1.00  0.00    -0.273 N 
HETATM    9  C18 UNL     1       3.281  18.042  83.196  1.00  0.00     0.135 A 
HETATM   10  N6  UNL     1       3.567  18.223  84.481  1.00  0.00    -0.331 N 
ATOM     11  H6  UNL     1       3.946  19.120  84.783  1.00  0.00     0.168 HD
ENDROOT
BRANCH   1  12
HETATM   12  S2  UNL     1       3.566  17.435  87.064  1.00  0.00     0.195 S 
HETATM   13  O3  UNL     1       2.263  16.721  87.667  1.00  0.00    -0.221 OA
HETATM   14  O4  UNL     1       3.495  18.797  87.615  1.00  0.00    -0.221 OA
BRANCH  12  15
HETATM   15  C5  UNL     1       4.862  16.401  87.753  1.00  0.00     0.189 C 
BRANCH  15  16
HETATM   16  C4  UNL     1       6.072  17.023  87.136  1.00  0.00     0.002 A 
HETATM   17  C3  UNL     1       6.735  18.128  87.412  1.00  0.00     0.107 A 
HETATM   18  N1  UNL     1       7.957  18.370  86.871  1.00  0.00    -0.331 N 
HETATM   19  N2  UNL     1       6.187  18.997  88.210  1.00  0.00    -0.385 N 
HETATM   20  C2  UNL     1       8.547  17.479  86.026  1.00  0.00     0.158 A 
ATOM     21  H1  UNL     1       8.443  19.237  87.103  1.00  0.00     0.168 HD
HETATM   22  C20 UNL     1       7.931  16.306  85.697  1.00  0.00     0.093 A 
HETATM   23  C19 UNL     1       6.698  16.082  86.250  1.00  0.00     0.046 A 
ATOM     24  H22 UNL     1       6.700  19.853  88.423  1.00  0.00     0.157 HD
ATOM     25  H21 UNL     1       5.269  18.815  88.616  1.00  0.00     0.157 HD
BRANCH  20  26
HETATM   26  S1  UNL     1      10.104  17.875  85.344  1.00  0.00     0.189 S 
HETATM   27  C1  UNL     1      10.516  19.581  85.670  1.00  0.00     0.168 C 
HETATM   28  O1  UNL     1      11.178  17.066  86.072  1.00  0.00    -0.221 OA
HETATM   29  O2  UNL     1      10.157  17.549  83.913  1.00  0.00    -0.221 OA
ENDBRANCH  20  26
BRANCH  22  30
HETATM   30  N7  UNL     1       8.550  15.340  84.862  1.00  0.00    -0.266 N 
ATOM     31  H7  UNL     1       9.257  14.693  85.210  1.00  0.00     0.194 HD
BRANCH  30  32
HETATM   32  O13 UNL     1       8.136  15.335  83.565  1.00  0.00    -0.289 OA
ATOM     33  H13 UNL     1       8.805  15.536  82.922  1.00  0.00     0.244 HD
ENDBRANCH  30  32
ENDBRANCH  22  30
ENDBRANCH  15  16
ENDBRANCH  12  15
ENDBRANCH   1  12
BRANCH   8  34
HETATM   34  C11 UNL     1       4.020  20.208  82.320  1.00  0.00     0.188 C 
BRANCH  34  35
HETATM   35  C12 UNL     1       3.557  21.112  81.146  1.00  0.00     0.177 C 
BRANCH  35  36
HETATM   36  O5  UNL     1       4.782  21.971  81.112  1.00  0.00    -0.389 OA
ATOM     37  H5  UNL     1       4.559  22.436  80.315  1.00  0.00     0.210 HD
ENDBRANCH  35  36
BRANCH  35  38
HETATM   38  C13 UNL     1       2.582  22.138  81.634  1.00  0.00     0.112 C 
BRANCH  38  39
HETATM   39  N5  UNL     1       1.207  21.954  81.404  1.00  0.00    -0.236 N 
HETATM   40  C14 UNL     1       0.891  21.238  80.277  1.00  0.00     0.260 A 
HETATM   41  O6  UNL     1       1.788  20.727  79.573  1.00  0.00    -0.267 OA
HETATM   42  C15 UNL     1      -0.402  21.056  79.890  1.00  0.00     0.140 A 
HETATM   43  C16 UNL     1      -1.439  21.598  80.626  1.00  0.00     0.215 A 
HETATM   44  O11 UNL     1      -1.084  22.273  81.688  1.00  0.00    -0.236 OA
HETATM   45  C17 UNL     1       0.182  22.455  82.078  1.00  0.00     0.380 A 
HETATM   46  O12 UNL     1       0.330  23.123  83.103  1.00  0.00    -0.237 OA
BRANCH  43  47
HETATM   47  O7  UNL     1      -2.750  21.446  80.278  1.00  0.00    -0.188 OA
BRANCH  47  48
HETATM   48  S3  UNL     1      -3.507  22.688  79.424  1.00  0.00     0.258 S 
HETATM   49  O8  UNL     1      -5.013  22.625  79.555  1.00  0.00    -0.572 OA
HETATM   50  O9  UNL     1      -3.220  22.412  77.940  1.00  0.00    -0.572 OA
HETATM   51  O10 UNL     1      -2.935  24.191  79.815  1.00  0.00    -0.572 OA
ENDBRANCH  47  48
ENDBRANCH  43  47
ENDBRANCH  38  39
ENDBRANCH  35  38
ENDBRANCH  34  35
ENDBRANCH   8  34
TORSDOF 13
ENDMDL
MODEL 2
REMARK VINA RESULT: -9.724915453      0.983      1.554
REMARK  13 active torsions:
REMARK  status: ('A' for Active; 'I' for Inactive)
REMARK    1  A    between atoms: S1_2  and  C2_5 
REMARK    2  A    between atoms: C4_12  and  C5_13 
REMARK    3  A    between atoms: C5_13  and  S2_14 
REMARK    4  A    between atoms: S2_14  and  C6_17 
REMARK    5  A    between atoms: N4_24  and  C11_25 
REMARK    6  A    between atoms: C11_25  and  C12_26 
REMARK    7  A    between atoms: C12_26  and  O5_27 
REMARK    8  A    between atoms: C12_26  and  C13_29 
REMARK    9  A    between atoms: C13_29  and  N5_30 
REMARK   10  A    between atoms: C16_34  and  O7_35 
REMARK   11  A    between atoms: O7_35  and  S3_36 
REMARK   12  A    between atoms: C20_47  and  N7_48 
REMARK   13  A    between atoms: N7_48  and  O13_50 
ROOT
HETATM    1  C6  UNL     1       3.759  17.664  85.100  1.00  0.00     0.130 A 
HETATM    2  C7  UNL     1       3.136  16.421  84.858  1.00  0.00     0.043 A 
HETATM    3  C8  UNL     1       2.671  16.117  83.621  1.00  0.00     0.020 A 
HETATM    4  C9  UNL     1       2.822  17.049  82.597  1.00  0.00     0.026 A 
HETATM    5  C10 UNL     1       2.431  17.145  81.289  1.00  0.00     0.122 A 
HETATM    6  N3  UNL     1       2.810  18.370  80.814  1.00  0.00    -0.307 N 
ATOM      7  H3  UNL     1       2.632  18.703  79.866  1.00  0.00     0.186 HD
HETATM    8  N4  UNL     1       3.421  19.044  81.725  1.00  0.00    -0.273 N 
HETATM    9  C18 UNL     1       3.446  18.245  82.871  1.00  0.00     0.135 A 
HETATM   10  N6  UNL     1       3.894  18.521  84.091  1.00  0.00    -0.331 N 
ATOM     11  H6  UNL     1       4.354  19.415  84.259  1.00  0.00     0.168 HD
ENDROOT
BRANCH   1  12
HETATM   12  S2  UNL     1       4.161  17.970  86.721  1.00  0.00     0.195 S 
HETATM   13  O3  UNL     1       2.792  17.693  87.508  1.00  0.00    -0.221 OA
HETATM   14  O4  UNL     1       4.489  19.358  87.082  1.00  0.00    -0.221 OA
BRANCH  12  15
HETATM   15  C5  UNL     1       5.225  16.721  87.452  1.00  0.00     0.189 C 
BRANCH  15  16
HETATM   16  C4  UNL     1       6.532  17.059  86.813  1.00  0.00     0.002 A 
HETATM   17  C3  UNL     1       7.549  17.794  87.217  1.00  0.00     0.107 A 
HETATM   18  N1  UNL     1       8.742  17.762  86.570  1.00  0.00    -0.331 N 
HETATM   19  N2  UNL     1       7.383  18.568  88.250  1.00  0.00    -0.385 N 
HETATM   20  C2  UNL     1       8.936  16.966  85.480  1.00  0.00     0.158 A 
ATOM     21  H1  UNL     1       9.509  18.344  86.906  1.00  0.00     0.168 HD
HETATM   22  C20 UNL     1       7.937  16.167  85.004  1.00  0.00     0.093 A 
HETATM   23  C19 UNL     1       6.740  16.217  85.668  1.00  0.00     0.046 A 
ATOM     24  H22 UNL     1       8.170  19.136  88.563  1.00  0.00     0.157 HD
ATOM     25  H21 UNL     1       6.487  18.592  88.736  1.00  0.00     0.157 HD
BRANCH  20  26
HETATM   26  S1  UNL     1      10.488  17.004  84.682  1.00  0.00     0.189 S 
HETATM   27  C1  UNL     1      11.713  17.772  85.726  1.00  0.00     0.168 C 
HETATM   28  O1  UNL     1      10.978  15.568  84.493  1.00  0.00    -0.221 OA
HETATM   29  O2  UNL     1      10.392  17.645  83.364  1.00  0.00    -0.221 OA
ENDBRANCH  20  26
BRANCH  22  30
HETATM   30  N7  UNL     1       8.133  15.293  83.904  1.00  0.00    -0.266 N 
ATOM     31  H7  UNL     1       9.003  15.275  83.371  1.00  0.00     0.194 HD
BRANCH  30  32
HETATM   32  O13 UNL     1       7.084  14.478  83.609  1.00  0.00    -0.289 OA
ATOM     33  H13 UNL     1       7.304  13.679  83.146  1.00  0.00     0.244 HD
ENDBRANCH  30  32
ENDBRANCH  22  30
ENDBRANCH  15  16
ENDBRANCH  12  15
ENDBRANCH   1  12
BRANCH   8  34
HETATM   34  C11 UNL     1       4.189  20.271  81.710  1.00  0.00     0.188 C 
BRANCH  34  35
HETATM   35  C12 UNL     1       3.303  21.310  80.973  1.00  0.00     0.177 C 
BRANCH  35  36
HETATM   36  O5  UNL     1       4.193  22.487  81.224  1.00  0.00    -0.389 OA
ATOM     37  H5  UNL     1       3.519  23.048  81.592  1.00  0.00     0.210 HD
ENDBRANCH  35  36
BRANCH  35  38
HETATM   38  C13 UNL     1       2.150  21.716  81.837  1.00  0.00     0.112 C 
BRANCH  38  39
HETATM   39  N5  UNL     1       0.850  21.724  81.301  1.00  0.00    -0.236 N 
HETATM   40  C14 UNL     1      -0.070  22.459  82.006  1.00  0.00     0.260 A 
HETATM   41  O6  UNL     1       0.276  23.133  83.000  1.00  0.00    -0.267 OA
HETATM   42  C15 UNL     1      -1.384  22.487  81.646  1.00  0.00     0.140 A 
HETATM   43  C16 UNL     1      -1.829  21.761  80.557  1.00  0.00     0.215 A 
HETATM   44  O11 UNL     1      -0.914  21.075  79.923  1.00  0.00    -0.236 OA
HETATM   45  C17 UNL     1       0.378  21.045  80.266  1.00  0.00     0.380 A 
HETATM   46  O12 UNL     1       1.098  20.340  79.556  1.00  0.00    -0.237 OA
BRANCH  43  47
HETATM   47  O7  UNL     1      -3.135  21.754  80.159  1.00  0.00    -0.188 OA
BRANCH  47  48
HETATM   48  S3  UNL     1      -4.006  23.197  80.224  1.00  0.00     0.258 S 
HETATM   49  O8  UNL     1      -5.195  23.180  79.288  1.00  0.00    -0.572 OA
HETATM   50  O9  UNL     1      -3.069  24.278  79.664  1.00  0.00    -0.572 OA
HETATM   51  O10 UNL     1      -4.460  23.616  81.759  1.00  0.00    -0.572 OA
ENDBRANCH  47  48
ENDBRANCH  43  47
ENDBRANCH  38  39
ENDBRANCH  35  38
ENDBRANCH  34  35
ENDBRANCH   8  34
TORSDOF 13
ENDMDL
MODEL 3
REMARK VINA RESULT: -9.567716517      1.778      2.205
REMARK  13 active torsions:
REMARK  status: ('A' for Active; 'I' for Inactive)
REMARK    1  A    between atoms: S1_2  and  C2_5 
REMARK    2  A    between atoms: C4_12  and  C5_13 
REMARK    3  A    between atoms: C5_13  and  S2_14 
REMARK    4  A    between atoms: S2_14  and  C6_17 
REMARK    5  A    between atoms: N4_24  and  C11_25 
REMARK    6  A    between atoms: C11_25  and  C12_26 
REMARK    7  A    between atoms: C12_26  and  O5_27 
REMARK    8  A    between atoms: C12_26  and  C13_29 
REMARK    9  A    between atoms: C13_29  and  N5_30 
REMARK   10  A    between atoms: C16_34  and  O7_35 
REMARK   11  A    between atoms: O7_35  and  S3_36 
REMARK   12  A    between atoms: C20_47  and  N7_48 
REMARK   13  A    between atoms: N7_48  and  O13_50 
ROOT
HETATM    1  C6  UNL     1       4.528  17.310  86.365  1.00  0.00     0.130 A 
HETATM    2  C7  UNL     1       3.627  16.372  86.914  1.00  0.00     0.043 A 
HETATM    3  C8  UNL     1       2.552  15.956  86.200  1.00  0.00     0.020 A 
HETATM    4  C9  UNL     1       2.355  16.467  84.920  1.00  0.00     0.026 A 
HETATM    5  C10 UNL     1       1.389  16.360  83.956  1.00  0.00     0.122 A 
HETATM    6  N3  UNL     1       1.720  17.189  82.920  1.00  0.00    -0.307 N 
ATOM      7  H3  UNL     1       1.163  17.308  82.074  1.00  0.00     0.186 HD
HETATM    8  N4  UNL     1       2.830  17.797  83.157  1.00  0.00    -0.273 N 
HETATM    9  C18 UNL     1       3.263  17.371  84.415  1.00  0.00     0.135 A 
HETATM   10  N6  UNL     1       4.309  17.764  85.133  1.00  0.00    -0.331 N 
ATOM     11  H6  UNL     1       4.964  18.433  84.729  1.00  0.00     0.168 HD
ENDROOT
BRANCH   1  12
HETATM   12  S2  UNL     1       5.744  17.850  87.420  1.00  0.00     0.195 S 
HETATM   13  O3  UNL     1       4.995  17.962  88.833  1.00  0.00    -0.221 OA
HETATM   14  O4  UNL     1       6.267  19.208  87.203  1.00  0.00    -0.221 OA
BRANCH  12  15
HETATM   15  C5  UNL     1       6.983  16.607  87.796  1.00  0.00     0.189 C 
BRANCH  15  16
HETATM   16  C4  UNL     1       8.100  17.049  86.907  1.00  0.00     0.002 A 
HETATM   17  C3  UNL     1       9.175  17.776  87.134  1.00  0.00     0.107 A 
HETATM   18  N1  UNL     1      10.183  17.846  86.228  1.00  0.00    -0.331 N 
HETATM   19  N2  UNL     1       9.248  18.443  88.250  1.00  0.00    -0.385 N 
HETATM   20  C2  UNL     1      10.124  17.164  85.049  1.00  0.00     0.158 A 
ATOM     21  H1  UNL     1      11.000  18.421  86.432  1.00  0.00     0.168 HD
HETATM   22  C20 UNL     1       9.050  16.380  84.741  1.00  0.00     0.093 A 
HETATM   23  C19 UNL     1       8.043  16.326  85.667  1.00  0.00     0.046 A 
ATOM     24  H22 UNL     1      10.080  19.006  88.426  1.00  0.00     0.157 HD
ATOM     25  H21 UNL     1       8.490  18.391  88.931  1.00  0.00     0.157 HD
BRANCH  20  26
HETATM   26  S1  UNL     1      11.444  17.331  83.919  1.00  0.00     0.189 S 
HETATM   27  C1  UNL     1      12.894  17.972  84.737  1.00  0.00     0.168 C 
HETATM   28  O1  UNL     1      11.851  15.939  83.432  1.00  0.00    -0.221 OA
HETATM   29  O2  UNL     1      11.051  18.139  82.757  1.00  0.00    -0.221 OA
ENDBRANCH  20  26
BRANCH  22  30
HETATM   30  N7  UNL     1       8.992  15.620  83.544  1.00  0.00    -0.266 N 
ATOM     31  H7  UNL     1       9.728  15.659  82.839  1.00  0.00     0.194 HD
BRANCH  30  32
HETATM   32  O13 UNL     1       7.890  14.835  83.402  1.00  0.00    -0.289 OA
ATOM     33  H13 UNL     1       7.275  15.112  82.733  1.00  0.00     0.244 HD
ENDBRANCH  30  32
ENDBRANCH  22  30
ENDBRANCH  15  16
ENDBRANCH  12  15
ENDBRANCH   1  12
BRANCH   8  34
HETATM   34  C11 UNL     1       3.720  18.600  82.346  1.00  0.00     0.188 C 
BRANCH  34  35
HETATM   35  C12 UNL     1       2.829  19.220  81.236  1.00  0.00     0.177 C 
BRANCH  35  36
HETATM   36  O5  UNL     1       3.912  20.027  80.592  1.00  0.00    -0.389 OA
ATOM     37  H5  UNL     1       3.519  20.876  80.757  1.00  0.00     0.210 HD
ENDBRANCH  35  36
BRANCH  35  38
HETATM   38  C13 UNL     1       2.015  20.347  81.792  1.00  0.00     0.112 C 
BRANCH  38  39
HETATM   39  N5  UNL     1       0.851  20.762  81.120  1.00  0.00    -0.236 N 
HETATM   40  C14 UNL     1      -0.326  20.285  81.639  1.00  0.00     0.260 A 
HETATM   41  O6  UNL     1      -0.334  19.604  82.686  1.00  0.00    -0.267 OA
HETATM   42  C15 UNL     1      -1.522  20.540  81.038  1.00  0.00     0.140 A 
HETATM   43  C16 UNL     1      -1.579  21.286  79.875  1.00  0.00     0.215 A 
HETATM   44  O11 UNL     1      -0.429  21.713  79.421  1.00  0.00    -0.236 OA
HETATM   45  C17 UNL     1       0.749  21.471  80.006  1.00  0.00     0.380 A 
HETATM   46  O12 UNL     1       1.732  21.948  79.435  1.00  0.00    -0.237 OA
BRANCH  43  47
HETATM   47  O7  UNL     1      -2.751  21.566  79.234  1.00  0.00    -0.188 OA
BRANCH  47  48
HETATM   48  S3  UNL     1      -3.694  22.846  79.800  1.00  0.00     0.258 S 
HETATM   49  O8  UNL     1      -4.891  23.100  78.909  1.00  0.00    -0.572 OA
HETATM   50  O9  UNL     1      -2.819  24.102  79.665  1.00  0.00    -0.572 OA
HETATM   51  O10 UNL     1      -4.150  22.672  81.381  1.00  0.00    -0.572 OA
ENDBRANCH  47  48
ENDBRANCH  43  47
ENDBRANCH  38  39
ENDBRANCH  35  38
ENDBRANCH  34  35
ENDBRANCH   8  34
TORSDOF 13
ENDMDL
MODEL 4
REMARK VINA RESULT: -9.559404987      2.249      4.354
REMARK  13 active torsions:
REMARK  status: ('A' for Active; 'I' for Inactive)
REMARK    1  A    between atoms: S1_2  and  C2_5 
REMARK    2  A    between atoms: C4_12  and  C5_13 
REMARK    3  A    between atoms: C5_13  and  S2_14 
REMARK    4  A    between atoms: S2_14  and  C6_17 
REMARK    5  A    between atoms: N4_24  and  C11_25 
REMARK    6  A    between atoms: C11_25  and  C12_26 
REMARK    7  A    between atoms: C12_26  and  O5_27 
REMARK    8  A    between atoms: C12_26  and  C13_29 
REMARK    9  A    between atoms: C13_29  and  N5_30 
REMARK   10  A    between atoms: C16_34  and  O7_35 
REMARK   11  A    between atoms: O7_35  and  S3_36 
REMARK   12  A    between atoms: C20_47  and  N7_48 
REMARK   13  A    between atoms: N7_48  and  O13_50 
ROOT
HETATM    1  C6  UNL     1       5.745  16.373  85.343  1.00  0.00     0.130 A 
HETATM    2  C7  UNL     1       4.983  15.667  86.298  1.00  0.00     0.043 A 
HETATM    3  C8  UNL     1       3.630  15.649  86.220  1.00  0.00     0.020 A 
HETATM    4  C9  UNL     1       3.007  16.337  85.181  1.00  0.00     0.026 A 
HETATM    5  C10 UNL     1       1.716  16.614  84.820  1.00  0.00     0.122 A 
HETATM    6  N3  UNL     1       1.741  17.430  83.723  1.00  0.00    -0.307 N 
ATOM      7  H3  UNL     1       0.911  17.795  83.254  1.00  0.00     0.186 HD
HETATM    8  N4  UNL     1       2.952  17.674  83.361  1.00  0.00    -0.273 N 
HETATM    9  C18 UNL     1       3.785  17.004  84.262  1.00  0.00     0.135 A 
HETATM   10  N6  UNL     1       5.110  17.007  84.359  1.00  0.00    -0.331 N 
ATOM     11  H6  UNL     1       5.657  17.508  83.660  1.00  0.00     0.168 HD
ENDROOT
BRANCH   1  12
HETATM   12  S2  UNL     1       7.414  16.430  85.644  1.00  0.00     0.195 S 
HETATM   13  O3  UNL     1       8.056  16.582  84.183  1.00  0.00    -0.221 OA
HETATM   14  O4  UNL     1       8.045  15.209  86.169  1.00  0.00    -0.221 OA
BRANCH  12  15
HETATM   15  C5  UNL     1       7.962  17.959  86.410  1.00  0.00     0.189 C 
BRANCH  15  16
HETATM   16  C4  UNL     1       7.177  17.931  87.681  1.00  0.00     0.002 A 
HETATM   17  C3  UNL     1       7.424  17.397  88.860  1.00  0.00     0.107 A 
HETATM   18  N1  UNL     1       6.671  17.708  89.946  1.00  0.00    -0.331 N 
HETATM   19  N2  UNL     1       8.404  16.548  88.963  1.00  0.00    -0.385 N 
HETATM   20  C2  UNL     1       5.632  18.587  89.860  1.00  0.00     0.158 A 
ATOM     21  H1  UNL     1       6.886  17.275  90.844  1.00  0.00     0.168 HD
HETATM   22  C20 UNL     1       5.317  19.192  88.678  1.00  0.00     0.093 A 
HETATM   23  C19 UNL     1       6.086  18.862  87.594  1.00  0.00     0.046 A 
ATOM     24  H22 UNL     1       8.596  16.134  89.875  1.00  0.00     0.157 HD
ATOM     25  H21 UNL     1       8.970  16.314  88.146  1.00  0.00     0.157 HD
BRANCH  20  26
HETATM   26  S1  UNL     1       4.690  18.912  91.293  1.00  0.00     0.189 S 
HETATM   27  C1  UNL     1       3.171  17.975  91.271  1.00  0.00     0.168 C 
HETATM   28  O1  UNL     1       5.454  18.391  92.511  1.00  0.00    -0.221 OA
HETATM   29  O2  UNL     1       4.458  20.352  91.463  1.00  0.00    -0.221 OA
ENDBRANCH  20  26
BRANCH  22  30
HETATM   30  N7  UNL     1       4.275  20.150  88.578  1.00  0.00    -0.266 N 
ATOM     31  H7  UNL     1       3.300  19.882  88.450  1.00  0.00     0.194 HD
BRANCH  30  32
HETATM   32  O13 UNL     1       4.666  21.451  88.665  1.00  0.00    -0.289 OA
ATOM     33  H13 UNL     1       5.532  21.595  89.025  1.00  0.00     0.244 HD
ENDBRANCH  30  32
ENDBRANCH  22  30
ENDBRANCH  15  16
ENDBRANCH  12  15
ENDBRANCH   1  12
BRANCH   8  34
HETATM   34  C11 UNL     1       3.539  18.285  82.187  1.00  0.00     0.188 C 
BRANCH  34  35
HETATM   35  C12 UNL     1       2.342  18.700  81.291  1.00  0.00     0.177 C 
BRANCH  35  36
HETATM   36  O5  UNL     1       3.161  19.089  80.100  1.00  0.00    -0.389 OA
ATOM     37  H5  UNL     1       2.539  19.716  79.748  1.00  0.00     0.210 HD
ENDBRANCH  35  36
BRANCH  35  38
HETATM   38  C13 UNL     1       1.853  20.062  81.676  1.00  0.00     0.112 C 
BRANCH  38  39
HETATM   39  N5  UNL     1       0.694  20.581  81.070  1.00  0.00    -0.236 N 
HETATM   40  C14 UNL     1      -0.491  20.184  81.637  1.00  0.00     0.260 A 
HETATM   41  O6  UNL     1      -0.502  19.481  82.670  1.00  0.00    -0.267 OA
HETATM   42  C15 UNL     1      -1.690  20.545  81.101  1.00  0.00     0.140 A 
HETATM   43  C16 UNL     1      -1.744  21.320  79.958  1.00  0.00     0.215 A 
HETATM   44  O11 UNL     1      -0.588  21.667  79.456  1.00  0.00    -0.236 OA
HETATM   45  C17 UNL     1       0.594  21.322  79.976  1.00  0.00     0.380 A 
HETATM   46  O12 UNL     1       1.583  21.736  79.367  1.00  0.00    -0.237 OA
BRANCH  43  47
HETATM   47  O7  UNL     1      -2.920  21.705  79.381  1.00  0.00    -0.188 OA
BRANCH  47  48
HETATM   48  S3  UNL     1      -3.683  23.095  79.956  1.00  0.00     0.258 S 
HETATM   49  O8  UNL     1      -4.874  23.478  79.103  1.00  0.00    -0.572 OA
HETATM   50  O9  UNL     1      -2.671  24.236  79.770  1.00  0.00    -0.572 OA
HETATM   51  O10 UNL     1      -4.100  22.997  81.555  1.00  0.00    -0.572 OA
ENDBRANCH  47  48
ENDBRANCH  43  47
ENDBRANCH  38  39
ENDBRANCH  35  38
ENDBRANCH  34  35
ENDBRANCH   8  34
TORSDOF 13
ENDMDL
MODEL 5
REMARK VINA RESULT: -9.419078294      2.186      4.355
REMARK  13 active torsions:
REMARK  status: ('A' for Active; 'I' for Inactive)
REMARK    1  A    between atoms: S1_2  and  C2_5 
REMARK    2  A    between atoms: C4_12  and  C5_13 
REMARK    3  A    between atoms: C5_13  and  S2_14 
REMARK    4  A    between atoms: S2_14  and  C6_17 
REMARK    5  A    between atoms: N4_24  and  C11_25 
REMARK    6  A    between atoms: C11_25  and  C12_26 
REMARK    7  A    between atoms: C12_26  and  O5_27 
REMARK    8  A    between atoms: C12_26  and  C13_29 
REMARK    9  A    between atoms: C13_29  and  N5_30 
REMARK   10  A    between atoms: C16_34  and  O7_35 
REMARK   11  A    between atoms: O7_35  and  S3_36 
REMARK   12  A    between atoms: C20_47  and  N7_48 
REMARK   13  A    between atoms: N7_48  and  O13_50 
ROOT
HETATM    1  C6  UNL     1       5.852  16.363  85.397  1.00  0.00     0.130 A 
HETATM    2  C7  UNL     1       5.097  15.585  86.301  1.00  0.00     0.043 A 
HETATM    3  C8  UNL     1       3.744  15.552  86.213  1.00  0.00     0.020 A 
HETATM    4  C9  UNL     1       3.116  16.295  85.217  1.00  0.00     0.026 A 
HETATM    5  C10 UNL     1       1.822  16.574  84.866  1.00  0.00     0.122 A 
HETATM    6  N3  UNL     1       1.840  17.459  83.824  1.00  0.00    -0.307 N 
ATOM      7  H3  UNL     1       1.007  17.840  83.374  1.00  0.00     0.186 HD
HETATM    8  N4  UNL     1       3.049  17.745  83.487  1.00  0.00    -0.273 N 
HETATM    9  C18 UNL     1       3.887  17.032  84.347  1.00  0.00     0.135 A 
HETATM   10  N6  UNL     1       5.212  17.049  84.452  1.00  0.00    -0.331 N 
ATOM     11  H6  UNL     1       5.755  17.603  83.790  1.00  0.00     0.168 HD
ENDROOT
BRANCH   1  12
HETATM   12  S2  UNL     1       7.518  16.427  85.712  1.00  0.00     0.195 S 
HETATM   13  O3  UNL     1       8.168  16.638  84.262  1.00  0.00    -0.221 OA
HETATM   14  O4  UNL     1       8.159  15.194  86.197  1.00  0.00    -0.221 OA
BRANCH  12  15
HETATM   15  C5  UNL     1       8.044  17.933  86.537  1.00  0.00     0.189 C 
BRANCH  15  16
HETATM   16  C4  UNL     1       7.190  17.892  87.762  1.00  0.00     0.002 A 
HETATM   17  C3  UNL     1       7.361  17.328  88.941  1.00  0.00     0.107 A 
HETATM   18  N1  UNL     1       6.555  17.630  89.990  1.00  0.00    -0.331 N 
HETATM   19  N2  UNL     1       8.319  16.458  89.078  1.00  0.00    -0.385 N 
HETATM   20  C2  UNL     1       5.539  18.532  89.868  1.00  0.00     0.158 A 
ATOM     21  H1  UNL     1       6.713  17.174  90.889  1.00  0.00     0.168 HD
HETATM   22  C20 UNL     1       5.301  19.168  88.684  1.00  0.00     0.093 A 
HETATM   23  C19 UNL     1       6.123  18.846  87.636  1.00  0.00     0.046 A 
ATOM     24  H22 UNL     1       8.452  16.021  89.990  1.00  0.00     0.157 HD
ATOM     25  H21 UNL     1       8.924  16.231  88.289  1.00  0.00     0.157 HD
BRANCH  20  26
HETATM   26  S1  UNL     1       4.525  18.843  91.253  1.00  0.00     0.189 S 
HETATM   27  C1  UNL     1       5.148  17.991  92.692  1.00  0.00     0.168 C 
HETATM   28  O1  UNL     1       4.619  20.328  91.606  1.00  0.00    -0.221 OA
HETATM   29  O2  UNL     1       3.122  18.514  90.970  1.00  0.00    -0.221 OA
ENDBRANCH  20  26
BRANCH  22  30
HETATM   30  N7  UNL     1       4.284  20.148  88.548  1.00  0.00    -0.266 N 
ATOM     31  H7  UNL     1       3.324  19.905  88.303  1.00  0.00     0.194 HD
BRANCH  30  32
HETATM   32  O13 UNL     1       4.676  21.433  88.767  1.00  0.00    -0.289 OA
ATOM     33  H13 UNL     1       4.113  22.101  88.395  1.00  0.00     0.244 HD
ENDBRANCH  30  32
ENDBRANCH  22  30
ENDBRANCH  15  16
ENDBRANCH  12  15
ENDBRANCH   1  12
BRANCH   8  34
HETATM   34  C11 UNL     1       3.632  18.439  82.358  1.00  0.00     0.188 C 
BRANCH  34  35
HETATM   35  C12 UNL     1       2.457  18.705  81.379  1.00  0.00     0.177 C 
BRANCH  35  36
HETATM   36  O5  UNL     1       3.308  19.033  80.192  1.00  0.00    -0.389 OA
ATOM     37  H5  UNL     1       2.594  19.088  79.567  1.00  0.00     0.210 HD
ENDBRANCH  35  36
BRANCH  35  38
HETATM   38  C13 UNL     1       1.880  20.066  81.619  1.00  0.00     0.112 C 
BRANCH  38  39
HETATM   39  N5  UNL     1       0.561  20.342  81.214  1.00  0.00    -0.236 N 
HETATM   40  C14 UNL     1       0.443  21.127  80.095  1.00  0.00     0.260 A 
HETATM   41  O6  UNL     1       1.456  21.484  79.455  1.00  0.00    -0.267 OA
HETATM   42  C15 UNL     1      -0.773  21.540  79.641  1.00  0.00     0.140 A 
HETATM   43  C16 UNL     1      -1.930  21.181  80.307  1.00  0.00     0.215 A 
HETATM   44  O11 UNL     1      -1.762  20.435  81.369  1.00  0.00    -0.236 OA
HETATM   45  C17 UNL     1      -0.573  20.022  81.820  1.00  0.00     0.380 A 
HETATM   46  O12 UNL     1      -0.605  19.329  82.838  1.00  0.00    -0.237 OA
BRANCH  43  47
HETATM   47  O7  UNL     1      -3.171  21.571  79.894  1.00  0.00    -0.188 OA
BRANCH  47  48
HETATM   48  S3  UNL     1      -3.666  23.152  80.213  1.00  0.00     0.258 S 
HETATM   49  O8  UNL     1      -2.780  24.169  79.525  1.00  0.00    -0.572 OA
HETATM   50  O9  UNL     1      -3.434  23.369  81.716  1.00  0.00    -0.572 OA
HETATM   51  O10 UNL     1      -5.262  23.418  79.867  1.00  0.00    -0.572 OA
ENDBRANCH  47  48
ENDBRANCH  43  47
ENDBRANCH  38  39
ENDBRANCH  35  38
ENDBRANCH  34  35
ENDBRANCH   8  34
TORSDOF 13
ENDMDL
