MODEL 1
REMARK VINA RESULT: -7.443082830      0.000      0.000
REMARK  19 active torsions:
REMARK  status: ('A' for Active; 'I' for Inactive)
REMARK    1  A    between atoms: C3_3  and  C5_5 
REMARK    2  A    between atoms: C5_5  and  O2_7 
REMARK    3  A    between atoms: O2_7  and  C6_8 
REMARK    4  A    between atoms: C6_8  and  C7_9 
REMARK    5  A    between atoms: C6_8  and  S1_26 
REMARK    6  A    between atoms: C7_9  and  C8_10 
REMARK    7  A    between atoms: C7_9  and  O5_22 
REMARK    8  A    between atoms: N1_11  and  N2_13 
REMARK       I    between atoms: N2_13  and  C9_15 
REMARK    9  A    between atoms: C9_15  and  O4_17 
REMARK   10  A    between atoms: O4_17  and  C10_18 
REMARK   11  A    between atoms: O5_22  and  C14_23 
REMARK   12  A    between atoms: S1_26  and  N3_29 
REMARK   13  A    between atoms: N3_29  and  C16_31 
REMARK   14  A    between atoms: C16_31  and  C17_32 
REMARK   15  A    between atoms: C17_32  and  O9_33 
REMARK   16  A    between atoms: N4_36  and  O10_38 
REMARK   17  A    between atoms: O10_38  and  C19_39 
REMARK   18  A    between atoms: C20_45  and  S2_46 
REMARK   19  A    between atoms: C22_50  and  O14_51 
ROOT
HETATM    1  S1  UNL     1       4.063  15.705  87.440  1.00  0.00     0.258 S 
HETATM    2  O7  UNL     1       2.913  15.266  86.505  1.00  0.00    -0.203 OA
HETATM    3  O8  UNL     1       4.552  14.329  87.949  1.00  0.00    -0.203 OA
ENDROOT
BRANCH   1   4
HETATM    4  C6  UNL     1       5.329  16.442  86.452  1.00  0.00     0.308 C 
BRANCH   4   5
HETATM    5  O2  UNL     1       6.642  16.187  86.917  1.00  0.00    -0.292 OA
BRANCH   5   6
HETATM    6  C5  UNL     1       7.514  17.142  87.344  1.00  0.00     0.290 C 
HETATM    7  O1  UNL     1       7.071  17.962  88.207  1.00  0.00    -0.260 OA
BRANCH   6   8
HETATM    8  C3  UNL     1       8.887  17.334  86.928  1.00  0.00     0.009 C 
HETATM    9  C2  UNL     1       9.232  18.470  86.348  1.00  0.00    -0.018 C 
HETATM   10  C1  UNL     1      10.603  18.789  85.893  1.00  0.00     0.036 C 
HETATM   11  C4  UNL     1       9.907  16.269  87.166  1.00  0.00     0.054 C 
ENDBRANCH   6   8
ENDBRANCH   5   6
ENDBRANCH   4   5
BRANCH   4  12
HETATM   12  C7  UNL     1       5.127  16.320  84.983  1.00  0.00     0.218 C 
BRANCH  12  13
HETATM   13  C8  UNL     1       4.281  17.485  84.484  1.00  0.00     0.116 C 
HETATM   14  N1  UNL     1       4.456  17.855  83.303  1.00  0.00    -0.309 N 
ATOM     15  H1  UNL     1       5.168  17.287  82.843  1.00  0.00     0.185 HD
BRANCH  14  16
HETATM   16  N2  UNL     1       3.971  18.789  82.466  1.00  0.00    -0.246 N 
HETATM   17  C9  UNL     1       2.840  18.596  81.639  1.00  0.00     0.380 C 
HETATM   18  O3  UNL     1       2.222  17.510  81.653  1.00  0.00    -0.237 OA
ATOM     19  H2  UNL     1       4.446  19.691  82.427  1.00  0.00     0.192 HD
BRANCH  17  20
HETATM   20  O4  UNL     1       2.403  19.582  80.811  1.00  0.00    -0.293 OA
BRANCH  20  21
HETATM   21  C10 UNL     1       1.496  20.600  81.086  1.00  0.00     0.061 C 
HETATM   22  C11 UNL     1       0.961  21.082  79.726  1.00  0.00     0.046 C 
HETATM   23  C12 UNL     1       2.107  21.813  81.734  1.00  0.00     0.046 C 
HETATM   24  C13 UNL     1       0.325  20.155  81.924  1.00  0.00     0.046 C 
ENDBRANCH  20  21
ENDBRANCH  17  20
ENDBRANCH  14  16
ENDBRANCH  12  13
BRANCH  12  25
HETATM   25  O5  UNL     1       6.400  16.527  84.337  1.00  0.00    -0.307 OA
BRANCH  25  26
HETATM   26  C14 UNL     1       7.053  15.443  83.740  1.00  0.00     0.255 C 
HETATM   27  C15 UNL     1       8.521  15.509  83.708  1.00  0.00     0.126 C 
HETATM   28  O6  UNL     1       6.338  14.524  83.293  1.00  0.00    -0.266 OA
ENDBRANCH  25  26
ENDBRANCH  12  25
ENDBRANCH   4  12
ENDBRANCH   1   4
BRANCH   1  29
HETATM   29  N3  UNL     1       3.544  16.556  88.742  1.00  0.00    -0.295 N 
ATOM     30  H3  UNL     1       4.270  17.086  89.223  1.00  0.00     0.173 HD
BRANCH  29  31
HETATM   31  C16 UNL     1       2.294  16.669  89.287  1.00  0.00     0.157 C 
HETATM   32  C18 UNL     1       1.460  17.533  88.337  1.00  0.00     0.174 C 
HETATM   33  N4  UNL     1       0.719  17.072  87.398  1.00  0.00    -0.237 N 
HETATM   34  O11 UNL     1       1.656  18.837  88.678  1.00  0.00    -0.312 OA
ATOM     35  H4  UNL     1       0.663  16.064  87.252  1.00  0.00     0.197 HD
HETATM   36  C20 UNL     1       1.841  18.916  90.089  1.00  0.00     0.283 C 
HETATM   37  C22 UNL     1       2.221  17.534  90.537  1.00  0.00     0.201 C 
BRANCH  31  38
HETATM   38  C17 UNL     1       1.491  15.420  89.426  1.00  0.00     0.207 C 
BRANCH  38  39
HETATM   39  O9  UNL     1       2.183  14.433  90.151  1.00  0.00    -0.398 OA
ATOM     40  H9  UNL     1       1.592  13.888  90.658  1.00  0.00     0.209 HD
ENDBRANCH  38  39
ENDBRANCH  31  38
BRANCH  33  41
HETATM   41  O10 UNL     1       0.001  17.911  86.586  1.00  0.00    -0.203 OA
BRANCH  41  42
HETATM   42  C19 UNL     1      -0.098  17.676  85.207  1.00  0.00     0.249 C 
HETATM   43  N5  UNL     1       0.877  16.955  84.705  1.00  0.00    -0.366 N 
ATOM     44  H52 UNL     1       1.624  16.617  85.311  1.00  0.00     0.159 HD
ATOM     45  H51 UNL     1       0.805  16.784  83.702  1.00  0.00     0.159 HD
HETATM   46  N6  UNL     1      -1.123  18.140  84.375  1.00  0.00    -0.055 NA
ENDBRANCH  41  42
ENDBRANCH  33  41
BRANCH  36  47
HETATM   47  S2  UNL     1       3.078  20.139  90.376  1.00  0.00     0.171 S 
HETATM   48  C21 UNL     1       3.880  19.967  91.936  1.00  0.00     0.164 C 
HETATM   49  O12 UNL     1       2.383  21.491  90.319  1.00  0.00    -0.226 OA
HETATM   50  O13 UNL     1       4.094  20.145  89.270  1.00  0.00    -0.226 OA
ENDBRANCH  36  47
BRANCH  37  51
HETATM   51  O14 UNL     1       1.321  17.092  91.467  1.00  0.00    -0.389 OA
ATOM     52  H14 UNL     1       1.516  16.230  91.816  1.00  0.00     0.210 HD
ENDBRANCH  37  51
ENDBRANCH  29  31
ENDBRANCH   1  29
TORSDOF 19
ENDMDL
MODEL 2
REMARK VINA RESULT: -7.328323881      4.334      7.604
REMARK  19 active torsions:
REMARK  status: ('A' for Active; 'I' for Inactive)
REMARK    1  A    between atoms: C3_3  and  C5_5 
REMARK    2  A    between atoms: C5_5  and  O2_7 
REMARK    3  A    between atoms: O2_7  and  C6_8 
REMARK    4  A    between atoms: C6_8  and  C7_9 
REMARK    5  A    between atoms: C6_8  and  S1_26 
REMARK    6  A    between atoms: C7_9  and  C8_10 
REMARK    7  A    between atoms: C7_9  and  O5_22 
REMARK    8  A    between atoms: N1_11  and  N2_13 
REMARK       I    between atoms: N2_13  and  C9_15 
REMARK    9  A    between atoms: C9_15  and  O4_17 
REMARK   10  A    between atoms: O4_17  and  C10_18 
REMARK   11  A    between atoms: O5_22  and  C14_23 
REMARK   12  A    between atoms: S1_26  and  N3_29 
REMARK   13  A    between atoms: N3_29  and  C16_31 
REMARK   14  A    between atoms: C16_31  and  C17_32 
REMARK   15  A    between atoms: C17_32  and  O9_33 
REMARK   16  A    between atoms: N4_36  and  O10_38 
REMARK   17  A    between atoms: O10_38  and  C19_39 
REMARK   18  A    between atoms: C20_45  and  S2_46 
REMARK   19  A    between atoms: C22_50  and  O14_51 
ROOT
HETATM    1  S1  UNL     1       8.646  17.620  86.725  1.00  0.00     0.258 S 
HETATM    2  O7  UNL     1       9.092  16.423  87.596  1.00  0.00    -0.203 OA
HETATM    3  O8  UNL     1       8.137  18.589  87.817  1.00  0.00    -0.203 OA
ENDROOT
BRANCH   1   4
HETATM    4  C6  UNL     1      10.080  18.311  85.958  1.00  0.00     0.308 C 
BRANCH   4   5
HETATM    5  O2  UNL     1      11.208  18.384  86.811  1.00  0.00    -0.292 OA
BRANCH   5   6
HETATM    6  C5  UNL     1      11.578  19.489  87.516  1.00  0.00     0.290 C 
HETATM    7  O1  UNL     1      11.319  19.475  88.760  1.00  0.00    -0.260 OA
BRANCH   6   8
HETATM    8  C3  UNL     1      12.231  20.680  87.014  1.00  0.00     0.009 C 
HETATM    9  C2  UNL     1      11.514  21.773  86.814  1.00  0.00    -0.018 C 
HETATM   10  C1  UNL     1      12.068  23.052  86.320  1.00  0.00     0.036 C 
HETATM   11  C4  UNL     1      13.699  20.680  86.740  1.00  0.00     0.054 C 
ENDBRANCH   6   8
ENDBRANCH   5   6
ENDBRANCH   4   5
BRANCH   4  12
HETATM   12  C7  UNL     1      10.344  17.829  84.576  1.00  0.00     0.218 C 
BRANCH  12  13
HETATM   13  C8  UNL     1      11.662  18.408  84.075  1.00  0.00     0.116 C 
HETATM   14  N1  UNL     1      12.715  17.877  84.490  1.00  0.00    -0.309 N 
ATOM     15  H1  UNL     1      12.510  17.104  85.123  1.00  0.00     0.185 HD
BRANCH  14  16
HETATM   16  N2  UNL     1      14.041  18.037  84.338  1.00  0.00    -0.246 N 
HETATM   17  C9  UNL     1      14.728  17.811  83.123  1.00  0.00     0.380 C 
HETATM   18  O3  UNL     1      14.108  17.442  82.102  1.00  0.00    -0.237 OA
ATOM     19  H2  UNL     1      14.584  18.339  85.148  1.00  0.00     0.192 HD
BRANCH  17  20
HETATM   20  O4  UNL     1      16.074  17.987  83.037  1.00  0.00    -0.293 OA
BRANCH  20  21
HETATM   21  C10 UNL     1      16.789  19.180  83.025  1.00  0.00     0.061 C 
HETATM   22  C11 UNL     1      18.232  18.824  83.421  1.00  0.00     0.046 C 
HETATM   23  C12 UNL     1      16.326  20.187  84.042  1.00  0.00     0.046 C 
HETATM   24  C13 UNL     1      16.820  19.850  81.675  1.00  0.00     0.046 C 
ENDBRANCH  20  21
ENDBRANCH  17  20
ENDBRANCH  14  16
ENDBRANCH  12  13
BRANCH  12  25
HETATM   25  O5  UNL     1      10.601  16.411  84.636  1.00  0.00    -0.307 OA
BRANCH  25  26
HETATM   26  C14 UNL     1      10.148  15.585  83.602  1.00  0.00     0.255 C 
HETATM   27  C15 UNL     1      11.184  14.874  82.838  1.00  0.00     0.126 C 
HETATM   28  O6  UNL     1       8.916  15.524  83.421  1.00  0.00    -0.266 OA
ENDBRANCH  25  26
ENDBRANCH  12  25
ENDBRANCH   4  12
ENDBRANCH   1   4
BRANCH   1  29
HETATM   29  N3  UNL     1       7.377  17.267  85.749  1.00  0.00    -0.295 N 
ATOM     30  H3  UNL     1       7.278  17.878  84.938  1.00  0.00     0.173 HD
BRANCH  29  31
HETATM   31  C16 UNL     1       6.429  16.285  85.847  1.00  0.00     0.157 C 
HETATM   32  C18 UNL     1       5.284  16.662  84.901  1.00  0.00     0.174 C 
HETATM   33  N4  UNL     1       5.187  16.267  83.686  1.00  0.00    -0.237 N 
HETATM   34  O11 UNL     1       4.427  17.468  85.586  1.00  0.00    -0.312 OA
ATOM     35  H4  UNL     1       5.907  15.658  83.296  1.00  0.00     0.197 HD
HETATM   36  C20 UNL     1       4.410  17.062  86.952  1.00  0.00     0.283 C 
HETATM   37  C22 UNL     1       5.666  16.266  87.163  1.00  0.00     0.201 C 
BRANCH  31  38
HETATM   38  C17 UNL     1       6.814  14.914  85.406  1.00  0.00     0.207 C 
BRANCH  38  39
HETATM   39  O9  UNL     1       7.877  14.400  86.170  1.00  0.00    -0.398 OA
ATOM     40  H9  UNL     1       8.665  14.290  85.650  1.00  0.00     0.209 HD
ENDBRANCH  38  39
ENDBRANCH  31  38
BRANCH  33  41
HETATM   41  O10 UNL     1       4.130  16.648  82.900  1.00  0.00    -0.203 OA
BRANCH  41  42
HETATM   42  C19 UNL     1       3.034  15.796  82.697  1.00  0.00     0.249 C 
HETATM   43  N5  UNL     1       1.898  16.245  83.175  1.00  0.00    -0.366 N 
ATOM     44  H52 UNL     1       1.867  17.147  83.650  1.00  0.00     0.159 HD
ATOM     45  H51 UNL     1       1.101  15.626  83.027  1.00  0.00     0.159 HD
HETATM   46  N6  UNL     1       3.077  14.559  82.046  1.00  0.00    -0.055 NA
ENDBRANCH  41  42
ENDBRANCH  33  41
BRANCH  36  47
HETATM   47  S2  UNL     1       4.309  18.530  87.921  1.00  0.00     0.171 S 
HETATM   48  C21 UNL     1       5.208  18.430  89.434  1.00  0.00     0.164 C 
HETATM   49  O12 UNL     1       2.837  18.754  88.231  1.00  0.00    -0.226 OA
HETATM   50  O13 UNL     1       4.757  19.728  87.133  1.00  0.00    -0.226 OA
ENDBRANCH  36  47
BRANCH  37  51
HETATM   51  O14 UNL     1       5.342  15.011  87.600  1.00  0.00    -0.389 OA
ATOM     52  H14 UNL     1       4.957  14.991  88.469  1.00  0.00     0.210 HD
ENDBRANCH  37  51
ENDBRANCH  29  31
ENDBRANCH   1  29
TORSDOF 19
ENDMDL
MODEL 3
REMARK VINA RESULT: -7.275796326      2.862      7.781
REMARK  19 active torsions:
REMARK  status: ('A' for Active; 'I' for Inactive)
REMARK    1  A    between atoms: C3_3  and  C5_5 
REMARK    2  A    between atoms: C5_5  and  O2_7 
REMARK    3  A    between atoms: O2_7  and  C6_8 
REMARK    4  A    between atoms: C6_8  and  C7_9 
REMARK    5  A    between atoms: C6_8  and  S1_26 
REMARK    6  A    between atoms: C7_9  and  C8_10 
REMARK    7  A    between atoms: C7_9  and  O5_22 
REMARK    8  A    between atoms: N1_11  and  N2_13 
REMARK       I    between atoms: N2_13  and  C9_15 
REMARK    9  A    between atoms: C9_15  and  O4_17 
REMARK   10  A    between atoms: O4_17  and  C10_18 
REMARK   11  A    between atoms: O5_22  and  C14_23 
REMARK   12  A    between atoms: S1_26  and  N3_29 
REMARK   13  A    between atoms: N3_29  and  C16_31 
REMARK   14  A    between atoms: C16_31  and  C17_32 
REMARK   15  A    between atoms: C17_32  and  O9_33 
REMARK   16  A    between atoms: N4_36  and  O10_38 
REMARK   17  A    between atoms: O10_38  and  C19_39 
REMARK   18  A    between atoms: C20_45  and  S2_46 
REMARK   19  A    between atoms: C22_50  and  O14_51 
ROOT
HETATM    1  S1  UNL     1       5.924  16.257  84.560  1.00  0.00     0.258 S 
HETATM    2  O7  UNL     1       6.126  14.764  84.214  1.00  0.00    -0.203 OA
HETATM    3  O8  UNL     1       6.010  16.887  83.150  1.00  0.00    -0.203 OA
ENDROOT
BRANCH   1   4
HETATM    4  C6  UNL     1       4.284  16.463  85.187  1.00  0.00     0.308 C 
BRANCH   4   5
HETATM    5  O2  UNL     1       3.326  15.618  84.576  1.00  0.00    -0.292 OA
BRANCH   5   6
HETATM    6  C5  UNL     1       2.660  15.904  83.423  1.00  0.00     0.290 C 
HETATM    7  O1  UNL     1       2.900  15.146  82.433  1.00  0.00    -0.260 OA
BRANCH   6   8
HETATM    8  C3  UNL     1       1.712  16.973  83.193  1.00  0.00     0.009 C 
HETATM    9  C2  UNL     1       0.547  16.947  83.816  1.00  0.00    -0.018 C 
HETATM   10  C1  UNL     1      -0.497  17.986  83.674  1.00  0.00     0.036 C 
HETATM   11  C4  UNL     1       2.050  18.102  82.274  1.00  0.00     0.054 C 
ENDBRANCH   6   8
ENDBRANCH   5   6
ENDBRANCH   4   5
BRANCH   4  12
HETATM   12  C7  UNL     1       4.191  16.584  86.667  1.00  0.00     0.218 C 
BRANCH  12  13
HETATM   13  C8  UNL     1       3.161  17.649  87.029  1.00  0.00     0.116 C 
HETATM   14  N1  UNL     1       3.213  18.126  88.183  1.00  0.00    -0.309 N 
ATOM     15  H1  UNL     1       3.975  17.708  88.718  1.00  0.00     0.185 HD
BRANCH  14  16
HETATM   16  N2  UNL     1       2.550  19.035  88.919  1.00  0.00    -0.246 N 
HETATM   17  C9  UNL     1       2.114  18.809  90.245  1.00  0.00     0.380 C 
HETATM   18  O3  UNL     1       2.337  17.715  90.809  1.00  0.00    -0.237 OA
ATOM     19  H2  UNL     1       2.351  19.942  88.496  1.00  0.00     0.192 HD
BRANCH  17  20
HETATM   20  O4  UNL     1       1.444  19.771  90.934  1.00  0.00    -0.293 OA
BRANCH  20  21
HETATM   21  C10 UNL     1       1.964  20.762  91.759  1.00  0.00     0.061 C 
HETATM   22  C11 UNL     1       0.773  21.345  92.540  1.00  0.00     0.046 C 
HETATM   23  C12 UNL     1       2.571  21.924  91.021  1.00  0.00     0.046 C 
HETATM   24  C13 UNL     1       2.976  20.251  92.752  1.00  0.00     0.046 C 
ENDBRANCH  20  21
ENDBRANCH  17  20
ENDBRANCH  14  16
ENDBRANCH  12  13
BRANCH  12  25
HETATM   25  O5  UNL     1       3.613  15.368  87.182  1.00  0.00    -0.307 OA
BRANCH  25  26
HETATM   26  C14 UNL     1       4.093  14.831  88.381  1.00  0.00     0.255 C 
HETATM   27  C15 UNL     1       3.943  13.378  88.547  1.00  0.00     0.126 C 
HETATM   28  O6  UNL     1       4.602  15.626  89.196  1.00  0.00    -0.266 OA
ENDBRANCH  25  26
ENDBRANCH  12  25
ENDBRANCH   4  12
ENDBRANCH   1   4
BRANCH   1  29
HETATM   29  N3  UNL     1       7.147  16.882  85.455  1.00  0.00    -0.295 N 
ATOM     30  H3  UNL     1       7.405  17.839  85.217  1.00  0.00     0.173 HD
BRANCH  29  31
HETATM   31  C16 UNL     1       7.876  16.326  86.470  1.00  0.00     0.157 C 
HETATM   32  C18 UNL     1       7.895  17.334  87.623  1.00  0.00     0.174 C 
HETATM   33  N4  UNL     1       7.054  17.347  88.590  1.00  0.00    -0.237 N 
HETATM   34  O11 UNL     1       8.944  18.179  87.419  1.00  0.00    -0.312 OA
ATOM     35  H4  UNL     1       6.312  16.648  88.619  1.00  0.00     0.197 HD
HETATM   36  C20 UNL     1      10.002  17.453  86.800  1.00  0.00     0.283 C 
HETATM   37  C22 UNL     1       9.370  16.228  86.201  1.00  0.00     0.201 C 
BRANCH  31  38
HETATM   38  C17 UNL     1       7.342  15.082  87.097  1.00  0.00     0.207 C 
BRANCH  38  39
HETATM   39  O9  UNL     1       7.608  13.946  86.312  1.00  0.00    -0.398 OA
ATOM     40  H9  UNL     1       8.274  13.394  86.706  1.00  0.00     0.209 HD
ENDBRANCH  38  39
ENDBRANCH  31  38
BRANCH  33  41
HETATM   41  O10 UNL     1       7.137  18.284  89.587  1.00  0.00    -0.203 OA
BRANCH  41  42
HETATM   42  C19 UNL     1       5.983  18.785  90.208  1.00  0.00     0.249 C 
HETATM   43  N5  UNL     1       5.461  17.991  91.113  1.00  0.00    -0.366 N 
ATOM     44  H52 UNL     1       5.898  17.091  91.312  1.00  0.00     0.159 HD
ATOM     45  H51 UNL     1       4.622  18.355  91.564  1.00  0.00     0.159 HD
HETATM   46  N6  UNL     1       5.384  20.019  89.935  1.00  0.00    -0.055 NA
ENDBRANCH  41  42
ENDBRANCH  33  41
BRANCH  36  47
HETATM   47  S2  UNL     1      10.747  18.535  85.626  1.00  0.00     0.171 S 
HETATM   48  C21 UNL     1      12.491  18.689  85.827  1.00  0.00     0.164 C 
HETATM   49  O12 UNL     1      10.101  19.900  85.812  1.00  0.00    -0.226 OA
HETATM   50  O13 UNL     1      10.425  18.109  84.222  1.00  0.00    -0.226 OA
ENDBRANCH  36  47
BRANCH  37  51
HETATM   51  O14 UNL     1       9.959  15.110  86.723  1.00  0.00    -0.389 OA
ATOM     52  H14 UNL     1      10.263  14.491  86.070  1.00  0.00     0.210 HD
ENDBRANCH  37  51
ENDBRANCH  29  31
ENDBRANCH   1  29
TORSDOF 19
ENDMDL
MODEL 4
REMARK VINA RESULT: -7.187041407      3.064      6.954
REMARK  19 active torsions:
REMARK  status: ('A' for Active; 'I' for Inactive)
REMARK    1  A    between atoms: C3_3  and  C5_5 
REMARK    2  A    between atoms: C5_5  and  O2_7 
REMARK    3  A    between atoms: O2_7  and  C6_8 
REMARK    4  A    between atoms: C6_8  and  C7_9 
REMARK    5  A    between atoms: C6_8  and  S1_26 
REMARK    6  A    between atoms: C7_9  and  C8_10 
REMARK    7  A    between atoms: C7_9  and  O5_22 
REMARK    8  A    between atoms: N1_11  and  N2_13 
REMARK       I    between atoms: N2_13  and  C9_15 
REMARK    9  A    between atoms: C9_15  and  O4_17 
REMARK   10  A    between atoms: O4_17  and  C10_18 
REMARK   11  A    between atoms: O5_22  and  C14_23 
REMARK   12  A    between atoms: S1_26  and  N3_29 
REMARK   13  A    between atoms: N3_29  and  C16_31 
REMARK   14  A    between atoms: C16_31  and  C17_32 
REMARK   15  A    between atoms: C17_32  and  O9_33 
REMARK   16  A    between atoms: N4_36  and  O10_38 
REMARK   17  A    between atoms: O10_38  and  C19_39 
REMARK   18  A    between atoms: C20_45  and  S2_46 
REMARK   19  A    between atoms: C22_50  and  O14_51 
ROOT
HETATM    1  S1  UNL     1       7.173  15.670  83.829  1.00  0.00     0.258 S 
HETATM    2  O7  UNL     1       7.480  15.310  82.358  1.00  0.00    -0.203 OA
HETATM    3  O8  UNL     1       6.649  14.311  84.348  1.00  0.00    -0.203 OA
ENDROOT
BRANCH   1   4
HETATM    4  C6  UNL     1       8.698  16.051  84.636  1.00  0.00     0.308 C 
BRANCH   4   5
HETATM    5  O2  UNL     1       9.640  16.704  83.805  1.00  0.00    -0.292 OA
BRANCH   5   6
HETATM    6  C5  UNL     1      10.776  16.132  83.319  1.00  0.00     0.290 C 
HETATM    7  O1  UNL     1      10.704  14.895  83.034  1.00  0.00    -0.260 OA
BRANCH   6   8
HETATM    8  C3  UNL     1      12.057  16.766  83.089  1.00  0.00     0.009 C 
HETATM    9  C2  UNL     1      12.776  16.404  82.040  1.00  0.00    -0.018 C 
HETATM   10  C1  UNL     1      14.090  16.987  81.692  1.00  0.00     0.036 C 
HETATM   11  C4  UNL     1      12.554  17.827  84.015  1.00  0.00     0.054 C 
ENDBRANCH   6   8
ENDBRANCH   5   6
ENDBRANCH   4   5
BRANCH   4  12
HETATM   12  C7  UNL     1       8.559  16.599  86.012  1.00  0.00     0.218 C 
BRANCH  12  13
HETATM   13  C8  UNL     1       8.580  15.458  87.023  1.00  0.00     0.116 C 
HETATM   14  N1  UNL     1       7.494  14.890  87.268  1.00  0.00    -0.309 N 
ATOM     15  H1  UNL     1       6.735  15.301  86.723  1.00  0.00     0.185 HD
BRANCH  14  16
HETATM   16  N2  UNL     1       7.042  13.892  88.046  1.00  0.00    -0.246 N 
HETATM   17  C9  UNL     1       5.679  13.700  88.369  1.00  0.00     0.380 C 
HETATM   18  O3  UNL     1       4.806  14.477  87.927  1.00  0.00    -0.237 OA
ATOM     19  H2  UNL     1       7.723  13.234  88.426  1.00  0.00     0.192 HD
BRANCH  17  20
HETATM   20  O4  UNL     1       5.288  12.669  89.166  1.00  0.00    -0.293 OA
BRANCH  20  21
HETATM   21  C10 UNL     1       5.613  12.437  90.498  1.00  0.00     0.061 C 
HETATM   22  C11 UNL     1       4.418  11.687  91.112  1.00  0.00     0.046 C 
HETATM   23  C12 UNL     1       5.775  13.685  91.321  1.00  0.00     0.046 C 
HETATM   24  C13 UNL     1       6.846  11.588  90.678  1.00  0.00     0.046 C 
ENDBRANCH  20  21
ENDBRANCH  17  20
ENDBRANCH  14  16
ENDBRANCH  12  13
BRANCH  12  25
HETATM   25  O5  UNL     1       9.753  17.346  86.321  1.00  0.00    -0.307 OA
BRANCH  25  26
HETATM   26  C14 UNL     1       9.641  18.641  86.838  1.00  0.00     0.255 C 
HETATM   27  C15 UNL     1      10.093  19.731  85.961  1.00  0.00     0.126 C 
HETATM   28  O6  UNL     1       9.170  18.756  87.987  1.00  0.00    -0.266 OA
ENDBRANCH  25  26
ENDBRANCH  12  25
ENDBRANCH   4  12
ENDBRANCH   1   4
BRANCH   1  29
HETATM   29  N3  UNL     1       5.957  16.759  83.985  1.00  0.00    -0.295 N 
ATOM     30  H3  UNL     1       6.260  17.728  84.079  1.00  0.00     0.173 HD
BRANCH  29  31
HETATM   31  C16 UNL     1       4.601  16.577  84.008  1.00  0.00     0.157 C 
HETATM   32  C18 UNL     1       3.954  17.925  83.678  1.00  0.00     0.174 C 
HETATM   33  N4  UNL     1       3.617  18.299  82.500  1.00  0.00    -0.237 N 
HETATM   34  O11 UNL     1       3.817  18.617  84.843  1.00  0.00    -0.312 OA
ATOM     35  H4  UNL     1       3.778  17.675  81.709  1.00  0.00     0.197 HD
HETATM   36  C20 UNL     1       3.556  17.692  85.895  1.00  0.00     0.283 C 
HETATM   37  C22 UNL     1       4.013  16.352  85.394  1.00  0.00     0.201 C 
BRANCH  31  38
HETATM   38  C17 UNL     1       4.016  15.648  82.999  1.00  0.00     0.207 C 
BRANCH  38  39
HETATM   39  O9  UNL     1       2.612  15.726  82.969  1.00  0.00    -0.398 OA
ATOM     40  H9  UNL     1       2.310  16.434  82.411  1.00  0.00     0.209 HD
ENDBRANCH  38  39
ENDBRANCH  31  38
BRANCH  33  41
HETATM   41  O10 UNL     1       3.042  19.525  82.284  1.00  0.00    -0.203 OA
BRANCH  41  42
HETATM   42  C19 UNL     1       3.623  20.453  81.406  1.00  0.00     0.249 C 
HETATM   43  N5  UNL     1       4.919  20.321  81.252  1.00  0.00    -0.366 N 
ATOM     44  H52 UNL     1       5.419  19.587  81.753  1.00  0.00     0.159 HD
ATOM     45  H51 UNL     1       5.341  20.996  80.614  1.00  0.00     0.159 HD
HETATM   46  N6  UNL     1       2.937  21.460  80.719  1.00  0.00    -0.055 NA
ENDBRANCH  41  42
ENDBRANCH  33  41
BRANCH  36  47
HETATM   47  S2  UNL     1       4.425  18.272  87.314  1.00  0.00     0.171 S 
HETATM   48  C21 UNL     1       3.535  18.047  88.819  1.00  0.00     0.164 C 
HETATM   49  O12 UNL     1       4.675  19.758  87.102  1.00  0.00    -0.226 OA
HETATM   50  O13 UNL     1       5.780  17.631  87.415  1.00  0.00    -0.226 OA
ENDBRANCH  36  47
BRANCH  37  51
HETATM   51  O14 UNL     1       2.965  15.474  85.419  1.00  0.00    -0.389 OA
ATOM     52  H14 UNL     1       3.165  14.623  85.048  1.00  0.00     0.210 HD
ENDBRANCH  37  51
ENDBRANCH  29  31
ENDBRANCH   1  29
TORSDOF 19
ENDMDL
MODEL 5
REMARK VINA RESULT: -7.094591314      1.830      2.412
REMARK  19 active torsions:
REMARK  status: ('A' for Active; 'I' for Inactive)
REMARK    1  A    between atoms: C3_3  and  C5_5 
REMARK    2  A    between atoms: C5_5  and  O2_7 
REMARK    3  A    between atoms: O2_7  and  C6_8 
REMARK    4  A    between atoms: C6_8  and  C7_9 
REMARK    5  A    between atoms: C6_8  and  S1_26 
REMARK    6  A    between atoms: C7_9  and  C8_10 
REMARK    7  A    between atoms: C7_9  and  O5_22 
REMARK    8  A    between atoms: N1_11  and  N2_13 
REMARK       I    between atoms: N2_13  and  C9_15 
REMARK    9  A    between atoms: C9_15  and  O4_17 
REMARK   10  A    between atoms: O4_17  and  C10_18 
REMARK   11  A    between atoms: O5_22  and  C14_23 
REMARK   12  A    between atoms: S1_26  and  N3_29 
REMARK   13  A    between atoms: N3_29  and  C16_31 
REMARK   14  A    between atoms: C16_31  and  C17_32 
REMARK   15  A    between atoms: C17_32  and  O9_33 
REMARK   16  A    between atoms: N4_36  and  O10_38 
REMARK   17  A    between atoms: O10_38  and  C19_39 
REMARK   18  A    between atoms: C20_45  and  S2_46 
REMARK   19  A    between atoms: C22_50  and  O14_51 
ROOT
HETATM    1  S1  UNL     1       6.293  15.741  86.966  1.00  0.00     0.258 S 
HETATM    2  O7  UNL     1       6.264  14.238  86.608  1.00  0.00    -0.203 OA
HETATM    3  O8  UNL     1       6.783  15.673  88.431  1.00  0.00    -0.203 OA
ENDROOT
BRANCH   1   4
HETATM    4  C6  UNL     1       7.532  16.521  85.977  1.00  0.00     0.308 C 
BRANCH   4   5
HETATM    5  O2  UNL     1       8.627  17.025  86.720  1.00  0.00    -0.292 OA
BRANCH   5   6
HETATM    6  C5  UNL     1       8.795  18.332  87.066  1.00  0.00     0.290 C 
HETATM    7  O1  UNL     1       7.734  18.997  87.281  1.00  0.00    -0.260 OA
BRANCH   6   8
HETATM    8  C3  UNL     1      10.041  19.053  87.216  1.00  0.00     0.009 C 
HETATM    9  C2  UNL     1      10.311  20.053  86.395  1.00  0.00    -0.018 C 
HETATM   10  C1  UNL     1      11.540  20.873  86.458  1.00  0.00     0.036 C 
HETATM   11  C4  UNL     1      11.005  18.683  88.296  1.00  0.00     0.054 C 
ENDBRANCH   6   8
ENDBRANCH   5   6
ENDBRANCH   4   5
BRANCH   4  12
HETATM   12  C7  UNL     1       7.879  15.799  84.722  1.00  0.00     0.218 C 
BRANCH  12  13
HETATM   13  C8  UNL     1       6.633  15.653  83.856  1.00  0.00     0.116 C 
HETATM   14  N1  UNL     1       6.058  16.703  83.499  1.00  0.00    -0.309 N 
ATOM     15  H1  UNL     1       6.541  17.526  83.861  1.00  0.00     0.185 HD
BRANCH  14  16
HETATM   16  N2  UNL     1       4.982  17.057  82.774  1.00  0.00    -0.246 N 
HETATM   17  C9  UNL     1       3.850  17.712  83.312  1.00  0.00     0.380 C 
HETATM   18  O3  UNL     1       3.801  18.002  84.526  1.00  0.00    -0.237 OA
ATOM     19  H2  UNL     1       4.983  16.839  81.777  1.00  0.00     0.192 HD
BRANCH  17  20
HETATM   20  O4  UNL     1       2.792  18.039  82.522  1.00  0.00    -0.293 OA
BRANCH  20  21
HETATM   21  C10 UNL     1       2.647  19.139  81.685  1.00  0.00     0.061 C 
HETATM   22  C11 UNL     1       1.257  19.729  81.979  1.00  0.00     0.046 C 
HETATM   23  C12 UNL     1       2.643  18.803  80.218  1.00  0.00     0.046 C 
HETATM   24  C13 UNL     1       3.676  20.216  81.920  1.00  0.00     0.046 C 
ENDBRANCH  20  21
ENDBRANCH  17  20
ENDBRANCH  14  16
ENDBRANCH  12  13
BRANCH  12  25
HETATM   25  O5  UNL     1       8.738  16.650  83.937  1.00  0.00    -0.307 OA
BRANCH  25  26
HETATM   26  C14 UNL     1      10.095  16.335  83.816  1.00  0.00     0.255 C 
HETATM   27  C15 UNL     1      10.411  15.090  83.100  1.00  0.00     0.126 C 
HETATM   28  O6  UNL     1      10.911  17.131  84.320  1.00  0.00    -0.266 OA
ENDBRANCH  25  26
ENDBRANCH  12  25
ENDBRANCH   4  12
ENDBRANCH   1   4
BRANCH   1  29
HETATM   29  N3  UNL     1       4.806  16.430  86.975  1.00  0.00    -0.295 N 
ATOM     30  H3  UNL     1       4.638  17.096  86.222  1.00  0.00     0.173 HD
BRANCH  29  31
HETATM   31  C16 UNL     1       3.753  16.255  87.831  1.00  0.00     0.157 C 
HETATM   32  C18 UNL     1       2.580  17.074  87.285  1.00  0.00     0.174 C 
HETATM   33  N4  UNL     1       1.676  16.615  86.501  1.00  0.00    -0.237 N 
HETATM   34  O11 UNL     1       2.689  18.339  87.780  1.00  0.00    -0.312 OA
ATOM     35  H4  UNL     1       1.716  15.640  86.206  1.00  0.00     0.197 HD
HETATM   36  C20 UNL     1       3.246  18.269  89.090  1.00  0.00     0.283 C 
HETATM   37  C22 UNL     1       3.916  16.928  89.186  1.00  0.00     0.201 C 
BRANCH  31  38
HETATM   38  C17 UNL     1       3.193  14.878  87.957  1.00  0.00     0.207 C 
BRANCH  38  39
HETATM   39  O9  UNL     1       1.941  14.881  88.600  1.00  0.00    -0.398 OA
ATOM     40  H9  UNL     1       1.639  13.999  88.785  1.00  0.00     0.209 HD
ENDBRANCH  38  39
ENDBRANCH  31  38
BRANCH  33  41
HETATM   41  O10 UNL     1       0.656  17.414  86.053  1.00  0.00    -0.203 OA
BRANCH  41  42
HETATM   42  C19 UNL     1       0.122  17.252  84.765  1.00  0.00     0.249 C 
HETATM   43  N5  UNL     1      -0.912  18.016  84.504  1.00  0.00    -0.366 N 
ATOM     44  H52 UNL     1      -1.262  18.660  85.214  1.00  0.00     0.159 HD
ATOM     45  H51 UNL     1      -1.300  17.899  83.568  1.00  0.00     0.159 HD
HETATM   46  N6  UNL     1       0.602  16.370  83.792  1.00  0.00    -0.055 NA
ENDBRANCH  41  42
ENDBRANCH  33  41
BRANCH  36  47
HETATM   47  S2  UNL     1       4.340  19.640  89.255  1.00  0.00     0.171 S 
HETATM   48  C21 UNL     1       5.805  19.260  90.159  1.00  0.00     0.164 C 
HETATM   49  O12 UNL     1       3.573  20.731  89.987  1.00  0.00    -0.226 OA
HETATM   50  O13 UNL     1       4.696  20.210  87.911  1.00  0.00    -0.226 OA
ENDBRANCH  36  47
BRANCH  37  51
HETATM   51  O14 UNL     1       3.376  16.223  90.227  1.00  0.00    -0.389 OA
ATOM     52  H14 UNL     1       2.430  16.282  90.284  1.00  0.00     0.210 HD
ENDBRANCH  37  51
ENDBRANCH  29  31
ENDBRANCH   1  29
TORSDOF 19
ENDMDL
