MODEL 1
REMARK VINA RESULT: -6.552748181      0.000      0.000
REMARK  7 active torsions:
REMARK  status: ('A' for Active; 'I' for Inactive)
REMARK    1  A    between atoms: C2_3  and  N2_4 
REMARK    2  A    between atoms: C2_3  and  C3_8 
REMARK    3  A    between atoms: C4_13  and  S1_14 
REMARK    4  A    between atoms: S1_14  and  C5_15 
REMARK    5  A    between atoms: C5_15  and  C6_16 
REMARK    6  A    between atoms: C6_16  and  C7_18 
REMARK    7  A    between atoms: C8_19  and  O2_20 
ROOT
HETATM    1  N1  UNL     1      54.105  23.283  37.997  1.00  0.00    -0.195 NA
HETATM    2  C1  UNL     1      54.471  22.189  38.069  1.00  0.00     0.100 C 
HETATM    3  C2  UNL     1      54.951  20.815  38.170  1.00  0.00     0.357 C 
ENDROOT
BRANCH   3   4
HETATM    4  N2  UNL     1      56.266  20.832  38.833  1.00  0.00    -0.056 N 
ATOM      5  H23 UNL     1      56.192  20.830  39.851  1.00  0.00     0.276 HD
ATOM      6  H22 UNL     1      56.769  19.950  38.729  1.00  0.00     0.276 HD
ATOM      7  H21 UNL     1      56.794  21.630  38.479  1.00  0.00     0.276 HD
ENDBRANCH   3   4
BRANCH   3   8
HETATM    8  C3  UNL     1      55.144  20.248  36.800  1.00  0.00     0.143 A 
HETATM    9  N3  UNL     1      55.802  19.103  36.554  1.00  0.00    -0.284 N 
HETATM   10  N4  UNL     1      55.770  18.920  35.244  1.00  0.00    -0.278 N 
ATOM     11  H3  UNL     1      56.242  18.493  37.243  1.00  0.00     0.188 HD
HETATM   12  C4  UNL     1      55.102  19.929  34.653  1.00  0.00     0.160 A 
ATOM     13  H4  UNL     1      56.189  18.130  34.754  1.00  0.00     0.189 HD
HETATM   14  N7  UNL     1      54.711  20.757  35.627  1.00  0.00    -0.322 N 
ATOM     15  H7  UNL     1      54.181  21.620  35.504  1.00  0.00     0.169 HD
BRANCH  12  16
HETATM   16  S1  UNL     1      54.814  20.091  32.877  1.00  0.00    -0.085 SA
BRANCH  16  17
HETATM   17  C5  UNL     1      53.250  19.237  32.542  1.00  0.00     0.166 C 
BRANCH  17  18
HETATM   18  C6  UNL     1      52.185  19.535  33.490  1.00  0.00     0.178 C 
HETATM   19  O1  UNL     1      52.022  20.749  33.837  1.00  0.00    -0.291 OA
BRANCH  18  20
HETATM   20  C7  UNL     1      51.292  18.552  34.073  1.00  0.00     0.129 A 
HETATM   21  C8  UNL     1      50.026  18.284  33.611  1.00  0.00     0.163 A 
HETATM   22  N5  UNL     1      49.206  17.350  34.162  1.00  0.00    -0.288 N 
HETATM   23  C9  UNL     1      49.642  16.643  35.212  1.00  0.00     0.329 A 
ATOM     24  H5  UNL     1      48.274  17.189  33.781  1.00  0.00     0.172 HD
HETATM   25  O3  UNL     1      48.964  15.757  35.793  1.00  0.00    -0.247 OA
HETATM   26  N6  UNL     1      50.887  16.884  35.692  1.00  0.00    -0.275 N 
HETATM   27  C10 UNL     1      51.706  17.796  35.166  1.00  0.00     0.267 A 
ATOM     28  H6  UNL     1      51.213  16.342  36.493  1.00  0.00     0.173 HD
HETATM   29  O4  UNL     1      52.856  18.014  35.613  1.00  0.00    -0.267 OA
BRANCH  21  30
HETATM   30  O2  UNL     1      49.506  18.973  32.532  1.00  0.00    -0.345 OA
ATOM     31  H2  UNL     1      50.043  19.163  31.772  1.00  0.00     0.219 HD
ENDBRANCH  21  30
ENDBRANCH  18  20
ENDBRANCH  17  18
ENDBRANCH  16  17
ENDBRANCH  12  16
ENDBRANCH   3   8
TORSDOF 7
ENDMDL
MODEL 2
REMARK VINA RESULT: -6.530114653      2.394      4.162
REMARK  7 active torsions:
REMARK  status: ('A' for Active; 'I' for Inactive)
REMARK    1  A    between atoms: C2_3  and  N2_4 
REMARK    2  A    between atoms: C2_3  and  C3_8 
REMARK    3  A    between atoms: C4_13  and  S1_14 
REMARK    4  A    between atoms: S1_14  and  C5_15 
REMARK    5  A    between atoms: C5_15  and  C6_16 
REMARK    6  A    between atoms: C6_16  and  C7_18 
REMARK    7  A    between atoms: C8_19  and  O2_20 
ROOT
HETATM    1  N1  UNL     1      57.143  21.585  30.922  1.00  0.00    -0.195 NA
HETATM    2  C1  UNL     1      56.154  21.220  31.397  1.00  0.00     0.100 C 
HETATM    3  C2  UNL     1      54.898  20.779  31.994  1.00  0.00     0.357 C 
ENDROOT
BRANCH   3   4
HETATM    4  N2  UNL     1      53.962  21.915  31.994  1.00  0.00    -0.056 N 
ATOM      5  H23 UNL     1      54.439  22.817  32.024  1.00  0.00     0.276 HD
ATOM      6  H22 UNL     1      53.492  22.037  31.097  1.00  0.00     0.276 HD
ATOM      7  H21 UNL     1      53.307  21.792  32.767  1.00  0.00     0.276 HD
ENDBRANCH   3   4
BRANCH   3   8
HETATM    8  C3  UNL     1      55.129  20.384  33.417  1.00  0.00     0.143 A 
HETATM    9  N3  UNL     1      56.053  19.487  33.800  1.00  0.00    -0.284 N 
HETATM   10  N4  UNL     1      55.971  19.395  35.117  1.00  0.00    -0.278 N 
ATOM     11  H3  UNL     1      56.693  18.975  33.193  1.00  0.00     0.188 HD
HETATM   12  C4  UNL     1      55.011  20.219  35.578  1.00  0.00     0.160 A 
ATOM     13  H4  UNL     1      56.550  18.789  35.698  1.00  0.00     0.189 HD
HETATM   14  N7  UNL     1      54.487  20.837  34.515  1.00  0.00    -0.322 N 
ATOM     15  H7  UNL     1      53.735  21.526  34.531  1.00  0.00     0.169 HD
BRANCH  12  16
HETATM   16  S1  UNL     1      54.553  20.419  37.315  1.00  0.00    -0.085 SA
BRANCH  16  17
HETATM   17  C5  UNL     1      53.043  19.444  37.551  1.00  0.00     0.166 C 
BRANCH  17  18
HETATM   18  C6  UNL     1      53.027  18.174  36.838  1.00  0.00     0.178 C 
HETATM   19  O1  UNL     1      54.093  17.476  36.846  1.00  0.00    -0.291 OA
BRANCH  18  20
HETATM   20  C7  UNL     1      51.888  17.640  36.117  1.00  0.00     0.129 A 
HETATM   21  C8  UNL     1      51.280  16.442  36.406  1.00  0.00     0.163 A 
HETATM   22  N5  UNL     1      50.204  15.962  35.727  1.00  0.00    -0.288 N 
HETATM   23  C9  UNL     1      49.697  16.684  34.720  1.00  0.00     0.329 A 
ATOM     24  H5  UNL     1      49.788  15.065  35.982  1.00  0.00     0.172 HD
HETATM   25  O3  UNL     1      48.706  16.330  34.031  1.00  0.00    -0.247 OA
HETATM   26  N6  UNL     1      50.275  17.870  34.410  1.00  0.00    -0.275 N 
HETATM   27  C10 UNL     1      51.331  18.358  35.063  1.00  0.00     0.267 A 
ATOM     28  H6  UNL     1      49.885  18.415  33.641  1.00  0.00     0.173 HD
HETATM   29  O4  UNL     1      51.862  19.456  34.773  1.00  0.00    -0.267 OA
BRANCH  21  30
HETATM   30  O2  UNL     1      51.746  15.641  37.430  1.00  0.00    -0.345 OA
ATOM     31  H2  UNL     1      51.147  15.266  38.065  1.00  0.00     0.219 HD
ENDBRANCH  21  30
ENDBRANCH  18  20
ENDBRANCH  17  18
ENDBRANCH  16  17
ENDBRANCH  12  16
ENDBRANCH   3   8
TORSDOF 7
ENDMDL
MODEL 3
REMARK VINA RESULT: -6.485247767      3.016      6.356
REMARK  7 active torsions:
REMARK  status: ('A' for Active; 'I' for Inactive)
REMARK    1  A    between atoms: C2_3  and  N2_4 
REMARK    2  A    between atoms: C2_3  and  C3_8 
REMARK    3  A    between atoms: C4_13  and  S1_14 
REMARK    4  A    between atoms: S1_14  and  C5_15 
REMARK    5  A    between atoms: C5_15  and  C6_16 
REMARK    6  A    between atoms: C6_16  and  C7_18 
REMARK    7  A    between atoms: C8_19  and  O2_20 
ROOT
HETATM    1  N1  UNL     1      52.169  20.821  31.023  1.00  0.00    -0.195 NA
HETATM    2  C1  UNL     1      51.202  20.242  31.279  1.00  0.00     0.100 C 
HETATM    3  C2  UNL     1      49.969  19.530  31.600  1.00  0.00     0.357 C 
ENDROOT
BRANCH   3   4
HETATM    4  N2  UNL     1      48.860  20.499  31.595  1.00  0.00    -0.056 N 
ATOM      5  H23 UNL     1      47.946  20.050  31.658  1.00  0.00     0.276 HD
ATOM      6  H22 UNL     1      48.808  21.041  32.458  1.00  0.00     0.276 HD
ATOM      7  H21 UNL     1      48.952  21.088  30.767  1.00  0.00     0.276 HD
ENDBRANCH   3   4
BRANCH   3   8
HETATM    8  C3  UNL     1      50.064  18.960  32.978  1.00  0.00     0.143 A 
HETATM    9  N3  UNL     1      48.997  18.589  33.706  1.00  0.00    -0.284 N 
HETATM   10  N4  UNL     1      49.460  18.134  34.858  1.00  0.00    -0.278 N 
ATOM     11  H3  UNL     1      48.018  18.646  33.424  1.00  0.00     0.188 HD
HETATM   12  C4  UNL     1      50.805  18.210  34.876  1.00  0.00     0.160 A 
ATOM     13  H4  UNL     1      48.885  17.779  35.621  1.00  0.00     0.189 HD
HETATM   14  N7  UNL     1      51.180  18.725  33.702  1.00  0.00    -0.322 N 
ATOM     15  H7  UNL     1      52.138  18.908  33.405  1.00  0.00     0.169 HD
BRANCH  12  16
HETATM   16  S1  UNL     1      51.860  17.700  36.252  1.00  0.00    -0.085 SA
BRANCH  16  17
HETATM   17  C5  UNL     1      52.086  19.173  37.285  1.00  0.00     0.166 C 
BRANCH  17  18
HETATM   18  C6  UNL     1      53.338  19.882  37.056  1.00  0.00     0.178 C 
HETATM   19  O1  UNL     1      53.826  20.551  38.024  1.00  0.00    -0.291 OA
BRANCH  18  20
HETATM   20  C7  UNL     1      54.075  19.886  35.808  1.00  0.00     0.129 A 
HETATM   21  C8  UNL     1      55.227  19.172  35.585  1.00  0.00     0.163 A 
HETATM   22  N5  UNL     1      55.899  19.177  34.402  1.00  0.00    -0.288 N 
HETATM   23  C9  UNL     1      55.424  19.913  33.390  1.00  0.00     0.329 A 
ATOM     24  H5  UNL     1      56.751  18.628  34.288  1.00  0.00     0.172 HD
HETATM   25  O3  UNL     1      55.969  19.986  32.258  1.00  0.00    -0.247 OA
HETATM   26  N6  UNL     1      54.289  20.630  33.578  1.00  0.00    -0.275 N 
HETATM   27  C10 UNL     1      53.616  20.639  34.730  1.00  0.00     0.267 A 
ATOM     28  H6  UNL     1      53.933  21.190  32.803  1.00  0.00     0.173 HD
HETATM   29  O4  UNL     1      52.567  21.303  34.899  1.00  0.00    -0.267 OA
BRANCH  21  30
HETATM   30  O2  UNL     1      55.779  18.390  36.581  1.00  0.00    -0.345 OA
ATOM     31  H2  UNL     1      55.599  17.458  36.624  1.00  0.00     0.219 HD
ENDBRANCH  21  30
ENDBRANCH  18  20
ENDBRANCH  17  18
ENDBRANCH  16  17
ENDBRANCH  12  16
ENDBRANCH   3   8
TORSDOF 7
ENDMDL
MODEL 4
REMARK VINA RESULT: -6.388930089      2.682      4.394
REMARK  7 active torsions:
REMARK  status: ('A' for Active; 'I' for Inactive)
REMARK    1  A    between atoms: C2_3  and  N2_4 
REMARK    2  A    between atoms: C2_3  and  C3_8 
REMARK    3  A    between atoms: C4_13  and  S1_14 
REMARK    4  A    between atoms: S1_14  and  C5_15 
REMARK    5  A    between atoms: C5_15  and  C6_16 
REMARK    6  A    between atoms: C6_16  and  C7_18 
REMARK    7  A    between atoms: C8_19  and  O2_20 
ROOT
HETATM    1  N1  UNL     1      50.010  18.970  31.640  1.00  0.00    -0.195 NA
HETATM    2  C1  UNL     1      50.773  19.829  31.770  1.00  0.00     0.100 C 
HETATM    3  C2  UNL     1      51.742  20.910  31.914  1.00  0.00     0.357 C 
ENDROOT
BRANCH   3   4
HETATM    4  N2  UNL     1      52.400  21.118  30.613  1.00  0.00    -0.056 N 
ATOM      5  H23 UNL     1      53.383  21.374  30.707  1.00  0.00     0.276 HD
ATOM      6  H22 UNL     1      52.532  20.248  30.097  1.00  0.00     0.276 HD
ATOM      7  H21 UNL     1      51.862  21.808  30.088  1.00  0.00     0.276 HD
ENDBRANCH   3   4
BRANCH   3   8
HETATM    8  C3  UNL     1      52.796  20.512  32.895  1.00  0.00     0.143 A 
HETATM    9  N3  UNL     1      53.989  20.004  32.542  1.00  0.00    -0.284 N 
HETATM   10  N4  UNL     1      54.653  19.775  33.662  1.00  0.00    -0.278 N 
ATOM     11  H3  UNL     1      54.318  19.828  31.592  1.00  0.00     0.188 HD
HETATM   12  C4  UNL     1      53.903  20.129  34.724  1.00  0.00     0.160 A 
ATOM     13  H4  UNL     1      55.594  19.387  33.715  1.00  0.00     0.189 HD
HETATM   14  N7  UNL     1      52.744  20.590  34.242  1.00  0.00    -0.322 N 
ATOM     15  H7  UNL     1      51.960  20.937  34.795  1.00  0.00     0.169 HD
BRANCH  12  16
HETATM   16  S1  UNL     1      54.409  19.989  36.452  1.00  0.00    -0.085 SA
BRANCH  16  17
HETATM   17  C5  UNL     1      53.573  18.518  37.104  1.00  0.00     0.166 C 
BRANCH  17  18
HETATM   18  C6  UNL     1      52.126  18.647  37.215  1.00  0.00     0.178 C 
HETATM   19  O1  UNL     1      51.667  19.404  38.131  1.00  0.00    -0.291 OA
BRANCH  18  20
HETATM   20  C7  UNL     1      51.164  17.979  36.361  1.00  0.00     0.129 A 
HETATM   21  C8  UNL     1      50.296  18.627  35.516  1.00  0.00     0.163 A 
HETATM   22  N5  UNL     1      49.408  17.984  34.711  1.00  0.00    -0.288 N 
HETATM   23  C9  UNL     1      49.365  16.645  34.732  1.00  0.00     0.329 A 
ATOM     24  H5  UNL     1      48.784  18.512  34.101  1.00  0.00     0.172 HD
HETATM   25  O3  UNL     1      48.582  15.956  34.029  1.00  0.00    -0.247 OA
HETATM   26  N6  UNL     1      50.209  15.977  35.556  1.00  0.00    -0.275 N 
HETATM   27  C10 UNL     1      51.086  16.589  36.353  1.00  0.00     0.267 A 
ATOM     28  H6  UNL     1      50.170  14.958  35.568  1.00  0.00     0.173 HD
HETATM   29  O4  UNL     1      51.864  15.966  37.112  1.00  0.00    -0.267 OA
BRANCH  21  30
HETATM   30  O2  UNL     1      50.280  20.006  35.439  1.00  0.00    -0.345 OA
ATOM     31  H2  UNL     1      50.973  20.476  34.991  1.00  0.00     0.219 HD
ENDBRANCH  21  30
ENDBRANCH  18  20
ENDBRANCH  17  18
ENDBRANCH  16  17
ENDBRANCH  12  16
ENDBRANCH   3   8
TORSDOF 7
ENDMDL
MODEL 5
REMARK VINA RESULT: -6.387332626      0.134      1.722
REMARK  7 active torsions:
REMARK  status: ('A' for Active; 'I' for Inactive)
REMARK    1  A    between atoms: C2_3  and  N2_4 
REMARK    2  A    between atoms: C2_3  and  C3_8 
REMARK    3  A    between atoms: C4_13  and  S1_14 
REMARK    4  A    between atoms: S1_14  and  C5_15 
REMARK    5  A    between atoms: C5_15  and  C6_16 
REMARK    6  A    between atoms: C6_16  and  C7_18 
REMARK    7  A    between atoms: C8_19  and  O2_20 
ROOT
HETATM    1  N1  UNL     1      54.182  23.317  37.929  1.00  0.00    -0.195 NA
HETATM    2  C1  UNL     1      54.524  22.217  38.012  1.00  0.00     0.100 C 
HETATM    3  C2  UNL     1      54.975  20.833  38.125  1.00  0.00     0.357 C 
ENDROOT
BRANCH   3   4
HETATM    4  N2  UNL     1      56.285  20.827  38.796  1.00  0.00    -0.056 N 
ATOM      5  H23 UNL     1      56.505  21.721  39.237  1.00  0.00     0.276 HD
ATOM      6  H22 UNL     1      56.292  20.252  39.639  1.00  0.00     0.276 HD
ATOM      7  H21 UNL     1      56.992  20.539  38.119  1.00  0.00     0.276 HD
ENDBRANCH   3   4
BRANCH   3   8
HETATM    8  C3  UNL     1      55.163  20.253  36.761  1.00  0.00     0.143 A 
HETATM    9  N3  UNL     1      55.822  19.106  36.524  1.00  0.00    -0.284 N 
HETATM   10  N4  UNL     1      55.786  18.909  35.216  1.00  0.00    -0.278 N 
ATOM     11  H3  UNL     1      56.264  18.503  37.218  1.00  0.00     0.188 HD
HETATM   12  C4  UNL     1      55.116  19.912  34.617  1.00  0.00     0.160 A 
ATOM     13  H4  UNL     1      56.204  18.115  34.733  1.00  0.00     0.189 HD
HETATM   14  N7  UNL     1      54.727  20.750  35.583  1.00  0.00    -0.322 N 
ATOM     15  H7  UNL     1      54.197  21.611  35.454  1.00  0.00     0.169 HD
BRANCH  12  16
HETATM   16  S1  UNL     1      54.823  20.056  32.840  1.00  0.00    -0.085 SA
BRANCH  16  17
HETATM   17  C5  UNL     1      53.237  19.235  32.524  1.00  0.00     0.166 C 
BRANCH  17  18
HETATM   18  C6  UNL     1      52.219  19.482  33.536  1.00  0.00     0.178 C 
HETATM   19  O1  UNL     1      52.044  20.684  33.920  1.00  0.00    -0.291 OA
BRANCH  18  20
HETATM   20  C7  UNL     1      51.384  18.463  34.141  1.00  0.00     0.129 A 
HETATM   21  C8  UNL     1      51.730  17.739  35.256  1.00  0.00     0.163 A 
HETATM   22  N5  UNL     1      50.929  16.795  35.819  1.00  0.00    -0.288 N 
HETATM   23  C9  UNL     1      49.734  16.546  35.268  1.00  0.00     0.329 A 
ATOM     24  H5  UNL     1      51.233  16.284  36.648  1.00  0.00     0.172 HD
HETATM   25  O3  UNL     1      48.919  15.695  35.710  1.00  0.00    -0.247 OA
HETATM   26  N6  UNL     1      49.363  17.244  34.166  1.00  0.00    -0.275 N 
HETATM   27  C10 UNL     1      50.134  18.173  33.600  1.00  0.00     0.267 A 
ATOM     28  H6  UNL     1      48.452  17.049  33.751  1.00  0.00     0.173 HD
HETATM   29  O4  UNL     1      49.787  18.816  32.581  1.00  0.00    -0.267 OA
BRANCH  21  30
HETATM   30  O2  UNL     1      52.946  17.938  35.880  1.00  0.00    -0.345 OA
ATOM     31  H2  UNL     1      53.140  17.523  36.713  1.00  0.00     0.219 HD
ENDBRANCH  21  30
ENDBRANCH  18  20
ENDBRANCH  17  18
ENDBRANCH  16  17
ENDBRANCH  12  16
ENDBRANCH   3   8
TORSDOF 7
ENDMDL
