MODEL 1
REMARK VINA RESULT: -6.157906075      0.000      0.000
REMARK  12 active torsions:
REMARK  status: ('A' for Active; 'I' for Inactive)
REMARK    1  A    between atoms: O1_2  and  C2_3 
REMARK    2  A    between atoms: C2_3  and  C3_5 
REMARK    3  A    between atoms: C3_5  and  C4_6 
REMARK    4  A    between atoms: C3_5  and  N2_17 
REMARK    5  A    between atoms: C4_6  and  C5_7 
REMARK    6  A    between atoms: C5_7  and  C6_8 
REMARK    7  A    between atoms: C6_8  and  C7_9 
REMARK    8  A    between atoms: C7_9  and  C8_10 
REMARK    9  A    between atoms: C8_10  and  O3_11 
REMARK   10  A    between atoms: N1_13  and  O4_15 
REMARK       I    between atoms: N2_17  and  C9_19 
REMARK   11  A    between atoms: C9_19  and  O6_21 
REMARK   12  A    between atoms: O6_21  and  C10_22 
ROOT
HETATM    1  C3  UNL     1       2.023  12.754  20.744  1.00  0.00     0.186 C 
ENDROOT
BRANCH   1   2
HETATM    2  C2  UNL     1       3.360  13.217  20.365  1.00  0.00     0.281 C 
HETATM    3  O2  UNL     1       4.338  12.409  20.525  1.00  0.00    -0.263 OA
BRANCH   2   4
HETATM    4  O1  UNL     1       3.688  14.453  19.848  1.00  0.00    -0.325 OA
HETATM    5  C1  UNL     1       4.594  15.337  20.490  1.00  0.00     0.213 C 
ENDBRANCH   2   4
ENDBRANCH   1   2
BRANCH   1   6
HETATM    6  C4  UNL     1       0.978  13.335  19.846  1.00  0.00     0.035 C 
BRANCH   6   7
HETATM    7  C5  UNL     1       0.875  12.712  18.486  1.00  0.00     0.003 C 
BRANCH   7   8
HETATM    8  C6  UNL     1       0.033  13.684  17.634  1.00  0.00     0.008 C 
BRANCH   8   9
HETATM    9  C7  UNL     1       0.846  14.147  16.438  1.00  0.00     0.086 C 
BRANCH   9  10
HETATM   10  C8  UNL     1       1.749  15.240  16.837  1.00  0.00     0.135 C 
HETATM   11  N1  UNL     1       3.015  15.040  16.845  1.00  0.00    -0.251 N 
ATOM     12  H1  UNL     1       3.361  14.120  16.572  1.00  0.00     0.196 HD
BRANCH  10  13
HETATM   13  O3  UNL     1       1.252  16.471  17.200  1.00  0.00    -0.348 OA
ATOM     14  H3  UNL     1       0.917  16.622  18.076  1.00  0.00     0.219 HD
ENDBRANCH  10  13
BRANCH  11  15
HETATM   15  O4  UNL     1       3.928  15.997  17.201  1.00  0.00    -0.288 OA
ATOM     16  H4  UNL     1       4.685  16.220  16.673  1.00  0.00     0.244 HD
ENDBRANCH  11  15
ENDBRANCH   9  10
ENDBRANCH   8   9
ENDBRANCH   7   8
ENDBRANCH   6   7
ENDBRANCH   1   6
BRANCH   1  17
HETATM   17  N2  UNL     1       1.981  11.297  20.666  1.00  0.00    -0.323 N 
HETATM   18  C9  UNL     1       1.129  10.568  21.544  1.00  0.00     0.362 C 
HETATM   19  O5  UNL     1       0.419  11.185  22.380  1.00  0.00    -0.238 OA
ATOM     20  H2  UNL     1       2.559  10.803  19.986  1.00  0.00     0.165 HD
BRANCH  18  21
HETATM   21  O6  UNL     1       1.033   9.196  21.532  1.00  0.00    -0.294 OA
BRANCH  21  22
HETATM   22  C10 UNL     1       1.969   8.322  22.128  1.00  0.00     0.061 C 
HETATM   23  C11 UNL     1       3.075   7.925  21.208  1.00  0.00     0.046 C 
HETATM   24  C12 UNL     1       1.201   7.047  22.495  1.00  0.00     0.046 C 
HETATM   25  C13 UNL     1       2.522   8.879  23.417  1.00  0.00     0.046 C 
ENDBRANCH  21  22
ENDBRANCH  18  21
ENDBRANCH   1  17
TORSDOF 12
ENDMDL
MODEL 2
REMARK VINA RESULT: -5.698513718      0.864      1.223
REMARK  12 active torsions:
REMARK  status: ('A' for Active; 'I' for Inactive)
REMARK    1  A    between atoms: O1_2  and  C2_3 
REMARK    2  A    between atoms: C2_3  and  C3_5 
REMARK    3  A    between atoms: C3_5  and  C4_6 
REMARK    4  A    between atoms: C3_5  and  N2_17 
REMARK    5  A    between atoms: C4_6  and  C5_7 
REMARK    6  A    between atoms: C5_7  and  C6_8 
REMARK    7  A    between atoms: C6_8  and  C7_9 
REMARK    8  A    between atoms: C7_9  and  C8_10 
REMARK    9  A    between atoms: C8_10  and  O3_11 
REMARK   10  A    between atoms: N1_13  and  O4_15 
REMARK       I    between atoms: N2_17  and  C9_19 
REMARK   11  A    between atoms: C9_19  and  O6_21 
REMARK   12  A    between atoms: O6_21  and  C10_22 
ROOT
HETATM    1  C3  UNL     1       1.929  12.840  20.847  1.00  0.00     0.186 C 
ENDROOT
BRANCH   1   2
HETATM    2  C2  UNL     1       3.289  13.363  20.698  1.00  0.00     0.281 C 
HETATM    3  O2  UNL     1       4.129  12.663  20.036  1.00  0.00    -0.263 OA
BRANCH   2   4
HETATM    4  O1  UNL     1       3.775  14.550  21.206  1.00  0.00    -0.325 OA
HETATM    5  C1  UNL     1       4.598  15.428  20.453  1.00  0.00     0.213 C 
ENDBRANCH   2   4
ENDBRANCH   1   2
BRANCH   1   6
HETATM    6  C4  UNL     1       1.011  13.429  19.824  1.00  0.00     0.035 C 
BRANCH   6   7
HETATM    7  C5  UNL     1       0.963  12.712  18.508  1.00  0.00     0.003 C 
BRANCH   7   8
HETATM    8  C6  UNL     1       0.946  13.809  17.424  1.00  0.00     0.008 C 
BRANCH   8   9
HETATM    9  C7  UNL     1       2.272  14.548  17.428  1.00  0.00     0.086 C 
BRANCH   9  10
HETATM   10  C8  UNL     1       2.043  15.993  17.259  1.00  0.00     0.135 C 
HETATM   11  N1  UNL     1       0.915  16.405  16.808  1.00  0.00    -0.251 N 
ATOM     12  H1  UNL     1       0.204  15.710  16.578  1.00  0.00     0.196 HD
BRANCH  10  13
HETATM   13  O3  UNL     1       3.022  16.906  17.578  1.00  0.00    -0.348 OA
ATOM     14  H3  UNL     1       3.883  16.856  17.182  1.00  0.00     0.219 HD
ENDBRANCH  10  13
BRANCH  11  15
HETATM   15  O4  UNL     1       0.615  17.727  16.619  1.00  0.00    -0.288 OA
ATOM     16  H4  UNL     1       1.036  18.271  15.964  1.00  0.00     0.244 HD
ENDBRANCH  11  15
ENDBRANCH   9  10
ENDBRANCH   8   9
ENDBRANCH   7   8
ENDBRANCH   6   7
ENDBRANCH   1   6
BRANCH   1  17
HETATM   17  N2  UNL     1       1.957  11.387  20.701  1.00  0.00    -0.323 N 
HETATM   18  C9  UNL     1       1.115  10.581  21.518  1.00  0.00     0.362 C 
HETATM   19  O5  UNL     1       0.353  11.125  22.358  1.00  0.00    -0.238 OA
ATOM     20  H2  UNL     1       2.577  10.953  20.017  1.00  0.00     0.165 HD
BRANCH  18  21
HETATM   21  O6  UNL     1       1.083   9.208  21.440  1.00  0.00    -0.294 OA
BRANCH  21  22
HETATM   22  C10 UNL     1       2.013   8.348  22.065  1.00  0.00     0.061 C 
HETATM   23  C11 UNL     1       3.131   7.935  21.167  1.00  0.00     0.046 C 
HETATM   24  C12 UNL     1       1.243   7.080  22.448  1.00  0.00     0.046 C 
HETATM   25  C13 UNL     1       2.549   8.932  23.350  1.00  0.00     0.046 C 
ENDBRANCH  21  22
ENDBRANCH  18  21
ENDBRANCH   1  17
TORSDOF 12
ENDMDL
MODEL 3
REMARK VINA RESULT: -5.645254630      1.570      1.982
REMARK  12 active torsions:
REMARK  status: ('A' for Active; 'I' for Inactive)
REMARK    1  A    between atoms: O1_2  and  C2_3 
REMARK    2  A    between atoms: C2_3  and  C3_5 
REMARK    3  A    between atoms: C3_5  and  C4_6 
REMARK    4  A    between atoms: C3_5  and  N2_17 
REMARK    5  A    between atoms: C4_6  and  C5_7 
REMARK    6  A    between atoms: C5_7  and  C6_8 
REMARK    7  A    between atoms: C6_8  and  C7_9 
REMARK    8  A    between atoms: C7_9  and  C8_10 
REMARK    9  A    between atoms: C8_10  and  O3_11 
REMARK   10  A    between atoms: N1_13  and  O4_15 
REMARK       I    between atoms: N2_17  and  C9_19 
REMARK   11  A    between atoms: C9_19  and  O6_21 
REMARK   12  A    between atoms: O6_21  and  C10_22 
ROOT
HETATM    1  C3  UNL     1       1.982  12.785  20.721  1.00  0.00     0.186 C 
ENDROOT
BRANCH   1   2
HETATM    2  C2  UNL     1       3.316  13.263  20.351  1.00  0.00     0.281 C 
HETATM    3  O2  UNL     1       4.296  12.451  20.474  1.00  0.00    -0.263 OA
BRANCH   2   4
HETATM    4  O1  UNL     1       3.639  14.517  19.878  1.00  0.00    -0.325 OA
HETATM    5  C1  UNL     1       4.580  15.362  20.523  1.00  0.00     0.213 C 
ENDBRANCH   2   4
ENDBRANCH   1   2
BRANCH   1   6
HETATM    6  C4  UNL     1       0.936  13.358  19.819  1.00  0.00     0.035 C 
BRANCH   6   7
HETATM    7  C5  UNL     1       0.979  12.887  18.396  1.00  0.00     0.003 C 
BRANCH   7   8
HETATM    8  C6  UNL     1       0.993  14.160  17.525  1.00  0.00     0.008 C 
BRANCH   8   9
HETATM    9  C7  UNL     1       0.524  13.821  16.122  1.00  0.00     0.086 C 
BRANCH   9  10
HETATM   10  C8  UNL     1      -0.425  14.842  15.648  1.00  0.00     0.135 C 
HETATM   11  N1  UNL     1      -1.609  14.880  16.140  1.00  0.00    -0.251 N 
ATOM     12  H1  UNL     1      -1.857  14.193  16.853  1.00  0.00     0.196 HD
BRANCH  10  13
HETATM   13  O3  UNL     1      -0.060  15.755  14.685  1.00  0.00    -0.348 OA
ATOM     14  H3  UNL     1      -0.226  15.586  13.765  1.00  0.00     0.219 HD
ENDBRANCH  10  13
BRANCH  11  15
HETATM   15  O4  UNL     1      -2.555  15.793  15.760  1.00  0.00    -0.288 OA
ATOM     16  H4  UNL     1      -3.468  15.571  15.615  1.00  0.00     0.244 HD
ENDBRANCH  11  15
ENDBRANCH   9  10
ENDBRANCH   8   9
ENDBRANCH   7   8
ENDBRANCH   6   7
ENDBRANCH   1   6
BRANCH   1  17
HETATM   17  N2  UNL     1       1.955  11.327  20.637  1.00  0.00    -0.323 N 
HETATM   18  C9  UNL     1       1.118  10.586  21.518  1.00  0.00     0.362 C 
HETATM   19  O5  UNL     1       0.407  11.192  22.361  1.00  0.00    -0.238 OA
ATOM     20  H2  UNL     1       2.535  10.843  19.952  1.00  0.00     0.165 HD
BRANCH  18  21
HETATM   21  O6  UNL     1       1.036   9.213  21.501  1.00  0.00    -0.294 OA
BRANCH  21  22
HETATM   22  C10 UNL     1       1.969   8.348  22.115  1.00  0.00     0.061 C 
HETATM   23  C11 UNL     1       3.109   7.981  21.224  1.00  0.00     0.046 C 
HETATM   24  C12 UNL     1       1.213   7.056  22.444  1.00  0.00     0.046 C 
HETATM   25  C13 UNL     1       2.474   8.898  23.427  1.00  0.00     0.046 C 
ENDBRANCH  21  22
ENDBRANCH  18  21
ENDBRANCH   1  17
TORSDOF 12
ENDMDL
MODEL 4
REMARK VINA RESULT: -5.573195755      2.545      4.168
REMARK  12 active torsions:
REMARK  status: ('A' for Active; 'I' for Inactive)
REMARK    1  A    between atoms: O1_2  and  C2_3 
REMARK    2  A    between atoms: C2_3  and  C3_5 
REMARK    3  A    between atoms: C3_5  and  C4_6 
REMARK    4  A    between atoms: C3_5  and  N2_17 
REMARK    5  A    between atoms: C4_6  and  C5_7 
REMARK    6  A    between atoms: C5_7  and  C6_8 
REMARK    7  A    between atoms: C6_8  and  C7_9 
REMARK    8  A    between atoms: C7_9  and  C8_10 
REMARK    9  A    between atoms: C8_10  and  O3_11 
REMARK   10  A    between atoms: N1_13  and  O4_15 
REMARK       I    between atoms: N2_17  and  C9_19 
REMARK   11  A    between atoms: C9_19  and  O6_21 
REMARK   12  A    between atoms: O6_21  and  C10_22 
ROOT
HETATM    1  C3  UNL     1       2.521  12.430  20.042  1.00  0.00     0.186 C 
ENDROOT
BRANCH   1   2
HETATM    2  C2  UNL     1       1.320  13.048  19.476  1.00  0.00     0.281 C 
HETATM    3  O2  UNL     1       0.476  13.565  20.285  1.00  0.00    -0.263 OA
BRANCH   2   4
HETATM    4  O1  UNL     1       0.989  13.133  18.139  1.00  0.00    -0.325 OA
HETATM    5  C1  UNL     1       1.288  14.271  17.346  1.00  0.00     0.213 C 
ENDBRANCH   2   4
ENDBRANCH   1   2
BRANCH   1   6
HETATM    6  C4  UNL     1       3.397  13.452  20.691  1.00  0.00     0.035 C 
BRANCH   6   7
HETATM    7  C5  UNL     1       4.123  14.372  19.756  1.00  0.00     0.003 C 
BRANCH   7   8
HETATM    8  C6  UNL     1       4.628  15.547  20.618  1.00  0.00     0.008 C 
BRANCH   8   9
HETATM    9  C7  UNL     1       4.532  15.178  22.087  1.00  0.00     0.086 C 
BRANCH   9  10
HETATM   10  C8  UNL     1       4.585  16.395  22.915  1.00  0.00     0.135 C 
HETATM   11  N1  UNL     1       3.765  17.352  22.683  1.00  0.00    -0.251 N 
ATOM     12  H1  UNL     1       3.093  17.240  21.924  1.00  0.00     0.196 HD
BRANCH  10  13
HETATM   13  O3  UNL     1       5.503  16.517  23.933  1.00  0.00    -0.348 OA
ATOM     14  H3  UNL     1       5.424  16.001  24.726  1.00  0.00     0.219 HD
ENDBRANCH  10  13
BRANCH  11  15
HETATM   15  O4  UNL     1       3.743  18.518  23.402  1.00  0.00    -0.288 OA
ATOM     16  H4  UNL     1       3.307  19.308  23.104  1.00  0.00     0.244 HD
ENDBRANCH  11  15
ENDBRANCH   9  10
ENDBRANCH   8   9
ENDBRANCH   7   8
ENDBRANCH   6   7
ENDBRANCH   1   6
BRANCH   1  17
HETATM   17  N2  UNL     1       2.124  11.428  21.027  1.00  0.00    -0.323 N 
HETATM   18  C9  UNL     1       1.500  10.223  20.595  1.00  0.00     0.362 C 
HETATM   19  O5  UNL     1       1.296  10.031  19.369  1.00  0.00    -0.238 OA
ATOM     20  H2  UNL     1       2.292  11.591  22.020  1.00  0.00     0.165 HD
BRANCH  18  21
HETATM   21  O6  UNL     1       1.098   9.232  21.460  1.00  0.00    -0.294 OA
BRANCH  21  22
HETATM   22  C10 UNL     1       1.975   8.368  22.152  1.00  0.00     0.061 C 
HETATM   23  C11 UNL     1       3.201   8.026  21.374  1.00  0.00     0.046 C 
HETATM   24  C12 UNL     1       1.205   7.064  22.388  1.00  0.00     0.046 C 
HETATM   25  C13 UNL     1       2.341   8.906  23.514  1.00  0.00     0.046 C 
ENDBRANCH  21  22
ENDBRANCH  18  21
ENDBRANCH   1  17
TORSDOF 12
ENDMDL
MODEL 5
REMARK VINA RESULT: -5.471774858      3.030      5.132
REMARK  12 active torsions:
REMARK  status: ('A' for Active; 'I' for Inactive)
REMARK    1  A    between atoms: O1_2  and  C2_3 
REMARK    2  A    between atoms: C2_3  and  C3_5 
REMARK    3  A    between atoms: C3_5  and  C4_6 
REMARK    4  A    between atoms: C3_5  and  N2_17 
REMARK    5  A    between atoms: C4_6  and  C5_7 
REMARK    6  A    between atoms: C5_7  and  C6_8 
REMARK    7  A    between atoms: C6_8  and  C7_9 
REMARK    8  A    between atoms: C7_9  and  C8_10 
REMARK    9  A    between atoms: C8_10  and  O3_11 
REMARK   10  A    between atoms: N1_13  and  O4_15 
REMARK       I    between atoms: N2_17  and  C9_19 
REMARK   11  A    between atoms: C9_19  and  O6_21 
REMARK   12  A    between atoms: O6_21  and  C10_22 
ROOT
HETATM    1  C3  UNL     1       3.378  12.949  20.089  1.00  0.00     0.186 C 
ENDROOT
BRANCH   1   2
HETATM    2  C2  UNL     1       2.722  13.563  18.933  1.00  0.00     0.281 C 
HETATM    3  O2  UNL     1       3.465  14.059  18.018  1.00  0.00    -0.263 OA
BRANCH   2   4
HETATM    4  O1  UNL     1       1.363  13.671  18.718  1.00  0.00    -0.325 OA
HETATM    5  C1  UNL     1       0.800  13.811  17.423  1.00  0.00     0.213 C 
ENDBRANCH   2   4
ENDBRANCH   1   2
BRANCH   1   6
HETATM    6  C4  UNL     1       3.282  13.831  21.293  1.00  0.00     0.035 C 
BRANCH   6   7
HETATM    7  C5  UNL     1       4.333  14.894  21.404  1.00  0.00     0.003 C 
BRANCH   7   8
HETATM    8  C6  UNL     1       4.137  15.546  22.788  1.00  0.00     0.008 C 
BRANCH   8   9
HETATM    9  C7  UNL     1       5.395  16.302  23.177  1.00  0.00     0.086 C 
BRANCH   9  10
HETATM   10  C8  UNL     1       6.163  15.525  24.165  1.00  0.00     0.135 C 
HETATM   11  N1  UNL     1       7.442  15.487  24.082  1.00  0.00    -0.251 N 
ATOM     12  H1  UNL     1       7.892  16.003  23.325  1.00  0.00     0.196 HD
BRANCH  10  13
HETATM   13  O3  UNL     1       5.526  14.840  25.175  1.00  0.00    -0.348 OA
ATOM     14  H3  UNL     1       4.975  14.091  24.983  1.00  0.00     0.219 HD
ENDBRANCH  10  13
BRANCH  11  15
HETATM   15  O4  UNL     1       8.234  14.792  24.956  1.00  0.00    -0.288 OA
ATOM     16  H4  UNL     1       9.074  14.417  24.716  1.00  0.00     0.244 HD
ENDBRANCH  11  15
ENDBRANCH   9  10
ENDBRANCH   8   9
ENDBRANCH   7   8
ENDBRANCH   6   7
ENDBRANCH   1   6
BRANCH   1  17
HETATM   17  N2  UNL     1       2.746  11.664  20.372  1.00  0.00    -0.323 N 
HETATM   18  C9  UNL     1       3.547  10.558  20.776  1.00  0.00     0.362 C 
HETATM   19  O5  UNL     1       4.792  10.697  20.888  1.00  0.00    -0.238 OA
ATOM     20  H2  UNL     1       1.736  11.559  20.279  1.00  0.00     0.165 HD
BRANCH  18  21
HETATM   21  O6  UNL     1       3.027   9.317  21.060  1.00  0.00    -0.294 OA
BRANCH  21  22
HETATM   22  C10 UNL     1       2.290   9.004  22.224  1.00  0.00     0.061 C 
HETATM   23  C11 UNL     1       3.139   8.883  23.445  1.00  0.00     0.046 C 
HETATM   24  C12 UNL     1       1.648   7.635  21.977  1.00  0.00     0.046 C 
HETATM   25  C13 UNL     1       1.159   9.976  22.456  1.00  0.00     0.046 C 
ENDBRANCH  21  22
ENDBRANCH  18  21
ENDBRANCH   1  17
TORSDOF 12
ENDMDL
