MODEL 1
REMARK VINA RESULT: -7.095138659      0.000      0.000
REMARK  8 active torsions:
REMARK  status: ('A' for Active; 'I' for Inactive)
REMARK    1  A    between atoms: C5_6  and  C6_7 
REMARK    2  A    between atoms: C6_7  and  C7_8 
REMARK    3  A    between atoms: C7_8  and  C8_9 
REMARK    4  A    between atoms: C8_9  and  C9_10 
REMARK    5  A    between atoms: C9_10  and  O2_11 
REMARK    6  A    between atoms: C9_10  and  C10_13 
REMARK    7  A    between atoms: C10_13  and  C11_14 
REMARK    8  A    between atoms: C13_19  and  O5_20 
ROOT
HETATM    1  C9  UNL     1       1.509  12.123  19.368  1.00  0.00     0.123 C 
ENDROOT
BRANCH   1   2
HETATM    2  C8  UNL     1       1.526  12.161  20.885  1.00  0.00     0.032 C 
BRANCH   2   3
HETATM    3  C7  UNL     1       0.631  11.130  21.500  1.00  0.00     0.005 C 
BRANCH   3   4
HETATM    4  C6  UNL     1       1.359  10.090  22.301  1.00  0.00     0.032 C 
BRANCH   4   5
HETATM    5  C5  UNL     1       1.571   8.814  21.514  1.00  0.00     0.121 C 
HETATM    6  O1  UNL     1       2.588   9.010  20.629  1.00  0.00    -0.386 OA
HETATM    7  C4  UNL     1       3.831   8.589  20.993  1.00  0.00     0.168 C 
HETATM    8  C3  UNL     1       4.093   8.434  22.450  1.00  0.00     0.030 C 
HETATM    9  C2  UNL     1       2.969   7.863  23.251  1.00  0.00    -0.014 C 
HETATM   10  C1  UNL     1       3.349   6.588  23.961  1.00  0.00     0.010 C 
HETATM   11  C14 UNL     1       1.745   7.632  22.412  1.00  0.00     0.036 C 
ENDBRANCH   4   5
ENDBRANCH   3   4
ENDBRANCH   2   3
ENDBRANCH   1   2
BRANCH   1  12
HETATM   12  O2  UNL     1       1.014  10.935  18.877  1.00  0.00    -0.395 OA
ATOM     13  H2  UNL     1       0.825  10.977  17.947  1.00  0.00     0.210 HD
ENDBRANCH   1  12
BRANCH   1  14
HETATM   14  C10 UNL     1       0.661  13.278  18.914  1.00  0.00     0.083 C 
BRANCH  14  15
HETATM   15  C11 UNL     1       1.396  14.158  17.940  1.00  0.00     0.049 A 
HETATM   16  S1  UNL     1       3.004  14.773  17.974  1.00  0.00    -0.021 SA
HETATM   17  C12 UNL     1       2.951  15.640  16.503  1.00  0.00     0.334 A 
HETATM   18  O3  UNL     1       3.848  16.347  15.919  1.00  0.00    -0.251 OA
HETATM   19  O4  UNL     1       1.750  15.410  16.096  1.00  0.00    -0.245 OA
HETATM   20  C13 UNL     1       0.957  14.698  16.757  1.00  0.00     0.200 A 
BRANCH  20  21
HETATM   21  O5  UNL     1      -0.370  14.437  16.323  1.00  0.00    -0.340 OA
ATOM     22  H5  UNL     1      -0.636  14.704  15.451  1.00  0.00     0.220 HD
ENDBRANCH  20  21
ENDBRANCH  14  15
ENDBRANCH   1  14
TORSDOF 8
ENDMDL
MODEL 2
REMARK VINA RESULT: -6.843683478      1.434      1.801
REMARK  8 active torsions:
REMARK  status: ('A' for Active; 'I' for Inactive)
REMARK    1  A    between atoms: C5_6  and  C6_7 
REMARK    2  A    between atoms: C6_7  and  C7_8 
REMARK    3  A    between atoms: C7_8  and  C8_9 
REMARK    4  A    between atoms: C8_9  and  C9_10 
REMARK    5  A    between atoms: C9_10  and  O2_11 
REMARK    6  A    between atoms: C9_10  and  C10_13 
REMARK    7  A    between atoms: C10_13  and  C11_14 
REMARK    8  A    between atoms: C13_19  and  O5_20 
ROOT
HETATM    1  C9  UNL     1       2.086  13.035  20.334  1.00  0.00     0.123 C 
ENDROOT
BRANCH   1   2
HETATM    2  C8  UNL     1       1.163  12.556  21.438  1.00  0.00     0.032 C 
BRANCH   2   3
HETATM    3  C7  UNL     1       0.647  11.170  21.201  1.00  0.00     0.005 C 
BRANCH   3   4
HETATM    4  C6  UNL     1       1.286  10.125  22.068  1.00  0.00     0.032 C 
BRANCH   4   5
HETATM    5  C5  UNL     1       2.042   9.096  21.253  1.00  0.00     0.121 C 
HETATM    6  O1  UNL     1       3.217   9.645  20.839  1.00  0.00    -0.386 OA
HETATM    7  C4  UNL     1       4.332   9.379  21.576  1.00  0.00     0.168 C 
HETATM    8  C3  UNL     1       4.125   8.973  22.992  1.00  0.00     0.030 C 
HETATM    9  C2  UNL     1       2.967   8.062  23.242  1.00  0.00    -0.014 C 
HETATM   10  C1  UNL     1       3.380   6.753  23.866  1.00  0.00     0.010 C 
HETATM   11  C14 UNL     1       2.181   7.802  21.988  1.00  0.00     0.036 C 
ENDBRANCH   4   5
ENDBRANCH   3   4
ENDBRANCH   2   3
ENDBRANCH   1   2
BRANCH   1  12
HETATM   12  O2  UNL     1       3.373  12.564  20.481  1.00  0.00    -0.395 OA
ATOM     13  H2  UNL     1       3.981  13.244  20.744  1.00  0.00     0.210 HD
ENDBRANCH   1  12
BRANCH   1  14
HETATM   14  C10 UNL     1       1.494  12.561  19.036  1.00  0.00     0.083 C 
BRANCH  14  15
HETATM   15  C11 UNL     1       1.572  13.619  17.970  1.00  0.00     0.049 A 
HETATM   16  S1  UNL     1       0.396  14.151  16.829  1.00  0.00    -0.021 SA
HETATM   17  C12 UNL     1       1.346  15.345  16.059  1.00  0.00     0.334 A 
HETATM   18  O3  UNL     1       1.065  16.139  15.091  1.00  0.00    -0.251 OA
HETATM   19  O4  UNL     1       2.460  15.262  16.703  1.00  0.00    -0.245 OA
HETATM   20  C13 UNL     1       2.619  14.442  17.638  1.00  0.00     0.200 A 
BRANCH  20  21
HETATM   21  O5  UNL     1       3.840  14.337  18.356  1.00  0.00    -0.340 OA
ATOM     22  H5  UNL     1       4.350  15.120  18.523  1.00  0.00     0.220 HD
ENDBRANCH  20  21
ENDBRANCH  14  15
ENDBRANCH   1  14
TORSDOF 8
ENDMDL
MODEL 3
REMARK VINA RESULT: -6.777381174      1.801      2.393
REMARK  8 active torsions:
REMARK  status: ('A' for Active; 'I' for Inactive)
REMARK    1  A    between atoms: C5_6  and  C6_7 
REMARK    2  A    between atoms: C6_7  and  C7_8 
REMARK    3  A    between atoms: C7_8  and  C8_9 
REMARK    4  A    between atoms: C8_9  and  C9_10 
REMARK    5  A    between atoms: C9_10  and  O2_11 
REMARK    6  A    between atoms: C9_10  and  C10_13 
REMARK    7  A    between atoms: C10_13  and  C11_14 
REMARK    8  A    between atoms: C13_19  and  O5_20 
ROOT
HETATM    1  C9  UNL     1       1.078  12.664  21.052  1.00  0.00     0.123 C 
ENDROOT
BRANCH   1   2
HETATM    2  C8  UNL     1       0.689  11.513  21.960  1.00  0.00     0.032 C 
BRANCH   2   3
HETATM    3  C7  UNL     1       1.122  10.182  21.426  1.00  0.00     0.005 C 
BRANCH   3   4
HETATM    4  C6  UNL     1       1.700   9.267  22.464  1.00  0.00     0.032 C 
BRANCH   4   5
HETATM    5  C5  UNL     1       2.763   8.354  21.888  1.00  0.00     0.121 C 
HETATM    6  O1  UNL     1       3.068   8.778  20.630  1.00  0.00    -0.386 OA
HETATM    7  C4  UNL     1       4.161   9.579  20.482  1.00  0.00     0.168 C 
HETATM    8  C3  UNL     1       4.616  10.330  21.684  1.00  0.00     0.030 C 
HETATM    9  C2  UNL     1       4.545   9.585  22.977  1.00  0.00    -0.014 C 
HETATM   10  C1  UNL     1       5.888   9.462  23.652  1.00  0.00     0.010 C 
HETATM   11  C14 UNL     1       3.936   8.223  22.804  1.00  0.00     0.036 C 
ENDBRANCH   4   5
ENDBRANCH   3   4
ENDBRANCH   2   3
ENDBRANCH   1   2
BRANCH   1  12
HETATM   12  O2  UNL     1       2.087  13.436  21.583  1.00  0.00    -0.395 OA
ATOM     13  H2  UNL     1       2.821  13.535  20.988  1.00  0.00     0.210 HD
ENDBRANCH   1  12
BRANCH   1  14
HETATM   14  C10 UNL     1       1.506  12.060  19.744  1.00  0.00     0.083 C 
BRANCH  14  15
HETATM   15  C11 UNL     1       1.821  13.117  18.721  1.00  0.00     0.049 A 
HETATM   16  S1  UNL     1       0.820  13.868  17.537  1.00  0.00    -0.021 SA
HETATM   17  C12 UNL     1       1.998  14.903  16.861  1.00  0.00     0.334 A 
HETATM   18  O3  UNL     1       1.910  15.757  15.907  1.00  0.00    -0.251 OA
HETATM   19  O4  UNL     1       3.044  14.618  17.560  1.00  0.00    -0.245 OA
HETATM   20  C13 UNL     1       3.009  13.759  18.473  1.00  0.00     0.200 A 
BRANCH  20  21
HETATM   21  O5  UNL     1       4.151  13.432  19.251  1.00  0.00    -0.340 OA
ATOM     22  H5  UNL     1       5.017  13.555  18.880  1.00  0.00     0.220 HD
ENDBRANCH  20  21
ENDBRANCH  14  15
ENDBRANCH   1  14
TORSDOF 8
ENDMDL
MODEL 4
REMARK VINA RESULT: -6.763833103      2.003      2.415
REMARK  8 active torsions:
REMARK  status: ('A' for Active; 'I' for Inactive)
REMARK    1  A    between atoms: C5_6  and  C6_7 
REMARK    2  A    between atoms: C6_7  and  C7_8 
REMARK    3  A    between atoms: C7_8  and  C8_9 
REMARK    4  A    between atoms: C8_9  and  C9_10 
REMARK    5  A    between atoms: C9_10  and  O2_11 
REMARK    6  A    between atoms: C9_10  and  C10_13 
REMARK    7  A    between atoms: C10_13  and  C11_14 
REMARK    8  A    between atoms: C13_19  and  O5_20 
ROOT
HETATM    1  C9  UNL     1       1.484  11.195  19.720  1.00  0.00     0.123 C 
ENDROOT
BRANCH   1   2
HETATM    2  C8  UNL     1       0.995  11.161  21.155  1.00  0.00     0.032 C 
BRANCH   2   3
HETATM    3  C7  UNL     1       0.771   9.768  21.658  1.00  0.00     0.005 C 
BRANCH   3   4
HETATM    4  C6  UNL     1       1.620   9.402  22.840  1.00  0.00     0.032 C 
BRANCH   4   5
HETATM    5  C5  UNL     1       2.505   8.206  22.555  1.00  0.00     0.121 C 
HETATM    6  O1  UNL     1       2.695   8.114  21.209  1.00  0.00    -0.386 OA
HETATM    7  C4  UNL     1       3.838   8.650  20.696  1.00  0.00     0.168 C 
HETATM    8  C3  UNL     1       4.511   9.704  21.501  1.00  0.00     0.030 C 
HETATM    9  C2  UNL     1       4.524   9.480  22.978  1.00  0.00    -0.014 C 
HETATM   10  C1  UNL     1       5.920   9.415  23.546  1.00  0.00     0.010 C 
HETATM   11  C14 UNL     1       3.762   8.243  23.362  1.00  0.00     0.036 C 
ENDBRANCH   4   5
ENDBRANCH   3   4
ENDBRANCH   2   3
ENDBRANCH   1   2
BRANCH   1  12
HETATM   12  O2  UNL     1       0.887  10.232  18.937  1.00  0.00    -0.395 OA
ATOM     13  H2  UNL     1       1.311  10.136  18.092  1.00  0.00     0.210 HD
ENDBRANCH   1  12
BRANCH   1  14
HETATM   14  C10 UNL     1       1.182  12.569  19.190  1.00  0.00     0.083 C 
BRANCH  14  15
HETATM   15  C11 UNL     1       2.348  13.503  19.369  1.00  0.00     0.049 A 
HETATM   16  S1  UNL     1       3.317  13.837  20.753  1.00  0.00    -0.021 SA
HETATM   17  C12 UNL     1       4.359  14.983  20.034  1.00  0.00     0.334 A 
HETATM   18  O3  UNL     1       5.341  15.645  20.529  1.00  0.00    -0.251 OA
HETATM   19  O4  UNL     1       3.915  15.034  18.824  1.00  0.00    -0.245 OA
HETATM   20  C13 UNL     1       2.941  14.335  18.453  1.00  0.00     0.200 A 
BRANCH  20  21
HETATM   21  O5  UNL     1       2.438  14.380  17.126  1.00  0.00    -0.340 OA
ATOM     22  H5  UNL     1       1.598  13.980  16.933  1.00  0.00     0.220 HD
ENDBRANCH  20  21
ENDBRANCH  14  15
ENDBRANCH   1  14
TORSDOF 8
ENDMDL
MODEL 5
REMARK VINA RESULT: -6.757730570      1.726      2.489
REMARK  8 active torsions:
REMARK  status: ('A' for Active; 'I' for Inactive)
REMARK    1  A    between atoms: C5_6  and  C6_7 
REMARK    2  A    between atoms: C6_7  and  C7_8 
REMARK    3  A    between atoms: C7_8  and  C8_9 
REMARK    4  A    between atoms: C8_9  and  C9_10 
REMARK    5  A    between atoms: C9_10  and  O2_11 
REMARK    6  A    between atoms: C9_10  and  C10_13 
REMARK    7  A    between atoms: C10_13  and  C11_14 
REMARK    8  A    between atoms: C13_19  and  O5_20 
ROOT
HETATM    1  C9  UNL     1       1.487  11.077  20.037  1.00  0.00     0.123 C 
ENDROOT
BRANCH   1   2
HETATM    2  C8  UNL     1       0.830  10.352  21.197  1.00  0.00     0.032 C 
BRANCH   2   3
HETATM    3  C7  UNL     1       1.238   8.914  21.286  1.00  0.00     0.005 C 
BRANCH   3   4
HETATM    4  C6  UNL     1       2.046   8.584  22.507  1.00  0.00     0.032 C 
BRANCH   4   5
HETATM    5  C5  UNL     1       3.340   7.879  22.157  1.00  0.00     0.121 C 
HETATM    6  O1  UNL     1       3.657   8.164  20.863  1.00  0.00    -0.386 OA
HETATM    7  C4  UNL     1       4.545   9.173  20.638  1.00  0.00     0.168 C 
HETATM    8  C3  UNL     1       4.699  10.190  21.714  1.00  0.00     0.030 C 
HETATM    9  C2  UNL     1       4.679   9.661  23.111  1.00  0.00    -0.014 C 
HETATM   10  C1  UNL     1       5.944   9.975  23.870  1.00  0.00     0.010 C 
HETATM   11  C14 UNL     1       4.420   8.182  23.145  1.00  0.00     0.036 C 
ENDBRANCH   4   5
ENDBRANCH   3   4
ENDBRANCH   2   3
ENDBRANCH   1   2
BRANCH   1  12
HETATM   12  O2  UNL     1       0.918  10.756  18.825  1.00  0.00    -0.395 OA
ATOM     13  H2  UNL     1       1.265  11.278  18.111  1.00  0.00     0.210 HD
ENDBRANCH   1  12
BRANCH   1  14
HETATM   14  C10 UNL     1       1.350  12.549  20.312  1.00  0.00     0.083 C 
BRANCH  14  15
HETATM   15  C11 UNL     1       1.946  13.378  19.208  1.00  0.00     0.049 A 
HETATM   16  S1  UNL     1       1.203  14.165  17.868  1.00  0.00    -0.021 SA
HETATM   17  C12 UNL     1       2.616  14.838  17.182  1.00  0.00     0.334 A 
HETATM   18  O3  UNL     1       2.772  15.564  16.135  1.00  0.00    -0.251 OA
HETATM   19  O4  UNL     1       3.532  14.432  17.994  1.00  0.00    -0.245 OA
HETATM   20  C13 UNL     1       3.258  13.722  18.991  1.00  0.00     0.200 A 
BRANCH  20  21
HETATM   21  O5  UNL     1       4.254  13.265  19.894  1.00  0.00    -0.340 OA
ATOM     22  H5  UNL     1       5.131  13.626  19.841  1.00  0.00     0.220 HD
ENDBRANCH  20  21
ENDBRANCH  14  15
ENDBRANCH   1  14
TORSDOF 8
ENDMDL
