MODEL 1
REMARK VINA RESULT: -6.738992404      0.000      0.000
REMARK  7 active torsions:
REMARK  status: ('A' for Active; 'I' for Inactive)
REMARK    1  A    between atoms: C2_2  and  C3_3 
REMARK    2  A    between atoms: C3_3  and  C4_4 
REMARK    3  A    between atoms: C4_4  and  C5_5 
REMARK    4  A    between atoms: C5_5  and  C6_6 
REMARK    5  A    between atoms: C6_6  and  N1_7 
REMARK    6  A    between atoms: N2_9  and  C7_11 
REMARK    7  A    between atoms: N4_25  and  O2_27 
ROOT
HETATM    1  C7  UNL     1       7.667  13.606  25.517  1.00  0.00     0.124 C 
HETATM    2  C8  UNL     1       6.279  13.416  26.017  1.00  0.00     0.055 C 
HETATM    3  C9  UNL     1       5.906  12.011  26.352  1.00  0.00     0.234 C 
HETATM    4  N3  UNL     1       6.721  11.061  25.635  1.00  0.00    -0.073 N 
ATOM      5  H31 UNL     1       6.540  11.118  24.632  1.00  0.00     0.277 HD
ATOM      6  H32 UNL     1       6.403  10.109  25.813  1.00  0.00     0.277 HD
HETATM    7  C10 UNL     1       8.113  11.181  25.899  1.00  0.00     0.257 C 
HETATM    8  C11 UNL     1       8.605  12.592  26.105  1.00  0.00     0.106 C 
HETATM    9  C12 UNL     1       8.731  12.783  27.597  1.00  0.00     0.145 C 
HETATM   10  O1  UNL     1       8.076  13.654  28.136  1.00  0.00    -0.297 OA
HETATM   11  C13 UNL     1       9.663  11.878  28.321  1.00  0.00     0.080 C 
HETATM   12  C14 UNL     1      10.904  11.552  27.561  1.00  0.00     0.013 C 
HETATM   13  C15 UNL     1      11.194  12.486  26.415  1.00  0.00     0.056 C 
HETATM   14  C16 UNL     1       9.990  12.757  25.592  1.00  0.00     0.029 C 
HETATM   15  N4  UNL     1      10.163  13.149  24.387  1.00  0.00    -0.276 N 
ATOM     16  H4  UNL     1       9.321  13.328  23.840  1.00  0.00     0.193 HD
ENDROOT
BRANCH   1  17
HETATM   17  N2  UNL     1       8.103  14.922  25.919  1.00  0.00    -0.334 N 
HETATM   18  N1  UNL     1       7.903  15.950  25.292  1.00  0.00    -0.340 N 
ATOM     19  H1  UNL     1       8.274  16.806  25.706  1.00  0.00     0.179 HD
ATOM     20  H2  UNL     1       8.619  14.998  26.795  1.00  0.00     0.180 HD
BRANCH  18  21
HETATM   21  C6  UNL     1       7.219  16.097  24.063  1.00  0.00     0.139 C 
BRANCH  21  22
HETATM   22  C5  UNL     1       6.423  17.389  24.122  1.00  0.00     0.021 C 
BRANCH  22  23
HETATM   23  C4  UNL     1       5.117  17.200  23.381  1.00  0.00     0.002 C 
BRANCH  23  24
HETATM   24  C3  UNL     1       4.619  15.784  23.479  1.00  0.00    -0.000 C 
BRANCH  24  25
HETATM   25  C2  UNL     1       4.075  15.260  22.183  1.00  0.00    -0.005 C 
HETATM   26  C1  UNL     1       4.927  15.873  21.068  1.00  0.00     0.005 C 
ENDBRANCH  24  25
ENDBRANCH  23  24
ENDBRANCH  22  23
ENDBRANCH  21  22
ENDBRANCH  18  21
ENDBRANCH   1  17
BRANCH  15  27
HETATM   27  O2  UNL     1      11.339  13.350  23.764  1.00  0.00    -0.290 OA
ATOM     28  H2  UNL     1      11.696  12.845  23.043  1.00  0.00     0.244 HD
ENDBRANCH  15  27
TORSDOF 7
ENDMDL
MODEL 2
REMARK VINA RESULT: -6.167264086      3.278      4.836
REMARK  7 active torsions:
REMARK  status: ('A' for Active; 'I' for Inactive)
REMARK    1  A    between atoms: C2_2  and  C3_3 
REMARK    2  A    between atoms: C3_3  and  C4_4 
REMARK    3  A    between atoms: C4_4  and  C5_5 
REMARK    4  A    between atoms: C5_5  and  C6_6 
REMARK    5  A    between atoms: C6_6  and  N1_7 
REMARK    6  A    between atoms: N2_9  and  C7_11 
REMARK    7  A    between atoms: N4_25  and  O2_27 
ROOT
HETATM    1  C7  UNL     1       8.756  10.668  25.599  1.00  0.00     0.124 C 
HETATM    2  C8  UNL     1       9.173   9.250  25.772  1.00  0.00     0.055 C 
HETATM    3  C9  UNL     1      10.645   9.012  25.776  1.00  0.00     0.234 C 
HETATM    4  N3  UNL     1      11.354  10.058  25.080  1.00  0.00    -0.073 N 
ATOM      5  H31 UNL     1      11.119  10.051  24.087  1.00  0.00     0.277 HD
ATOM      6  H32 UNL     1      12.348   9.840  25.023  1.00  0.00     0.277 HD
HETATM    7  C10 UNL     1      11.156  11.353  25.632  1.00  0.00     0.257 C 
HETATM    8  C11 UNL     1       9.772  11.612  26.175  1.00  0.00     0.106 C 
HETATM    9  C12 UNL     1       9.867  11.445  27.673  1.00  0.00     0.145 C 
HETATM   10  O1  UNL     1       9.185  10.596  28.214  1.00  0.00    -0.297 OA
HETATM   11  C13 UNL     1      10.803  12.344  28.398  1.00  0.00     0.080 C 
HETATM   12  C14 UNL     1      10.854  13.732  27.855  1.00  0.00     0.013 C 
HETATM   13  C15 UNL     1       9.690  14.096  26.971  1.00  0.00     0.056 C 
HETATM   14  C16 UNL     1       9.379  13.032  25.985  1.00  0.00     0.029 C 
HETATM   15  N4  UNL     1       8.743  13.363  24.926  1.00  0.00    -0.276 N 
ATOM     16  H4  UNL     1       8.541  12.615  24.262  1.00  0.00     0.193 HD
ENDROOT
BRANCH   1  17
HETATM   17  N2  UNL     1       7.510  10.850  26.303  1.00  0.00    -0.334 N 
HETATM   18  N1  UNL     1       6.421  11.010  25.774  1.00  0.00    -0.340 N 
ATOM     19  H1  UNL     1       5.628  11.125  26.406  1.00  0.00     0.179 HD
ATOM     20  H2  UNL     1       7.541  10.845  27.322  1.00  0.00     0.180 HD
BRANCH  18  21
HETATM   21  C6  UNL     1       6.127  11.054  24.391  1.00  0.00     0.139 C 
BRANCH  21  22
HETATM   22  C5  UNL     1       5.943   9.626  23.907  1.00  0.00     0.021 C 
BRANCH  22  23
HETATM   23  C4  UNL     1       4.919   9.610  22.792  1.00  0.00     0.002 C 
BRANCH  23  24
HETATM   24  C3  UNL     1       3.681   8.849  23.181  1.00  0.00    -0.000 C 
BRANCH  24  25
HETATM   25  C2  UNL     1       3.203   7.914  22.110  1.00  0.00    -0.005 C 
HETATM   26  C1  UNL     1       1.730   7.620  22.408  1.00  0.00     0.005 C 
ENDBRANCH  24  25
ENDBRANCH  23  24
ENDBRANCH  22  23
ENDBRANCH  21  22
ENDBRANCH  18  21
ENDBRANCH   1  17
BRANCH  15  27
HETATM   27  O2  UNL     1       8.312  14.594  24.594  1.00  0.00    -0.290 OA
ATOM     28  H2  UNL     1       8.056  14.895  23.730  1.00  0.00     0.244 HD
ENDBRANCH  15  27
TORSDOF 7
ENDMDL
MODEL 3
REMARK VINA RESULT: -6.159005508      0.989      2.088
REMARK  7 active torsions:
REMARK  status: ('A' for Active; 'I' for Inactive)
REMARK    1  A    between atoms: C2_2  and  C3_3 
REMARK    2  A    between atoms: C3_3  and  C4_4 
REMARK    3  A    between atoms: C4_4  and  C5_5 
REMARK    4  A    between atoms: C5_5  and  C6_6 
REMARK    5  A    between atoms: C6_6  and  N1_7 
REMARK    6  A    between atoms: N2_9  and  C7_11 
REMARK    7  A    between atoms: N4_25  and  O2_27 
ROOT
HETATM    1  C7  UNL     1       7.660  13.468  25.451  1.00  0.00     0.124 C 
HETATM    2  C8  UNL     1       6.281  13.209  25.943  1.00  0.00     0.055 C 
HETATM    3  C9  UNL     1       6.001  11.802  26.351  1.00  0.00     0.234 C 
HETATM    4  N3  UNL     1       6.890  10.873  25.698  1.00  0.00    -0.073 N 
ATOM      5  H31 UNL     1       6.722  10.863  24.692  1.00  0.00     0.277 HD
ATOM      6  H32 UNL     1       6.635   9.912  25.925  1.00  0.00     0.277 HD
HETATM    7  C10 UNL     1       8.266  11.103  25.973  1.00  0.00     0.257 C 
HETATM    8  C11 UNL     1       8.657  12.555  26.106  1.00  0.00     0.106 C 
HETATM    9  C12 UNL     1       8.744  12.835  27.588  1.00  0.00     0.145 C 
HETATM   10  O1  UNL     1       8.022  13.686  28.069  1.00  0.00    -0.297 OA
HETATM   11  C13 UNL     1       9.725  12.038  28.372  1.00  0.00     0.080 C 
HETATM   12  C14 UNL     1      10.997  11.758  27.648  1.00  0.00     0.013 C 
HETATM   13  C15 UNL     1      11.241  12.646  26.455  1.00  0.00     0.056 C 
HETATM   14  C16 UNL     1      10.036  12.787  25.603  1.00  0.00     0.029 C 
HETATM   15  N4  UNL     1      10.201  13.124  24.381  1.00  0.00    -0.276 N 
ATOM     16  H4  UNL     1       9.357  13.214  23.814  1.00  0.00     0.193 HD
ENDROOT
BRANCH   1  17
HETATM   17  N2  UNL     1       7.999  14.830  25.785  1.00  0.00    -0.334 N 
HETATM   18  N1  UNL     1       7.917  15.782  25.025  1.00  0.00    -0.340 N 
ATOM     19  H1  UNL     1       8.193  16.687  25.407  1.00  0.00     0.179 HD
ATOM     20  H2  UNL     1       8.333  15.013  26.731  1.00  0.00     0.180 HD
BRANCH  18  21
HETATM   21  C6  UNL     1       7.485  15.779  23.677  1.00  0.00     0.139 C 
BRANCH  21  22
HETATM   22  C5  UNL     1       6.131  16.462  23.619  1.00  0.00     0.021 C 
BRANCH  22  23
HETATM   23  C4  UNL     1       6.218  17.795  24.333  1.00  0.00     0.002 C 
BRANCH  23  24
HETATM   24  C3  UNL     1       6.751  18.876  23.434  1.00  0.00    -0.000 C 
BRANCH  24  25
HETATM   25  C2  UNL     1       8.048  19.456  23.916  1.00  0.00    -0.005 C 
HETATM   26  C1  UNL     1       8.036  19.351  25.444  1.00  0.00     0.005 C 
ENDBRANCH  24  25
ENDBRANCH  23  24
ENDBRANCH  22  23
ENDBRANCH  21  22
ENDBRANCH  18  21
ENDBRANCH   1  17
BRANCH  15  27
HETATM   27  O2  UNL     1      11.370  13.373  23.763  1.00  0.00    -0.290 OA
ATOM     28  H2  UNL     1      11.538  13.347  22.828  1.00  0.00     0.244 HD
ENDBRANCH  15  27
TORSDOF 7
ENDMDL
MODEL 4
REMARK VINA RESULT: -5.934480396      2.704      6.713
REMARK  7 active torsions:
REMARK  status: ('A' for Active; 'I' for Inactive)
REMARK    1  A    between atoms: C2_2  and  C3_3 
REMARK    2  A    between atoms: C3_3  and  C4_4 
REMARK    3  A    between atoms: C4_4  and  C5_5 
REMARK    4  A    between atoms: C5_5  and  C6_6 
REMARK    5  A    between atoms: C6_6  and  N1_7 
REMARK    6  A    between atoms: N2_9  and  C7_11 
REMARK    7  A    between atoms: N4_25  and  O2_27 
ROOT
HETATM    1  C7  UNL     1       6.339  16.634  23.967  1.00  0.00     0.124 C 
HETATM    2  C8  UNL     1       5.248  15.957  23.217  1.00  0.00     0.055 C 
HETATM    3  C9  UNL     1       4.197  16.858  22.662  1.00  0.00     0.234 C 
HETATM    4  N3  UNL     1       4.122  18.099  23.394  1.00  0.00    -0.073 N 
ATOM      5  H31 UNL     1       3.807  17.932  24.350  1.00  0.00     0.277 HD
ATOM      6  H32 UNL     1       3.348  18.669  23.055  1.00  0.00     0.277 HD
HETATM    7  C10 UNL     1       5.333  18.844  23.390  1.00  0.00     0.257 C 
HETATM    8  C11 UNL     1       6.593  18.017  23.436  1.00  0.00     0.106 C 
HETATM    9  C12 UNL     1       7.113  17.957  22.019  1.00  0.00     0.145 C 
HETATM   10  O1  UNL     1       7.229  16.874  21.480  1.00  0.00    -0.297 OA
HETATM   11  C13 UNL     1       7.455  19.249  21.367  1.00  0.00     0.080 C 
HETATM   12  C14 UNL     1       8.073  20.248  22.287  1.00  0.00     0.013 C 
HETATM   13  C15 UNL     1       8.614  19.663  23.566  1.00  0.00     0.056 C 
HETATM   14  C16 UNL     1       7.664  18.713  24.195  1.00  0.00     0.029 C 
HETATM   15  N4  UNL     1       7.781  18.490  25.448  1.00  0.00    -0.276 N 
ATOM     16  H4  UNL     1       7.117  17.833  25.859  1.00  0.00     0.193 HD
ENDROOT
BRANCH   1  17
HETATM   17  N2  UNL     1       7.540  15.852  23.801  1.00  0.00    -0.334 N 
HETATM   18  N1  UNL     1       7.980  15.058  24.617  1.00  0.00    -0.340 N 
ATOM     19  H1  UNL     1       8.842  14.577  24.356  1.00  0.00     0.179 HD
ATOM     20  H2  UNL     1       8.063  15.972  22.933  1.00  0.00     0.180 HD
BRANCH  18  21
HETATM   21  C6  UNL     1       7.438  14.724  25.880  1.00  0.00     0.139 C 
BRANCH  21  22
HETATM   22  C5  UNL     1       6.589  13.476  25.709  1.00  0.00     0.021 C 
BRANCH  22  23
HETATM   23  C4  UNL     1       7.348  12.474  24.865  1.00  0.00     0.002 C 
BRANCH  23  24
HETATM   24  C3  UNL     1       7.030  11.057  25.260  1.00  0.00    -0.000 C 
BRANCH  24  25
HETATM   25  C2  UNL     1       7.647  10.659  26.568  1.00  0.00    -0.005 C 
HETATM   26  C1  UNL     1       8.868   9.797  26.234  1.00  0.00     0.005 C 
ENDBRANCH  24  25
ENDBRANCH  23  24
ENDBRANCH  22  23
ENDBRANCH  21  22
ENDBRANCH  18  21
ENDBRANCH   1  17
BRANCH  15  27
HETATM   27  O2  UNL     1       8.689  19.030  26.284  1.00  0.00    -0.290 OA
ATOM     28  H2  UNL     1       8.517  19.442  27.122  1.00  0.00     0.244 HD
ENDBRANCH  15  27
TORSDOF 7
ENDMDL
MODEL 5
REMARK VINA RESULT: -5.810569112      6.511      9.340
REMARK  7 active torsions:
REMARK  status: ('A' for Active; 'I' for Inactive)
REMARK    1  A    between atoms: C2_2  and  C3_3 
REMARK    2  A    between atoms: C3_3  and  C4_4 
REMARK    3  A    between atoms: C4_4  and  C5_5 
REMARK    4  A    between atoms: C5_5  and  C6_6 
REMARK    5  A    between atoms: C6_6  and  N1_7 
REMARK    6  A    between atoms: N2_9  and  C7_11 
REMARK    7  A    between atoms: N4_25  and  O2_27 
ROOT
HETATM    1  C7  UNL     1       2.545  11.247  21.026  1.00  0.00     0.124 C 
HETATM    2  C8  UNL     1       1.521  10.354  21.631  1.00  0.00     0.055 C 
HETATM    3  C9  UNL     1       0.228  11.009  21.982  1.00  0.00     0.234 C 
HETATM    4  N3  UNL     1       0.390  12.427  22.188  1.00  0.00    -0.073 N 
ATOM      5  H31 UNL     1       0.972  12.606  23.006  1.00  0.00     0.277 HD
ATOM      6  H32 UNL     1      -0.484  12.846  22.503  1.00  0.00     0.277 HD
HETATM    7  C10 UNL     1       0.896  13.120  21.054  1.00  0.00     0.257 C 
HETATM    8  C11 UNL     1       1.909  12.356  20.238  1.00  0.00     0.106 C 
HETATM    9  C12 UNL     1       1.163  11.804  19.046  1.00  0.00     0.145 C 
HETATM   10  O1  UNL     1       1.128  10.600  18.881  1.00  0.00    -0.297 OA
HETATM   11  C13 UNL     1       0.513  12.786  18.138  1.00  0.00     0.080 C 
HETATM   12  C14 UNL     1       1.295  14.040  17.941  1.00  0.00     0.013 C 
HETATM   13  C15 UNL     1       2.745  13.937  18.337  1.00  0.00     0.056 C 
HETATM   14  C16 UNL     1       2.923  13.269  19.650  1.00  0.00     0.029 C 
HETATM   15  N4  UNL     1       4.002  13.497  20.297  1.00  0.00    -0.276 N 
ATOM     16  H4  UNL     1       4.102  13.028  21.197  1.00  0.00     0.193 HD
ENDROOT
BRANCH   1  17
HETATM   17  N2  UNL     1       3.350  10.451  20.131  1.00  0.00    -0.334 N 
HETATM   18  N1  UNL     1       4.430   9.955  20.410  1.00  0.00    -0.340 N 
ATOM     19  H1  UNL     1       4.881   9.416  19.669  1.00  0.00     0.179 HD
ATOM     20  H2  UNL     1       2.988  10.290  19.191  1.00  0.00     0.180 HD
BRANCH  18  21
HETATM   21  C6  UNL     1       5.131  10.037  21.636  1.00  0.00     0.139 C 
BRANCH  21  22
HETATM   22  C5  UNL     1       4.874   8.755  22.408  1.00  0.00     0.021 C 
BRANCH  22  23
HETATM   23  C4  UNL     1       4.105   9.084  23.670  1.00  0.00     0.002 C 
BRANCH  23  24
HETATM   24  C3  UNL     1       2.950   8.143  23.880  1.00  0.00    -0.000 C 
BRANCH  24  25
HETATM   25  C2  UNL     1       2.690   7.256  22.699  1.00  0.00    -0.005 C 
HETATM   26  C1  UNL     1       1.170   7.102  22.590  1.00  0.00     0.005 C 
ENDBRANCH  24  25
ENDBRANCH  23  24
ENDBRANCH  22  23
ENDBRANCH  21  22
ENDBRANCH  18  21
ENDBRANCH   1  17
BRANCH  15  27
HETATM   27  O2  UNL     1       5.020  14.291  19.916  1.00  0.00    -0.290 OA
ATOM     28  H2  UNL     1       5.912  14.270  20.242  1.00  0.00     0.244 HD
ENDBRANCH  15  27
TORSDOF 7
ENDMDL
