MODEL 1
REMARK VINA RESULT: -6.863575620      0.000      0.000
REMARK  9 active torsions:
REMARK  status: ('A' for Active; 'I' for Inactive)
REMARK    1  A    between atoms: C2_2  and  C3_3 
REMARK    2  A    between atoms: C3_3  and  C4_4 
REMARK    3  A    between atoms: C4_4  and  C5_5 
REMARK    4  A    between atoms: C5_5  and  O1_6 
REMARK    5  A    between atoms: O1_6  and  C6_7 
REMARK    6  A    between atoms: C6_7  and  C7_9 
REMARK    7  A    between atoms: C9_13  and  O3_14 
REMARK    8  A    between atoms: C11_18  and  O4_19 
REMARK    9  A    between atoms: C13_22  and  C14_23 
ROOT
HETATM    1  C7  UNL     1       3.707  12.754  19.886  1.00  0.00     0.124 A 
HETATM    2  N1  UNL     1       4.194  13.645  19.036  1.00  0.00    -0.346 N 
ATOM      3  H1  UNL     1       5.177  13.912  18.984  1.00  0.00     0.166 HD
HETATM    4  C8  UNL     1       3.229  14.154  18.252  1.00  0.00     0.100 A 
HETATM    5  C9  UNL     1       2.911  15.032  17.223  1.00  0.00     0.172 A 
HETATM    6  N2  UNL     1       1.586  14.944  16.999  1.00  0.00    -0.310 N 
HETATM    7  C10 UNL     1       0.857  15.704  15.997  1.00  0.00     0.160 C 
HETATM    8  C11 UNL     1       1.011  14.066  17.814  1.00  0.00     0.157 A 
HETATM    9  C12 UNL     1       2.040  13.559  18.611  1.00  0.00     0.062 A 
HETATM   10  C13 UNL     1       2.336  12.680  19.637  1.00  0.00     0.059 A 
ENDROOT
BRANCH   1  11
HETATM   11  C6  UNL     1       4.407  11.975  20.900  1.00  0.00     0.311 C 
HETATM   12  O2  UNL     1       4.826  12.472  21.950  1.00  0.00    -0.258 OA
BRANCH  11  13
HETATM   13  O1  UNL     1       4.605  10.630  20.668  1.00  0.00    -0.316 OA
BRANCH  13  14
HETATM   14  C5  UNL     1       4.893   9.650  21.621  1.00  0.00     0.179 C 
BRANCH  14  15
HETATM   15  C4  UNL     1       3.839   8.590  21.744  1.00  0.00     0.027 C 
BRANCH  15  16
HETATM   16  C3  UNL     1       3.481   8.322  23.192  1.00  0.00     0.002 C 
BRANCH  16  17
HETATM   17  C2  UNL     1       1.969   8.434  23.325  1.00  0.00    -0.004 C 
HETATM   18  C1  UNL     1       1.290   7.410  22.464  1.00  0.00     0.005 C 
ENDBRANCH  16  17
ENDBRANCH  15  16
ENDBRANCH  14  15
ENDBRANCH  13  14
ENDBRANCH  11  13
ENDBRANCH   1  11
BRANCH  10  19
HETATM   19  C14 UNL     1       1.410  11.826  20.342  1.00  0.00     0.159 C 
HETATM   20  C15 UNL     1       1.092  10.451  19.897  1.00  0.00     0.097 C 
HETATM   21  O5  UNL     1       0.851  12.263  21.373  1.00  0.00    -0.293 OA
ENDBRANCH  10  19
BRANCH   5  22
HETATM   22  O3  UNL     1       3.845  15.832  16.578  1.00  0.00    -0.344 OA
ATOM     23  H3  UNL     1       3.645  16.367  15.818  1.00  0.00     0.219 HD
ENDBRANCH   5  22
BRANCH   8  24
HETATM   24  O4  UNL     1      -0.294  13.647  17.954  1.00  0.00    -0.345 OA
ATOM     25  H4  UNL     1      -0.735  12.838  17.723  1.00  0.00     0.219 HD
ENDBRANCH   8  24
TORSDOF 9
ENDMDL
MODEL 2
REMARK VINA RESULT: -6.793692809      1.392      2.980
REMARK  9 active torsions:
REMARK  status: ('A' for Active; 'I' for Inactive)
REMARK    1  A    between atoms: C2_2  and  C3_3 
REMARK    2  A    between atoms: C3_3  and  C4_4 
REMARK    3  A    between atoms: C4_4  and  C5_5 
REMARK    4  A    between atoms: C5_5  and  O1_6 
REMARK    5  A    between atoms: O1_6  and  C6_7 
REMARK    6  A    between atoms: C6_7  and  C7_9 
REMARK    7  A    between atoms: C9_13  and  O3_14 
REMARK    8  A    between atoms: C11_18  and  O4_19 
REMARK    9  A    between atoms: C13_22  and  C14_23 
ROOT
HETATM    1  C7  UNL     1       1.406  12.223  19.747  1.00  0.00     0.124 A 
HETATM    2  N1  UNL     1       0.541  12.524  18.790  1.00  0.00    -0.346 N 
ATOM      3  H1  UNL     1      -0.360  12.063  18.664  1.00  0.00     0.166 HD
HETATM    4  C8  UNL     1       1.000  13.515  18.006  1.00  0.00     0.100 A 
HETATM    5  C9  UNL     1       0.760  14.337  16.912  1.00  0.00     0.172 A 
HETATM    6  N2  UNL     1       1.824  15.148  16.763  1.00  0.00    -0.310 N 
HETATM    7  C10 UNL     1       1.963  16.159  15.728  1.00  0.00     0.160 C 
HETATM    8  C11 UNL     1       2.750  14.913  17.687  1.00  0.00     0.157 A 
HETATM    9  C12 UNL     1       2.240  13.883  18.480  1.00  0.00     0.062 A 
HETATM   10  C13 UNL     1       2.498  13.074  19.571  1.00  0.00     0.059 A 
ENDROOT
BRANCH   1  11
HETATM   11  C6  UNL     1       1.299  11.219  20.798  1.00  0.00     0.311 C 
HETATM   12  O2  UNL     1       0.779  11.453  21.892  1.00  0.00    -0.258 OA
BRANCH  11  13
HETATM   13  O1  UNL     1       1.803   9.959  20.550  1.00  0.00    -0.316 OA
BRANCH  13  14
HETATM   14  C5  UNL     1       1.646   8.824  21.347  1.00  0.00     0.179 C 
BRANCH  14  15
HETATM   15  C4  UNL     1       2.869   7.958  21.423  1.00  0.00     0.027 C 
BRANCH  15  16
HETATM   16  C3  UNL     1       3.277   7.690  22.858  1.00  0.00     0.002 C 
BRANCH  16  17
HETATM   17  C2  UNL     1       3.726   9.011  23.467  1.00  0.00    -0.004 C 
HETATM   18  C1  UNL     1       5.048   9.428  22.895  1.00  0.00     0.005 C 
ENDBRANCH  16  17
ENDBRANCH  15  16
ENDBRANCH  14  15
ENDBRANCH  13  14
ENDBRANCH  11  13
ENDBRANCH   1  11
BRANCH  10  19
HETATM   19  C14 UNL     1       3.680  13.086  20.401  1.00  0.00     0.159 C 
HETATM   20  C15 UNL     1       4.076  14.260  21.211  1.00  0.00     0.097 C 
HETATM   21  O5  UNL     1       4.402  12.065  20.438  1.00  0.00    -0.293 OA
ENDBRANCH  10  19
BRANCH   5  22
HETATM   22  O3  UNL     1      -0.398  14.282  16.148  1.00  0.00    -0.344 OA
ATOM     23  H3  UNL     1      -1.022  13.566  16.188  1.00  0.00     0.219 HD
ENDBRANCH   5  22
BRANCH   8  24
HETATM   24  O4  UNL     1       3.982  15.481  17.931  1.00  0.00    -0.345 OA
ATOM     25  H4  UNL     1       4.666  15.795  17.352  1.00  0.00     0.219 HD
ENDBRANCH   8  24
TORSDOF 9
ENDMDL
MODEL 3
REMARK VINA RESULT: -6.737727630      1.581      3.143
REMARK  9 active torsions:
REMARK  status: ('A' for Active; 'I' for Inactive)
REMARK    1  A    between atoms: C2_2  and  C3_3 
REMARK    2  A    between atoms: C3_3  and  C4_4 
REMARK    3  A    between atoms: C4_4  and  C5_5 
REMARK    4  A    between atoms: C5_5  and  O1_6 
REMARK    5  A    between atoms: O1_6  and  C6_7 
REMARK    6  A    between atoms: C6_7  and  C7_9 
REMARK    7  A    between atoms: C9_13  and  O3_14 
REMARK    8  A    between atoms: C11_18  and  O4_19 
REMARK    9  A    between atoms: C13_22  and  C14_23 
ROOT
HETATM    1  C7  UNL     1       1.413  12.965  19.312  1.00  0.00     0.124 A 
HETATM    2  N1  UNL     1       0.468  13.131  18.399  1.00  0.00    -0.346 N 
ATOM      3  H1  UNL     1      -0.443  12.673  18.424  1.00  0.00     0.166 HD
HETATM    4  C8  UNL     1       0.861  13.981  17.435  1.00  0.00     0.100 A 
HETATM    5  C9  UNL     1       0.530  14.629  16.252  1.00  0.00     0.172 A 
HETATM    6  N2  UNL     1       1.581  15.388  15.887  1.00  0.00    -0.310 N 
HETATM    7  C10 UNL     1       1.633  16.225  14.701  1.00  0.00     0.160 C 
HETATM    8  C11 UNL     1       2.583  15.281  16.753  1.00  0.00     0.157 A 
HETATM    9  C12 UNL     1       2.141  14.394  17.737  1.00  0.00     0.062 A 
HETATM   10  C13 UNL     1       2.490  13.758  18.914  1.00  0.00     0.059 A 
ENDROOT
BRANCH   1  11
HETATM   11  C6  UNL     1       1.394  12.135  20.511  1.00  0.00     0.311 C 
HETATM   12  O2  UNL     1       0.952  12.538  21.592  1.00  0.00    -0.258 OA
BRANCH  11  13
HETATM   13  O1  UNL     1       1.893  10.852  20.425  1.00  0.00    -0.316 OA
BRANCH  13  14
HETATM   14  C5  UNL     1       1.220   9.671  20.744  1.00  0.00     0.179 C 
BRANCH  14  15
HETATM   15  C4  UNL     1       1.377   9.247  22.174  1.00  0.00     0.027 C 
BRANCH  15  16
HETATM   16  C3  UNL     1       1.830   7.805  22.284  1.00  0.00     0.002 C 
BRANCH  16  17
HETATM   17  C2  UNL     1       2.852   7.725  23.409  1.00  0.00    -0.004 C 
HETATM   18  C1  UNL     1       3.868   8.821  23.273  1.00  0.00     0.005 C 
ENDBRANCH  16  17
ENDBRANCH  15  16
ENDBRANCH  14  15
ENDBRANCH  13  14
ENDBRANCH  11  13
ENDBRANCH   1  11
BRANCH  10  19
HETATM   19  C14 UNL     1       3.741  13.875  19.626  1.00  0.00     0.159 C 
HETATM   20  C15 UNL     1       4.243  15.164  20.153  1.00  0.00     0.097 C 
HETATM   21  O5  UNL     1       4.431  12.848  19.807  1.00  0.00    -0.293 OA
ENDBRANCH  10  19
BRANCH   5  22
HETATM   22  O3  UNL     1      -0.691  14.479  15.608  1.00  0.00    -0.344 OA
ATOM     23  H3  UNL     1      -0.793  14.480  14.664  1.00  0.00     0.219 HD
ENDBRANCH   5  22
BRANCH   8  24
HETATM   24  O4  UNL     1       3.834  15.856  16.799  1.00  0.00    -0.345 OA
ATOM     25  H4  UNL     1       4.469  15.953  17.499  1.00  0.00     0.219 HD
ENDBRANCH   8  24
TORSDOF 9
ENDMDL
MODEL 4
REMARK VINA RESULT: -6.351119446      1.856      3.370
REMARK  9 active torsions:
REMARK  status: ('A' for Active; 'I' for Inactive)
REMARK    1  A    between atoms: C2_2  and  C3_3 
REMARK    2  A    between atoms: C3_3  and  C4_4 
REMARK    3  A    between atoms: C4_4  and  C5_5 
REMARK    4  A    between atoms: C5_5  and  O1_6 
REMARK    5  A    between atoms: O1_6  and  C6_7 
REMARK    6  A    between atoms: C6_7  and  C7_9 
REMARK    7  A    between atoms: C9_13  and  O3_14 
REMARK    8  A    between atoms: C11_18  and  O4_19 
REMARK    9  A    between atoms: C13_22  and  C14_23 
ROOT
HETATM    1  C7  UNL     1       1.355  13.489  18.620  1.00  0.00     0.124 A 
HETATM    2  N1  UNL     1       0.514  13.796  17.644  1.00  0.00    -0.346 N 
ATOM      3  H1  UNL     1      -0.426  13.412  17.552  1.00  0.00     0.166 HD
HETATM    4  C8  UNL     1       1.056  14.680  16.789  1.00  0.00     0.100 A 
HETATM    5  C9  UNL     1       0.884  15.438  15.637  1.00  0.00     0.172 A 
HETATM    6  N2  UNL     1       2.018  16.135  15.427  1.00  0.00    -0.310 N 
HETATM    7  C10 UNL     1       2.241  17.050  14.320  1.00  0.00     0.160 C 
HETATM    8  C11 UNL     1       2.925  15.885  16.366  1.00  0.00     0.157 A 
HETATM    9  C12 UNL     1       2.329  14.966  17.234  1.00  0.00     0.062 A 
HETATM   10  C13 UNL     1       2.519  14.220  18.381  1.00  0.00     0.059 A 
ENDROOT
BRANCH   1  11
HETATM   11  C6  UNL     1       1.164  12.578  19.742  1.00  0.00     0.311 C 
HETATM   12  O2  UNL     1       0.898  12.973  20.881  1.00  0.00    -0.258 OA
BRANCH  11  13
HETATM   13  O1  UNL     1       1.289  11.224  19.512  1.00  0.00    -0.316 OA
BRANCH  13  14
HETATM   14  C5  UNL     1       0.982  10.193  20.403  1.00  0.00     0.179 C 
BRANCH  14  15
HETATM   15  C4  UNL     1       2.154   9.716  21.209  1.00  0.00     0.027 C 
BRANCH  15  16
HETATM   16  C3  UNL     1       1.752   9.367  22.628  1.00  0.00     0.002 C 
BRANCH  16  17
HETATM   17  C2  UNL     1       1.836   7.854  22.776  1.00  0.00    -0.004 C 
HETATM   18  C1  UNL     1       3.105   7.466  23.474  1.00  0.00     0.005 C 
ENDBRANCH  16  17
ENDBRANCH  15  16
ENDBRANCH  14  15
ENDBRANCH  13  14
ENDBRANCH  11  13
ENDBRANCH   1  11
BRANCH  10  19
HETATM   19  C14 UNL     1       3.703  14.185  19.207  1.00  0.00     0.159 C 
HETATM   20  C15 UNL     1       4.232  15.382  19.899  1.00  0.00     0.097 C 
HETATM   21  O5  UNL     1       4.310  13.100  19.346  1.00  0.00    -0.293 OA
ENDBRANCH  10  19
BRANCH   5  22
HETATM   22  O3  UNL     1      -0.279  15.433  14.879  1.00  0.00    -0.344 OA
ATOM     23  H3  UNL     1      -0.290  15.387  13.930  1.00  0.00     0.219 HD
ENDBRANCH   5  22
BRANCH   8  24
HETATM   24  O4  UNL     1       4.205  16.353  16.566  1.00  0.00    -0.345 OA
ATOM     25  H4  UNL     1       4.806  16.279  17.298  1.00  0.00     0.219 HD
ENDBRANCH   8  24
TORSDOF 9
ENDMDL
MODEL 5
REMARK VINA RESULT: -6.040919165      2.947      5.664
REMARK  9 active torsions:
REMARK  status: ('A' for Active; 'I' for Inactive)
REMARK    1  A    between atoms: C2_2  and  C3_3 
REMARK    2  A    between atoms: C3_3  and  C4_4 
REMARK    3  A    between atoms: C4_4  and  C5_5 
REMARK    4  A    between atoms: C5_5  and  O1_6 
REMARK    5  A    between atoms: O1_6  and  C6_7 
REMARK    6  A    between atoms: C6_7  and  C7_9 
REMARK    7  A    between atoms: C9_13  and  O3_14 
REMARK    8  A    between atoms: C11_18  and  O4_19 
REMARK    9  A    between atoms: C13_22  and  C14_23 
ROOT
HETATM    1  C7  UNL     1       3.684  13.004  20.147  1.00  0.00     0.124 A 
HETATM    2  N1  UNL     1       4.543  12.118  20.628  1.00  0.00    -0.346 N 
ATOM      3  H1  UNL     1       5.544  12.286  20.734  1.00  0.00     0.166 HD
HETATM    4  C8  UNL     1       3.930  10.968  20.957  1.00  0.00     0.100 A 
HETATM    5  C9  UNL     1       4.068   9.682  21.465  1.00  0.00     0.172 A 
HETATM    6  N2  UNL     1       2.849   9.108  21.474  1.00  0.00    -0.310 N 
HETATM    7  C10 UNL     1       2.567   7.759  21.935  1.00  0.00     0.160 C 
HETATM    8  C11 UNL     1       1.919   9.932  21.005  1.00  0.00     0.157 A 
HETATM    9  C12 UNL     1       2.589  11.112  20.674  1.00  0.00     0.062 A 
HETATM   10  C13 UNL     1       2.432  12.388  20.166  1.00  0.00     0.059 A 
ENDROOT
BRANCH   1  11
HETATM   11  C6  UNL     1       3.933  14.361  19.678  1.00  0.00     0.311 C 
HETATM   12  O2  UNL     1       3.782  14.695  18.499  1.00  0.00    -0.258 OA
BRANCH  11  13
HETATM   13  O1  UNL     1       4.353  15.302  20.594  1.00  0.00    -0.316 OA
BRANCH  13  14
HETATM   14  C5  UNL     1       4.140  15.279  21.974  1.00  0.00     0.179 C 
BRANCH  14  15
HETATM   15  C4  UNL     1       5.380  15.513  22.786  1.00  0.00     0.027 C 
BRANCH  15  16
HETATM   16  C3  UNL     1       5.074  15.570  24.270  1.00  0.00     0.002 C 
BRANCH  16  17
HETATM   17  C2  UNL     1       6.121  14.732  24.991  1.00  0.00    -0.004 C 
HETATM   18  C1  UNL     1       5.583  14.236  26.300  1.00  0.00     0.005 C 
ENDBRANCH  16  17
ENDBRANCH  15  16
ENDBRANCH  14  15
ENDBRANCH  13  14
ENDBRANCH  11  13
ENDBRANCH   1  11
BRANCH  10  19
HETATM   19  C14 UNL     1       1.201  13.001  19.724  1.00  0.00     0.159 C 
HETATM   20  C15 UNL     1       0.772  13.006  18.308  1.00  0.00     0.097 C 
HETATM   21  O5  UNL     1       0.464  13.552  20.572  1.00  0.00    -0.293 OA
ENDBRANCH  10  19
BRANCH   5  22
HETATM   22  O3  UNL     1       5.279   9.142  21.876  1.00  0.00    -0.344 OA
ATOM     23  H3  UNL     1       6.125   9.510  21.646  1.00  0.00     0.219 HD
ENDBRANCH   5  22
BRANCH   8  24
HETATM   24  O4  UNL     1       0.560   9.791  20.827  1.00  0.00    -0.345 OA
ATOM     25  H4  UNL     1      -0.058   9.130  21.116  1.00  0.00     0.219 HD
ENDBRANCH   8  24
TORSDOF 9
ENDMDL
