MODEL 1
REMARK VINA RESULT: -6.156048900      0.000      0.000
REMARK  5 active torsions:
REMARK  status: ('A' for Active; 'I' for Inactive)
REMARK    1  A    between atoms: N1_2  and  C2_5 
REMARK    2  A    between atoms: C2_5  and  C3_6 
REMARK    3  A    between atoms: C3_6  and  O1_7 
REMARK    4  A    between atoms: O1_7  and  C4_8 
REMARK    5  A    between atoms: C6_10  and  C7_11 
ROOT
HETATM    1  C4  UNL     1      32.854  35.151  35.126  1.00  0.00     0.142 A 
HETATM    2  C5  UNL     1      32.564  36.055  34.137  1.00  0.00     0.074 A 
HETATM    3  C6  UNL     1      33.455  35.914  33.063  1.00  0.00     0.048 A 
HETATM    4  C8  UNL     1      34.291  34.889  33.450  1.00  0.00     0.106 A 
HETATM    5  N3  UNL     1      33.936  34.447  34.657  1.00  0.00    -0.346 N 
ATOM      6  H3  UNL     1      34.402  33.692  35.161  1.00  0.00     0.167 HD
ENDROOT
BRANCH   1   7
HETATM    7  O1  UNL     1      32.229  34.957  36.330  1.00  0.00    -0.334 OA
BRANCH   7   8
HETATM    8  C3  UNL     1      31.450  35.809  37.054  1.00  0.00     0.204 C 
BRANCH   8   9
HETATM    9  C2  UNL     1      30.099  35.235  37.414  1.00  0.00     0.258 C 
BRANCH   9  10
HETATM   10  N1  UNL     1      29.096  36.296  37.443  1.00  0.00    -0.077 N 
HETATM   11  C1  UNL     1      29.760  37.583  37.473  1.00  0.00     0.267 C 
ATOM     12  H12 UNL     1      28.437  36.183  38.213  1.00  0.00     0.276 HD
ATOM     13  H11 UNL     1      28.433  36.221  36.673  1.00  0.00     0.276 HD
ENDBRANCH   9  10
ENDBRANCH   8   9
ENDBRANCH   7   8
ENDBRANCH   1   7
BRANCH   3  14
HETATM   14  C7  UNL     1      33.474  36.685  31.836  1.00  0.00     0.266 C 
HETATM   15  N2  UNL     1      33.909  38.020  31.839  1.00  0.00    -0.057 NA
HETATM   16  O2  UNL     1      33.101  36.150  30.777  1.00  0.00    -0.271 OA
ENDBRANCH   3  14
TORSDOF 5
ENDMDL
MODEL 2
REMARK VINA RESULT: -6.148413198      3.750      5.845
REMARK  5 active torsions:
REMARK  status: ('A' for Active; 'I' for Inactive)
REMARK    1  A    between atoms: N1_2  and  C2_5 
REMARK    2  A    between atoms: C2_5  and  C3_6 
REMARK    3  A    between atoms: C3_6  and  O1_7 
REMARK    4  A    between atoms: O1_7  and  C4_8 
REMARK    5  A    between atoms: C6_10  and  C7_11 
ROOT
HETATM    1  C4  UNL     1      32.891  37.236  29.973  1.00  0.00     0.142 A 
HETATM    2  C5  UNL     1      32.207  38.424  30.000  1.00  0.00     0.074 A 
HETATM    3  C6  UNL     1      32.081  38.949  28.706  1.00  0.00     0.048 A 
HETATM    4  C8  UNL     1      32.717  38.029  27.902  1.00  0.00     0.106 A 
HETATM    5  N3  UNL     1      33.190  37.028  28.648  1.00  0.00    -0.346 N 
ATOM      6  H3  UNL     1      33.701  36.223  28.286  1.00  0.00     0.167 HD
ENDROOT
BRANCH   1   7
HETATM    7  O1  UNL     1      33.223  36.406  31.011  1.00  0.00    -0.334 OA
BRANCH   7   8
HETATM    8  C3  UNL     1      33.368  36.685  32.336  1.00  0.00     0.204 C 
BRANCH   8   9
HETATM    9  C2  UNL     1      33.459  35.454  33.208  1.00  0.00     0.258 C 
BRANCH   9  10
HETATM   10  N1  UNL     1      34.749  35.419  33.892  1.00  0.00    -0.077 N 
HETATM   11  C1  UNL     1      35.193  34.045  34.012  1.00  0.00     0.267 C 
ATOM     12  H12 UNL     1      34.721  35.896  34.794  1.00  0.00     0.276 HD
ATOM     13  H11 UNL     1      35.443  36.012  33.438  1.00  0.00     0.276 HD
ENDBRANCH   9  10
ENDBRANCH   8   9
ENDBRANCH   7   8
ENDBRANCH   1   7
BRANCH   3  14
HETATM   14  C7  UNL     1      31.426  40.185  28.324  1.00  0.00     0.266 C 
HETATM   15  N2  UNL     1      31.312  41.245  29.239  1.00  0.00    -0.057 NA
HETATM   16  O2  UNL     1      30.965  40.299  27.174  1.00  0.00    -0.271 OA
ENDBRANCH   3  14
TORSDOF 5
ENDMDL
MODEL 3
REMARK VINA RESULT: -6.127724438      3.520      6.852
REMARK  5 active torsions:
REMARK  status: ('A' for Active; 'I' for Inactive)
REMARK    1  A    between atoms: N1_2  and  C2_5 
REMARK    2  A    between atoms: C2_5  and  C3_6 
REMARK    3  A    between atoms: C3_6  and  O1_7 
REMARK    4  A    between atoms: O1_7  and  C4_8 
REMARK    5  A    between atoms: C6_10  and  C7_11 
ROOT
HETATM    1  C4  UNL     1      32.844  37.048  29.708  1.00  0.00     0.142 A 
HETATM    2  C5  UNL     1      33.019  36.018  30.596  1.00  0.00     0.074 A 
HETATM    3  C6  UNL     1      33.416  36.509  31.848  1.00  0.00     0.048 A 
HETATM    4  C8  UNL     1      33.471  37.875  31.674  1.00  0.00     0.106 A 
HETATM    5  N3  UNL     1      33.136  38.185  30.420  1.00  0.00    -0.346 N 
ATOM      6  H3  UNL     1      33.102  39.133  30.044  1.00  0.00     0.167 HD
ENDROOT
BRANCH   1   7
HETATM    7  O1  UNL     1      32.460  36.999  28.393  1.00  0.00    -0.334 OA
BRANCH   7   8
HETATM    8  C3  UNL     1      32.734  37.861  27.374  1.00  0.00     0.204 C 
BRANCH   8   9
HETATM    9  C2  UNL     1      31.539  38.674  26.932  1.00  0.00     0.258 C 
BRANCH   9  10
HETATM   10  N1  UNL     1      31.467  39.916  27.699  1.00  0.00    -0.077 N 
HETATM   11  C1  UNL     1      30.315  39.873  28.576  1.00  0.00     0.267 C 
ATOM     12  H12 UNL     1      31.465  40.741  27.098  1.00  0.00     0.276 HD
ATOM     13  H11 UNL     1      32.332  40.108  28.205  1.00  0.00     0.276 HD
ENDBRANCH   9  10
ENDBRANCH   8   9
ENDBRANCH   7   8
ENDBRANCH   1   7
BRANCH   3  14
HETATM   14  C7  UNL     1      33.700  35.736  33.040  1.00  0.00     0.266 C 
HETATM   15  N2  UNL     1      32.894  34.640  33.390  1.00  0.00    -0.057 NA
HETATM   16  O2  UNL     1      34.669  36.053  33.754  1.00  0.00    -0.271 OA
ENDBRANCH   3  14
TORSDOF 5
ENDMDL
MODEL 4
REMARK VINA RESULT: -6.077435780      3.762      5.979
REMARK  5 active torsions:
REMARK  status: ('A' for Active; 'I' for Inactive)
REMARK    1  A    between atoms: N1_2  and  C2_5 
REMARK    2  A    between atoms: C2_5  and  C3_6 
REMARK    3  A    between atoms: C3_6  and  O1_7 
REMARK    4  A    between atoms: O1_7  and  C4_8 
REMARK    5  A    between atoms: C6_10  and  C7_11 
ROOT
HETATM    1  C4  UNL     1      32.236  38.372  30.934  1.00  0.00     0.142 A 
HETATM    2  C5  UNL     1      31.037  38.985  30.678  1.00  0.00     0.074 A 
HETATM    3  C6  UNL     1      31.100  39.712  29.481  1.00  0.00     0.048 A 
HETATM    4  C8  UNL     1      32.386  39.511  29.030  1.00  0.00     0.106 A 
HETATM    5  N3  UNL     1      33.047  38.726  29.884  1.00  0.00    -0.346 N 
ATOM      6  H3  UNL     1      34.017  38.432  29.773  1.00  0.00     0.167 HD
ENDROOT
BRANCH   1   7
HETATM    7  O1  UNL     1      32.590  37.572  31.989  1.00  0.00    -0.334 OA
BRANCH   7   8
HETATM    8  C3  UNL     1      33.436  36.506  32.027  1.00  0.00     0.204 C 
BRANCH   8   9
HETATM    9  C2  UNL     1      33.334  35.697  33.300  1.00  0.00     0.258 C 
BRANCH   9  10
HETATM   10  N1  UNL     1      34.661  35.500  33.876  1.00  0.00    -0.077 N 
HETATM   11  C1  UNL     1      34.913  34.081  34.028  1.00  0.00     0.267 C 
ATOM     12  H12 UNL     1      34.783  36.010  34.751  1.00  0.00     0.276 HD
ATOM     13  H11 UNL     1      35.390  35.966  33.335  1.00  0.00     0.276 HD
ENDBRANCH   9  10
ENDBRANCH   8   9
ENDBRANCH   7   8
ENDBRANCH   1   7
BRANCH   3  14
HETATM   14  C7  UNL     1      30.040  40.493  28.876  1.00  0.00     0.266 C 
HETATM   15  N2  UNL     1      28.707  40.328  29.286  1.00  0.00    -0.057 NA
HETATM   16  O2  UNL     1      30.324  41.316  27.986  1.00  0.00    -0.271 OA
ENDBRANCH   3  14
TORSDOF 5
ENDMDL
MODEL 5
REMARK VINA RESULT: -6.043611125      4.083      5.425
REMARK  5 active torsions:
REMARK  status: ('A' for Active; 'I' for Inactive)
REMARK    1  A    between atoms: N1_2  and  C2_5 
REMARK    2  A    between atoms: C2_5  and  C3_6 
REMARK    3  A    between atoms: C3_6  and  O1_7 
REMARK    4  A    between atoms: O1_7  and  C4_8 
REMARK    5  A    between atoms: C6_10  and  C7_11 
ROOT
HETATM    1  C4  UNL     1      35.335  31.716  35.188  1.00  0.00     0.142 A 
HETATM    2  C5  UNL     1      34.381  32.653  34.885  1.00  0.00     0.074 A 
HETATM    3  C6  UNL     1      34.959  33.754  34.237  1.00  0.00     0.048 A 
HETATM    4  C8  UNL     1      36.298  33.440  34.165  1.00  0.00     0.106 A 
HETATM    5  N3  UNL     1      36.514  32.247  34.722  1.00  0.00    -0.346 N 
ATOM      6  H3  UNL     1      37.425  31.793  34.793  1.00  0.00     0.167 HD
ENDROOT
BRANCH   1   7
HETATM    7  O1  UNL     1      35.191  30.505  35.813  1.00  0.00    -0.334 OA
BRANCH   7   8
HETATM    8  C3  UNL     1      34.070  29.910  36.309  1.00  0.00     0.204 C 
BRANCH   8   9
HETATM    9  C2  UNL     1      33.551  28.784  35.445  1.00  0.00     0.258 C 
BRANCH   9  10
HETATM   10  N1  UNL     1      32.485  29.273  34.574  1.00  0.00    -0.077 N 
HETATM   11  C1  UNL     1      33.033  29.570  33.266  1.00  0.00     0.267 C 
ATOM     12  H12 UNL     1      31.991  30.070  34.976  1.00  0.00     0.276 HD
ATOM     13  H11 UNL     1      31.698  28.625  34.525  1.00  0.00     0.276 HD
ENDBRANCH   9  10
ENDBRANCH   8   9
ENDBRANCH   7   8
ENDBRANCH   1   7
BRANCH   3  14
HETATM   14  C7  UNL     1      34.281  34.943  33.762  1.00  0.00     0.266 C 
HETATM   15  N2  UNL     1      32.997  34.857  33.199  1.00  0.00    -0.057 NA
HETATM   16  O2  UNL     1      34.849  36.046  33.860  1.00  0.00    -0.271 OA
ENDBRANCH   3  14
TORSDOF 5
ENDMDL
