MODEL 1
REMARK VINA RESULT: -6.771492772      0.000      0.000
REMARK  5 active torsions:
REMARK  status: ('A' for Active; 'I' for Inactive)
REMARK    1  A    between atoms: C2_2  and  C4_4 
REMARK    2  A    between atoms: C4_4  and  O1_5 
REMARK    3  A    between atoms: C5_7  and  N1_8 
REMARK    4  A    between atoms: C5_7  and  C9_13 
REMARK    5  A    between atoms: N1_8  and  C6_10 
ROOT
HETATM    1  C4  UNL     1      31.203  38.926  30.002  1.00  0.00     0.078 C 
HETATM    2  C5  UNL     1      32.492  38.460  29.614  1.00  0.00     0.123 C 
ENDROOT
BRANCH   2   3
HETATM    3  N1  UNL     1      32.911  37.993  28.367  1.00  0.00    -0.379 N 
ATOM      4  H1  UNL     1      33.904  37.886  28.163  1.00  0.00     0.160 HD
BRANCH   3   5
HETATM    5  C6  UNL     1      31.944  37.671  27.396  1.00  0.00     0.082 A 
HETATM    6  C7  UNL     1      32.354  37.160  26.049  1.00  0.00     0.027 A 
HETATM    7  C8  UNL     1      31.537  38.405  26.210  1.00  0.00     0.027 A 
ENDBRANCH   3   5
ENDBRANCH   2   3
BRANCH   2   8
HETATM    8  C9  UNL     1      33.131  37.606  30.652  1.00  0.00     0.283 C 
HETATM    9  N2  UNL     1      33.842  38.036  31.767  1.00  0.00    -0.056 NA
HETATM   10  O2  UNL     1      33.025  36.345  30.497  1.00  0.00    -0.269 OA
ENDBRANCH   2   8
BRANCH   1  11
HETATM   11  C2  UNL     1      30.279  39.861  29.396  1.00  0.00     0.036 C 
HETATM   12  C1  UNL     1      30.877  41.243  29.110  1.00  0.00     0.016 C 
HETATM   13  C3  UNL     1      29.180  40.133  30.459  1.00  0.00     0.016 C 
ENDBRANCH   1  11
BRANCH   1  14
HETATM   14  O1  UNL     1      31.232  39.288  31.398  1.00  0.00    -0.362 OA
ATOM     15  H1  UNL     1      31.229  38.461  31.864  1.00  0.00     0.217 HD
ENDBRANCH   1  14
TORSDOF 5
ENDMDL
MODEL 2
REMARK VINA RESULT: -6.592309224      1.559      3.563
REMARK  5 active torsions:
REMARK  status: ('A' for Active; 'I' for Inactive)
REMARK    1  A    between atoms: C2_2  and  C4_4 
REMARK    2  A    between atoms: C4_4  and  O1_5 
REMARK    3  A    between atoms: C5_7  and  N1_8 
REMARK    4  A    between atoms: C5_7  and  C9_13 
REMARK    5  A    between atoms: N1_8  and  C6_10 
ROOT
HETATM    1  C4  UNL     1      32.458  37.793  28.744  1.00  0.00     0.078 C 
HETATM    2  C5  UNL     1      32.054  37.750  30.110  1.00  0.00     0.123 C 
ENDROOT
BRANCH   2   3
HETATM    3  N1  UNL     1      31.308  38.687  30.828  1.00  0.00    -0.379 N 
ATOM      4  H1  UNL     1      31.546  38.905  31.795  1.00  0.00     0.160 HD
BRANCH   3   5
HETATM    5  C6  UNL     1      30.222  39.326  30.198  1.00  0.00     0.082 A 
HETATM    6  C7  UNL     1      30.245  40.801  29.946  1.00  0.00     0.027 A 
HETATM    7  C8  UNL     1      29.174  40.155  30.769  1.00  0.00     0.027 A 
ENDBRANCH   3   5
ENDBRANCH   2   3
BRANCH   2   8
HETATM    8  C9  UNL     1      33.125  37.244  31.011  1.00  0.00     0.283 C 
HETATM    9  N2  UNL     1      33.997  38.005  31.783  1.00  0.00    -0.056 NA
HETATM   10  O2  UNL     1      33.267  35.979  31.073  1.00  0.00    -0.269 OA
ENDBRANCH   2   8
BRANCH   1  11
HETATM   11  C2  UNL     1      31.740  38.084  27.522  1.00  0.00     0.036 C 
HETATM   12  C1  UNL     1      32.202  37.268  26.310  1.00  0.00     0.016 C 
HETATM   13  C3  UNL     1      32.093  39.550  27.153  1.00  0.00     0.016 C 
ENDBRANCH   1  11
BRANCH   1  14
HETATM   14  O1  UNL     1      33.234  36.614  28.445  1.00  0.00    -0.362 OA
ATOM     15  H1  UNL     1      33.199  36.092  29.238  1.00  0.00     0.217 HD
ENDBRANCH   1  14
TORSDOF 5
ENDMDL
MODEL 3
REMARK VINA RESULT: -6.038796204      4.963      7.316
REMARK  5 active torsions:
REMARK  status: ('A' for Active; 'I' for Inactive)
REMARK    1  A    between atoms: C2_2  and  C4_4 
REMARK    2  A    between atoms: C4_4  and  O1_5 
REMARK    3  A    between atoms: C5_7  and  N1_8 
REMARK    4  A    between atoms: C5_7  and  C9_13 
REMARK    5  A    between atoms: N1_8  and  C6_10 
ROOT
HETATM    1  C4  UNL     1      34.068  33.901  34.811  1.00  0.00     0.078 C 
HETATM    2  C5  UNL     1      33.435  35.057  34.268  1.00  0.00     0.123 C 
ENDROOT
BRANCH   2   3
HETATM    3  N1  UNL     1      33.973  36.028  33.421  1.00  0.00    -0.379 N 
ATOM      4  H1  UNL     1      34.953  36.298  33.502  1.00  0.00     0.160 HD
BRANCH   3   5
HETATM    5  C6  UNL     1      33.145  36.628  32.454  1.00  0.00     0.082 A 
HETATM    6  C7  UNL     1      33.242  36.235  31.012  1.00  0.00     0.027 A 
HETATM    7  C8  UNL     1      33.457  37.646  31.465  1.00  0.00     0.027 A 
ENDBRANCH   3   5
ENDBRANCH   2   3
BRANCH   2   8
HETATM    8  C9  UNL     1      32.567  35.753  35.255  1.00  0.00     0.283 C 
HETATM    9  N2  UNL     1      31.192  35.947  35.169  1.00  0.00    -0.056 NA
HETATM   10  O2  UNL     1      33.144  36.234  36.284  1.00  0.00    -0.269 OA
ENDBRANCH   2   8
BRANCH   1  11
HETATM   11  C2  UNL     1      34.880  32.861  34.215  1.00  0.00     0.036 C 
HETATM   12  C1  UNL     1      35.045  31.612  35.088  1.00  0.00     0.016 C 
HETATM   13  C3  UNL     1      36.314  33.443  34.105  1.00  0.00     0.016 C 
ENDBRANCH   1  11
BRANCH   1  14
HETATM   14  O1  UNL     1      33.129  33.200  35.651  1.00  0.00    -0.362 OA
ATOM     15  H1  UNL     1      33.065  33.729  36.438  1.00  0.00     0.217 HD
ENDBRANCH   1  14
TORSDOF 5
ENDMDL
MODEL 4
REMARK VINA RESULT: -5.971030502      2.199      4.017
REMARK  5 active torsions:
REMARK  status: ('A' for Active; 'I' for Inactive)
REMARK    1  A    between atoms: C2_2  and  C4_4 
REMARK    2  A    between atoms: C4_4  and  O1_5 
REMARK    3  A    between atoms: C5_7  and  N1_8 
REMARK    4  A    between atoms: C5_7  and  C9_13 
REMARK    5  A    between atoms: N1_8  and  C6_10 
ROOT
HETATM    1  C4  UNL     1      32.338  37.690  28.935  1.00  0.00     0.078 C 
HETATM    2  C5  UNL     1      32.312  38.429  27.716  1.00  0.00     0.123 C 
ENDROOT
BRANCH   2   3
HETATM    3  N1  UNL     1      31.812  39.712  27.485  1.00  0.00    -0.379 N 
ATOM      4  H1  UNL     1      31.983  40.180  26.596  1.00  0.00     0.160 HD
BRANCH   3   5
HETATM    5  C6  UNL     1      31.069  40.350  28.496  1.00  0.00     0.082 A 
HETATM    6  C7  UNL     1      29.582  40.183  28.575  1.00  0.00     0.027 A 
HETATM    7  C8  UNL     1      30.222  41.529  28.424  1.00  0.00     0.027 A 
ENDBRANCH   3   5
ENDBRANCH   2   3
BRANCH   2   8
HETATM    8  C9  UNL     1      31.951  37.589  26.543  1.00  0.00     0.283 C 
HETATM    9  N2  UNL     1      32.793  36.740  25.831  1.00  0.00    -0.056 NA
HETATM   10  O2  UNL     1      30.745  37.661  26.138  1.00  0.00    -0.269 OA
ENDBRANCH   2   8
BRANCH   1  11
HETATM   11  C2  UNL     1      32.747  38.038  30.279  1.00  0.00     0.036 C 
HETATM   12  C1  UNL     1      33.334  36.872  31.081  1.00  0.00     0.016 C 
HETATM   13  C3  UNL     1      31.448  38.412  31.042  1.00  0.00     0.016 C 
ENDBRANCH   1  11
BRANCH   1  14
HETATM   14  O1  UNL     1      32.932  36.399  28.691  1.00  0.00    -0.362 OA
ATOM     15  H1  UNL     1      32.585  36.127  27.849  1.00  0.00     0.217 HD
ENDBRANCH   1  14
TORSDOF 5
ENDMDL
MODEL 5
REMARK VINA RESULT: -5.942428168      6.054      8.604
REMARK  5 active torsions:
REMARK  status: ('A' for Active; 'I' for Inactive)
REMARK    1  A    between atoms: C2_2  and  C4_4 
REMARK    2  A    between atoms: C4_4  and  O1_5 
REMARK    3  A    between atoms: C5_7  and  N1_8 
REMARK    4  A    between atoms: C5_7  and  C9_13 
REMARK    5  A    between atoms: N1_8  and  C6_10 
ROOT
HETATM    1  C4  UNL     1      34.150  33.385  34.436  1.00  0.00     0.078 C 
HETATM    2  C5  UNL     1      33.538  34.645  34.701  1.00  0.00     0.123 C 
ENDROOT
BRANCH   2   3
HETATM    3  N1  UNL     1      32.263  34.904  35.206  1.00  0.00    -0.379 N 
ATOM      4  H1  UNL     1      31.435  34.560  34.719  1.00  0.00     0.160 HD
BRANCH   3   5
HETATM    5  C6  UNL     1      32.134  35.647  36.394  1.00  0.00     0.082 A 
HETATM    6  C7  UNL     1      31.201  35.202  37.478  1.00  0.00     0.027 A 
HETATM    7  C8  UNL     1      31.071  36.542  36.821  1.00  0.00     0.027 A 
ENDBRANCH   3   5
ENDBRANCH   2   3
BRANCH   2   8
HETATM    8  C9  UNL     1      33.817  35.653  33.644  1.00  0.00     0.283 C 
HETATM    9  N2  UNL     1      33.009  35.971  32.557  1.00  0.00    -0.056 NA
HETATM   10  O2  UNL     1      34.919  36.287  33.736  1.00  0.00    -0.269 OA
ENDBRANCH   2   8
BRANCH   1  11
HETATM   11  C2  UNL     1      34.265  32.171  35.215  1.00  0.00     0.036 C 
HETATM   12  C1  UNL     1      35.670  31.559  35.226  1.00  0.00     0.016 C 
HETATM   13  C3  UNL     1      33.391  31.111  34.494  1.00  0.00     0.016 C 
ENDBRANCH   1  11
BRANCH   1  14
HETATM   14  O1  UNL     1      35.471  33.607  33.900  1.00  0.00    -0.362 OA
ATOM     15  H1  UNL     1      35.753  34.430  34.281  1.00  0.00     0.217 HD
ENDBRANCH   1  14
TORSDOF 5
ENDMDL
