MODEL 1
REMARK VINA RESULT: -6.511168044      0.000      0.000
REMARK  6 active torsions:
REMARK  status: ('A' for Active; 'I' for Inactive)
REMARK    1  A    between atoms: C2_2  and  C4_4 
REMARK    2  A    between atoms: C4_4  and  C5_5 
REMARK    3  A    between atoms: C5_5  and  N1_6 
REMARK    4  A    between atoms: C5_5  and  C9_15 
REMARK    5  A    between atoms: N1_6  and  C6_8 
REMARK    6  A    between atoms: C8_10  and  N2_11 
ROOT
HETATM    1  N1  UNL     1      30.981  38.477  30.804  1.00  0.00    -0.403 N 
ATOM      2  H1  UNL     1      30.404  37.717  31.163  1.00  0.00     0.154 HD
ENDROOT
BRANCH   1   3
HETATM    3  C5  UNL     1      32.327  38.226  30.499  1.00  0.00     0.167 C 
BRANCH   3   4
HETATM    4  C4  UNL     1      32.630  37.311  29.365  1.00  0.00     0.038 C 
BRANCH   4   5
HETATM    5  C2  UNL     1      33.000  37.987  28.072  1.00  0.00    -0.020 C 
HETATM    6  C1  UNL     1      33.209  39.466  28.383  1.00  0.00     0.009 C 
HETATM    7  C3  UNL     1      31.893  37.933  27.039  1.00  0.00     0.009 C 
ENDBRANCH   4   5
ENDBRANCH   3   4
BRANCH   3   8
HETATM    8  C9  UNL     1      33.084  37.706  31.686  1.00  0.00     0.253 C 
HETATM    9  N3  UNL     1      32.556  36.763  32.575  1.00  0.00    -0.060 NA
HETATM   10  O1  UNL     1      34.276  38.134  31.903  1.00  0.00    -0.275 OA
ENDBRANCH   3   8
ENDBRANCH   1   3
BRANCH   1  11
HETATM   11  C6  UNL     1      30.400  39.760  30.625  1.00  0.00     0.109 A 
HETATM   12  C7  UNL     1      28.986  40.089  30.559  1.00  0.00     0.061 A 
HETATM   13  C8  UNL     1      29.752  39.956  29.276  1.00  0.00     0.207 A 
BRANCH  13  14
HETATM   14  N2  UNL     1      29.931  41.153  28.518  1.00  0.00    -0.073 N 
ATOM     15  H23 UNL     1      29.006  41.507  28.272  1.00  0.00     0.274 HD
ATOM     16  H22 UNL     1      30.274  41.875  29.151  1.00  0.00     0.274 HD
ATOM     17  H21 UNL     1      30.508  41.178  27.677  1.00  0.00     0.274 HD
ENDBRANCH  13  14
ENDBRANCH   1  11
TORSDOF 6
ENDMDL
MODEL 2
REMARK VINA RESULT: -6.170921497      5.462      7.490
REMARK  6 active torsions:
REMARK  status: ('A' for Active; 'I' for Inactive)
REMARK    1  A    between atoms: C2_2  and  C4_4 
REMARK    2  A    between atoms: C4_4  and  C5_5 
REMARK    3  A    between atoms: C5_5  and  N1_6 
REMARK    4  A    between atoms: C5_5  and  C9_15 
REMARK    5  A    between atoms: N1_6  and  C6_8 
REMARK    6  A    between atoms: C8_10  and  N2_11 
ROOT
HETATM    1  N1  UNL     1      32.793  34.788  35.711  1.00  0.00    -0.403 N 
ATOM      2  H1  UNL     1      33.291  34.444  36.532  1.00  0.00     0.154 HD
ENDROOT
BRANCH   1   3
HETATM    3  C5  UNL     1      33.285  34.477  34.435  1.00  0.00     0.167 C 
BRANCH   3   4
HETATM    4  C4  UNL     1      34.440  33.543  34.338  1.00  0.00     0.038 C 
BRANCH   4   5
HETATM    5  C2  UNL     1      34.292  32.255  35.102  1.00  0.00    -0.020 C 
HETATM    6  C1  UNL     1      35.679  31.622  35.187  1.00  0.00     0.009 C 
HETATM    7  C3  UNL     1      33.419  31.242  34.388  1.00  0.00     0.009 C 
ENDBRANCH   4   5
ENDBRANCH   3   4
BRANCH   3   8
HETATM    8  C9  UNL     1      33.661  35.709  33.663  1.00  0.00     0.253 C 
HETATM    9  N3  UNL     1      32.752  36.426  32.878  1.00  0.00    -0.060 NA
HETATM   10  O1  UNL     1      34.871  36.139  33.726  1.00  0.00    -0.275 OA
ENDBRANCH   3   8
ENDBRANCH   1   3
BRANCH   1  11
HETATM   11  C6  UNL     1      31.621  35.569  35.891  1.00  0.00     0.109 A 
HETATM   12  C7  UNL     1      31.359  36.543  36.937  1.00  0.00     0.061 A 
HETATM   13  C8  UNL     1      30.792  35.162  37.086  1.00  0.00     0.207 A 
BRANCH  13  14
HETATM   14  N2  UNL     1      29.370  35.050  37.016  1.00  0.00    -0.073 N 
ATOM     15  H23 UNL     1      28.983  35.994  37.012  1.00  0.00     0.274 HD
ATOM     16  H22 UNL     1      29.129  34.717  36.083  1.00  0.00     0.274 HD
ATOM     17  H21 UNL     1      28.838  34.499  37.690  1.00  0.00     0.274 HD
ENDBRANCH  13  14
ENDBRANCH   1  11
TORSDOF 6
ENDMDL
MODEL 3
REMARK VINA RESULT: -6.016247567      1.822      4.147
REMARK  6 active torsions:
REMARK  status: ('A' for Active; 'I' for Inactive)
REMARK    1  A    between atoms: C2_2  and  C4_4 
REMARK    2  A    between atoms: C4_4  and  C5_5 
REMARK    3  A    between atoms: C5_5  and  N1_6 
REMARK    4  A    between atoms: C5_5  and  C9_15 
REMARK    5  A    between atoms: N1_6  and  C6_8 
REMARK    6  A    between atoms: C8_10  and  N2_11 
ROOT
HETATM    1  N1  UNL     1      31.716  38.197  31.112  1.00  0.00    -0.403 N 
ATOM      2  H1  UNL     1      31.079  38.121  31.904  1.00  0.00     0.154 HD
ENDROOT
BRANCH   1   3
HETATM    3  C5  UNL     1      31.319  38.932  29.985  1.00  0.00     0.167 C 
BRANCH   3   4
HETATM    4  C4  UNL     1      32.369  39.648  29.210  1.00  0.00     0.038 C 
BRANCH   4   5
HETATM    5  C2  UNL     1      32.521  39.214  27.777  1.00  0.00    -0.020 C 
HETATM    6  C1  UNL     1      31.299  39.727  27.020  1.00  0.00     0.009 C 
HETATM    7  C3  UNL     1      32.507  37.708  27.611  1.00  0.00     0.009 C 
ENDBRANCH   4   5
ENDBRANCH   3   4
BRANCH   3   8
HETATM    8  C9  UNL     1      30.264  39.946  30.319  1.00  0.00     0.253 C 
HETATM    9  N3  UNL     1      28.996  39.955  29.726  1.00  0.00    -0.060 NA
HETATM   10  O1  UNL     1      30.522  40.849  31.196  1.00  0.00    -0.275 OA
ENDBRANCH   3   8
ENDBRANCH   1   3
BRANCH   1  11
HETATM   11  C6  UNL     1      32.981  37.556  31.179  1.00  0.00     0.109 A 
HETATM   12  C7  UNL     1      33.292  36.176  30.848  1.00  0.00     0.061 A 
HETATM   13  C8  UNL     1      33.095  36.541  32.290  1.00  0.00     0.207 A 
BRANCH  13  14
HETATM   14  N2  UNL     1      34.250  36.463  33.127  1.00  0.00    -0.073 N 
ATOM     15  H23 UNL     1      35.017  36.094  32.565  1.00  0.00     0.274 HD
ATOM     16  H22 UNL     1      34.563  37.415  33.316  1.00  0.00     0.274 HD
ATOM     17  H21 UNL     1      34.242  35.957  34.013  1.00  0.00     0.274 HD
ENDBRANCH  13  14
ENDBRANCH   1  11
TORSDOF 6
ENDMDL
MODEL 4
REMARK VINA RESULT: -5.954020711      2.246      4.508
REMARK  6 active torsions:
REMARK  status: ('A' for Active; 'I' for Inactive)
REMARK    1  A    between atoms: C2_2  and  C4_4 
REMARK    2  A    between atoms: C4_4  and  C5_5 
REMARK    3  A    between atoms: C5_5  and  N1_6 
REMARK    4  A    between atoms: C5_5  and  C9_15 
REMARK    5  A    between atoms: N1_6  and  C6_8 
REMARK    6  A    between atoms: C8_10  and  N2_11 
ROOT
HETATM    1  N1  UNL     1      32.920  38.530  29.160  1.00  0.00    -0.403 N 
ATOM      2  H1  UNL     1      33.839  38.960  29.262  1.00  0.00     0.154 HD
ENDROOT
BRANCH   1   3
HETATM    3  C5  UNL     1      32.129  38.862  28.050  1.00  0.00     0.167 C 
BRANCH   3   4
HETATM    4  C4  UNL     1      30.705  39.222  28.288  1.00  0.00     0.038 C 
BRANCH   4   5
HETATM    5  C2  UNL     1      30.483  40.429  29.159  1.00  0.00    -0.020 C 
HETATM    6  C1  UNL     1      29.236  40.156  29.996  1.00  0.00     0.009 C 
HETATM    7  C3  UNL     1      30.179  41.683  28.364  1.00  0.00     0.009 C 
ENDBRANCH   4   5
ENDBRANCH   3   4
BRANCH   3   8
HETATM    8  C9  UNL     1      32.131  37.774  27.015  1.00  0.00     0.253 C 
HETATM    9  N3  UNL     1      31.390  37.844  25.831  1.00  0.00    -0.060 NA
HETATM   10  O1  UNL     1      32.851  36.727  27.212  1.00  0.00    -0.275 OA
ENDBRANCH   3   8
ENDBRANCH   1   3
BRANCH   1  11
HETATM   11  C6  UNL     1      32.475  37.611  30.147  1.00  0.00     0.109 A 
HETATM   12  C7  UNL     1      31.844  37.917  31.420  1.00  0.00     0.061 A 
HETATM   13  C8  UNL     1      33.312  37.609  31.404  1.00  0.00     0.207 A 
BRANCH  13  14
HETATM   14  N2  UNL     1      33.713  36.397  32.043  1.00  0.00    -0.073 N 
ATOM     15  H23 UNL     1      33.245  36.354  32.949  1.00  0.00     0.274 HD
ATOM     16  H22 UNL     1      33.279  35.622  31.542  1.00  0.00     0.274 HD
ATOM     17  H21 UNL     1      34.694  36.162  32.189  1.00  0.00     0.274 HD
ENDBRANCH  13  14
ENDBRANCH   1  11
TORSDOF 6
ENDMDL
MODEL 5
REMARK VINA RESULT: -5.743248088      9.675     12.080
REMARK  6 active torsions:
REMARK  status: ('A' for Active; 'I' for Inactive)
REMARK    1  A    between atoms: C2_2  and  C4_4 
REMARK    2  A    between atoms: C4_4  and  C5_5 
REMARK    3  A    between atoms: C5_5  and  N1_6 
REMARK    4  A    between atoms: C5_5  and  C9_15 
REMARK    5  A    between atoms: N1_6  and  C6_8 
REMARK    6  A    between atoms: C8_10  and  N2_11 
ROOT
HETATM    1  N1  UNL     1      33.367  28.648  35.582  1.00  0.00    -0.403 N 
ATOM      2  H1  UNL     1      32.441  28.486  35.188  1.00  0.00     0.154 HD
ENDROOT
BRANCH   1   3
HETATM    3  C5  UNL     1      34.229  29.558  34.950  1.00  0.00     0.167 C 
BRANCH   3   4
HETATM    4  C4  UNL     1      34.959  30.537  35.800  1.00  0.00     0.038 C 
BRANCH   4   5
HETATM    5  C2  UNL     1      36.460  30.477  35.709  1.00  0.00    -0.020 C 
HETATM    6  C1  UNL     1      36.908  31.671  34.871  1.00  0.00     0.009 C 
HETATM    7  C3  UNL     1      36.958  29.248  34.975  1.00  0.00     0.009 C 
ENDBRANCH   4   5
ENDBRANCH   3   4
BRANCH   3   8
HETATM    8  C9  UNL     1      33.526  30.350  33.887  1.00  0.00     0.253 C 
HETATM    9  N3  UNL     1      33.012  29.776  32.719  1.00  0.00    -0.060 NA
HETATM   10  O1  UNL     1      33.376  31.616  34.049  1.00  0.00    -0.275 OA
ENDBRANCH   3   8
ENDBRANCH   1   3
BRANCH   1  11
HETATM   11  C6  UNL     1      33.751  27.947  36.755  1.00  0.00     0.109 A 
HETATM   12  C7  UNL     1      34.862  27.023  36.911  1.00  0.00     0.061 A 
HETATM   13  C8  UNL     1      33.487  26.462  36.695  1.00  0.00     0.207 A 
BRANCH  13  14
HETATM   14  N2  UNL     1      32.914  25.751  37.793  1.00  0.00    -0.073 N 
ATOM     15  H23 UNL     1      31.969  26.109  37.936  1.00  0.00     0.274 HD
ATOM     16  H22 UNL     1      32.735  24.795  37.485  1.00  0.00     0.274 HD
ATOM     17  H21 UNL     1      33.370  25.704  38.704  1.00  0.00     0.274 HD
ENDBRANCH  13  14
ENDBRANCH   1  11
TORSDOF 6
ENDMDL
