MODEL 1
REMARK VINA RESULT: -5.962141220      0.000      0.000
REMARK  5 active torsions:
REMARK  status: ('A' for Active; 'I' for Inactive)
REMARK    1  A    between atoms: N1_1  and  C1_5 
REMARK    2  A    between atoms: C1_5  and  C2_6 
REMARK    3  A    between atoms: C2_6  and  N2_7 
REMARK    4  A    between atoms: N2_7  and  C3_10 
REMARK    5  A    between atoms: C6_13  and  C7_14 
ROOT
HETATM    1  C3  UNL     1      34.154  26.987  36.035  1.00  0.00     0.186 C 
HETATM    2  C4  UNL     1      33.477  25.802  36.648  1.00  0.00     0.034 C 
HETATM    3  C5  UNL     1      33.676  25.913  38.148  1.00  0.00     0.015 C 
HETATM    4  C6  UNL     1      35.185  25.952  38.372  1.00  0.00     0.075 C 
HETATM    5  C8  UNL     1      35.785  27.216  37.803  1.00  0.00     0.015 C 
HETATM    6  C9  UNL     1      34.695  27.960  37.046  1.00  0.00     0.034 C 
ENDROOT
BRANCH   1   7
HETATM    7  N2  UNL     1      33.301  27.560  35.044  1.00  0.00    -0.069 N 
ATOM      8  H22 UNL     1      32.615  28.204  35.437  1.00  0.00     0.277 HD
ATOM      9  H21 UNL     1      32.644  26.886  34.650  1.00  0.00     0.277 HD
BRANCH   7  10
HETATM   10  C2  UNL     1      34.140  28.180  34.037  1.00  0.00     0.260 C 
BRANCH  10  11
HETATM   11  C1  UNL     1      33.577  29.519  33.591  1.00  0.00     0.257 C 
BRANCH  11  12
HETATM   12  N1  UNL     1      32.143  29.307  33.375  1.00  0.00    -0.078 N 
ATOM     13  H13 UNL     1      31.629  29.108  34.233  1.00  0.00     0.274 HD
ATOM     14  H12 UNL     1      31.640  30.157  33.121  1.00  0.00     0.274 HD
ATOM     15  H11 UNL     1      32.068  28.567  32.676  1.00  0.00     0.274 HD
ENDBRANCH  11  12
ENDBRANCH  10  11
ENDBRANCH   7  10
ENDBRANCH   1   7
BRANCH   4  16
HETATM   16  C7  UNL     1      35.414  25.825  39.819  1.00  0.00     0.235 C 
HETATM   17  N3  UNL     1      36.680  26.023  40.418  1.00  0.00    -0.062 NA
HETATM   18  O1  UNL     1      34.418  25.524  40.560  1.00  0.00    -0.277 OA
ENDBRANCH   4  16
TORSDOF 5
ENDMDL
MODEL 2
REMARK VINA RESULT: -5.958525846      4.200      5.861
REMARK  5 active torsions:
REMARK  status: ('A' for Active; 'I' for Inactive)
REMARK    1  A    between atoms: N1_1  and  C1_5 
REMARK    2  A    between atoms: C1_5  and  C2_6 
REMARK    3  A    between atoms: C2_6  and  N2_7 
REMARK    4  A    between atoms: N2_7  and  C3_10 
REMARK    5  A    between atoms: C6_13  and  C7_14 
ROOT
HETATM    1  C3  UNL     1      34.948  32.662  34.760  1.00  0.00     0.186 C 
HETATM    2  C4  UNL     1      36.179  31.838  34.972  1.00  0.00     0.034 C 
HETATM    3  C5  UNL     1      35.736  30.388  34.991  1.00  0.00     0.015 C 
HETATM    4  C6  UNL     1      34.710  30.274  36.115  1.00  0.00     0.075 C 
HETATM    5  C8  UNL     1      33.462  31.060  35.791  1.00  0.00     0.015 C 
HETATM    6  C9  UNL     1      33.713  31.842  34.509  1.00  0.00     0.034 C 
ENDROOT
BRANCH   1   7
HETATM    7  N2  UNL     1      35.214  33.666  33.780  1.00  0.00    -0.069 N 
ATOM      8  H22 UNL     1      34.932  33.386  32.840  1.00  0.00     0.277 HD
ATOM      9  H21 UNL     1      36.209  33.784  33.594  1.00  0.00     0.277 HD
BRANCH   7  10
HETATM   10  C2  UNL     1      34.575  34.893  34.215  1.00  0.00     0.260 C 
BRANCH  10  11
HETATM   11  C1  UNL     1      33.526  35.357  33.217  1.00  0.00     0.257 C 
BRANCH  11  12
HETATM   12  N1  UNL     1      33.983  36.658  32.721  1.00  0.00    -0.078 N 
ATOM     13  H13 UNL     1      33.831  36.786  31.720  1.00  0.00     0.274 HD
ATOM     14  H12 UNL     1      33.406  37.438  33.036  1.00  0.00     0.274 HD
ATOM     15  H11 UNL     1      34.961  36.739  32.997  1.00  0.00     0.274 HD
ENDBRANCH  11  12
ENDBRANCH  10  11
ENDBRANCH   7  10
ENDBRANCH   1   7
BRANCH   4  16
HETATM   16  C7  UNL     1      34.435  28.842  36.310  1.00  0.00     0.235 C 
HETATM   17  N3  UNL     1      33.214  28.235  35.937  1.00  0.00    -0.062 NA
HETATM   18  O1  UNL     1      35.348  28.123  36.841  1.00  0.00    -0.277 OA
ENDBRANCH   4  16
TORSDOF 5
ENDMDL
MODEL 3
REMARK VINA RESULT: -5.934425327     10.705     14.307
REMARK  5 active torsions:
REMARK  status: ('A' for Active; 'I' for Inactive)
REMARK    1  A    between atoms: N1_1  and  C1_5 
REMARK    2  A    between atoms: C1_5  and  C2_6 
REMARK    3  A    between atoms: C2_6  and  N2_7 
REMARK    4  A    between atoms: N2_7  and  C3_10 
REMARK    5  A    between atoms: C6_13  and  C7_14 
ROOT
HETATM    1  C3  UNL     1      33.028  37.441  30.408  1.00  0.00     0.186 C 
HETATM    2  C4  UNL     1      32.017  38.284  31.118  1.00  0.00     0.034 C 
HETATM    3  C5  UNL     1      31.096  38.851  30.054  1.00  0.00     0.015 C 
HETATM    4  C6  UNL     1      31.990  39.629  29.093  1.00  0.00     0.075 C 
HETATM    5  C8  UNL     1      32.922  38.702  28.350  1.00  0.00     0.015 C 
HETATM    6  C9  UNL     1      32.767  37.305  28.933  1.00  0.00     0.034 C 
ENDROOT
BRANCH   1   7
HETATM    7  N2  UNL     1      33.190  36.206  31.107  1.00  0.00    -0.069 N 
ATOM      8  H22 UNL     1      33.981  35.660  30.767  1.00  0.00     0.277 HD
ATOM      9  H21 UNL     1      32.456  35.531  30.892  1.00  0.00     0.277 HD
BRANCH   7  10
HETATM   10  C2  UNL     1      33.281  36.505  32.523  1.00  0.00     0.260 C 
BRANCH  10  11
HETATM   11  C1  UNL     1      33.937  35.367  33.289  1.00  0.00     0.257 C 
BRANCH  11  12
HETATM   12  N1  UNL     1      32.971  34.952  34.310  1.00  0.00    -0.078 N 
ATOM     13  H13 UNL     1      32.015  34.888  33.961  1.00  0.00     0.274 HD
ATOM     14  H12 UNL     1      33.069  33.976  34.588  1.00  0.00     0.274 HD
ATOM     15  H11 UNL     1      33.078  35.608  35.084  1.00  0.00     0.274 HD
ENDBRANCH  11  12
ENDBRANCH  10  11
ENDBRANCH   7  10
ENDBRANCH   1   7
BRANCH   4  16
HETATM   16  C7  UNL     1      31.107  40.379  28.187  1.00  0.00     0.235 C 
HETATM   17  N3  UNL     1      30.301  41.459  28.618  1.00  0.00    -0.062 NA
HETATM   18  O1  UNL     1      31.073  40.033  26.959  1.00  0.00    -0.277 OA
ENDBRANCH   4  16
TORSDOF 5
ENDMDL
MODEL 4
REMARK VINA RESULT: -5.851731295      4.627      5.855
REMARK  5 active torsions:
REMARK  status: ('A' for Active; 'I' for Inactive)
REMARK    1  A    between atoms: N1_1  and  C1_5 
REMARK    2  A    between atoms: C1_5  and  C2_6 
REMARK    3  A    between atoms: C2_6  and  N2_7 
REMARK    4  A    between atoms: N2_7  and  C3_10 
REMARK    5  A    between atoms: C6_13  and  C7_14 
ROOT
HETATM    1  C3  UNL     1      35.657  31.949  35.148  1.00  0.00     0.186 C 
HETATM    2  C4  UNL     1      36.362  30.630  35.177  1.00  0.00     0.034 C 
HETATM    3  C5  UNL     1      35.319  29.572  34.869  1.00  0.00     0.015 C 
HETATM    4  C6  UNL     1      34.236  29.722  35.934  1.00  0.00     0.075 C 
HETATM    5  C8  UNL     1      33.513  31.039  35.788  1.00  0.00     0.015 C 
HETATM    6  C9  UNL     1      34.221  31.854  34.715  1.00  0.00     0.034 C 
ENDROOT
BRANCH   1   7
HETATM    7  N2  UNL     1      36.446  32.891  34.419  1.00  0.00    -0.069 N 
ATOM      8  H22 UNL     1      36.389  33.834  34.801  1.00  0.00     0.277 HD
ATOM      9  H21 UNL     1      36.063  33.096  33.495  1.00  0.00     0.277 HD
BRANCH   7  10
HETATM   10  C2  UNL     1      37.804  32.387  34.365  1.00  0.00     0.260 C 
BRANCH  10  11
HETATM   11  C1  UNL     1      38.736  33.377  33.683  1.00  0.00     0.257 C 
BRANCH  11  12
HETATM   12  N1  UNL     1      39.970  33.386  34.475  1.00  0.00    -0.078 N 
ATOM     13  H13 UNL     1      40.432  34.295  34.494  1.00  0.00     0.274 HD
ATOM     14  H12 UNL     1      39.809  33.306  35.478  1.00  0.00     0.274 HD
ATOM     15  H11 UNL     1      40.555  32.641  34.096  1.00  0.00     0.274 HD
ENDBRANCH  11  12
ENDBRANCH  10  11
ENDBRANCH   7  10
ENDBRANCH   1   7
BRANCH   4  16
HETATM   16  C7  UNL     1      33.334  28.569  35.803  1.00  0.00     0.235 C 
HETATM   17  N3  UNL     1      33.270  27.530  36.761  1.00  0.00    -0.062 NA
HETATM   18  O1  UNL     1      32.577  28.513  34.776  1.00  0.00    -0.277 OA
ENDBRANCH   4  16
TORSDOF 5
ENDMDL
MODEL 5
REMARK VINA RESULT: -5.834662884      4.148      6.537
REMARK  5 active torsions:
REMARK  status: ('A' for Active; 'I' for Inactive)
REMARK    1  A    between atoms: N1_1  and  C1_5 
REMARK    2  A    between atoms: C1_5  and  C2_6 
REMARK    3  A    between atoms: C2_6  and  N2_7 
REMARK    4  A    between atoms: N2_7  and  C3_10 
REMARK    5  A    between atoms: C6_13  and  C7_14 
ROOT
HETATM    1  C3  UNL     1      34.447  29.846  36.041  1.00  0.00     0.186 C 
HETATM    2  C4  UNL     1      33.392  30.888  35.840  1.00  0.00     0.034 C 
HETATM    3  C5  UNL     1      33.845  31.749  34.676  1.00  0.00     0.015 C 
HETATM    4  C6  UNL     1      35.208  32.311  35.071  1.00  0.00     0.075 C 
HETATM    5  C8  UNL     1      36.239  31.212  35.170  1.00  0.00     0.015 C 
HETATM    6  C9  UNL     1      35.529  29.877  34.997  1.00  0.00     0.034 C 
ENDROOT
BRANCH   1   7
HETATM    7  N2  UNL     1      33.826  28.573  36.227  1.00  0.00    -0.069 N 
ATOM      8  H22 UNL     1      33.886  27.980  35.400  1.00  0.00     0.277 HD
ATOM      9  H21 UNL     1      32.809  28.633  36.278  1.00  0.00     0.277 HD
BRANCH   7  10
HETATM   10  C2  UNL     1      34.412  27.959  37.402  1.00  0.00     0.260 C 
BRANCH  10  11
HETATM   11  C1  UNL     1      33.377  27.175  38.193  1.00  0.00     0.257 C 
BRANCH  11  12
HETATM   12  N1  UNL     1      33.010  26.027  37.359  1.00  0.00    -0.078 N 
ATOM     13  H13 UNL     1      33.313  26.118  36.389  1.00  0.00     0.274 HD
ATOM     14  H12 UNL     1      33.539  25.182  37.577  1.00  0.00     0.274 HD
ATOM     15  H11 UNL     1      32.002  25.913  37.462  1.00  0.00     0.274 HD
ENDBRANCH  11  12
ENDBRANCH  10  11
ENDBRANCH   7  10
ENDBRANCH   1   7
BRANCH   4  16
HETATM   16  C7  UNL     1      35.566  33.328  34.071  1.00  0.00     0.235 C 
HETATM   17  N3  UNL     1      34.603  34.101  33.381  1.00  0.00    -0.062 NA
HETATM   18  O1  UNL     1      36.805  33.515  33.823  1.00  0.00    -0.277 OA
ENDBRANCH   4  16
TORSDOF 5
ENDMDL
