MODEL 1
REMARK VINA RESULT: -6.650548551      0.000      0.000
REMARK  6 active torsions:
REMARK  status: ('A' for Active; 'I' for Inactive)
REMARK    1  A    between atoms: C2_2  and  C3_3 
REMARK    2  A    between atoms: C2_2  and  C5_11 
REMARK    3  A    between atoms: C3_3  and  C4_4 
REMARK    4  A    between atoms: N2_6  and  N3_8 
REMARK    5  A    between atoms: C5_11  and  N4_13 
REMARK    6  A    between atoms: N4_13  and  C7_15 
ROOT
HETATM    1  C1  UNL     1      31.096  38.651  30.889  1.00  0.00     0.012 C 
HETATM    2  C2  UNL     1      32.272  38.262  29.958  1.00  0.00     0.010 C 
ENDROOT
BRANCH   2   3
HETATM    3  C3  UNL     1      32.735  36.936  30.378  1.00  0.00     0.081 C 
BRANCH   3   4
HETATM    4  C4  UNL     1      33.477  36.844  31.643  1.00  0.00     0.107 C 
HETATM    5  N1  UNL     1      34.224  38.018  32.018  1.00  0.00    -0.086 NA
HETATM    6  N2  UNL     1      33.529  35.848  32.430  1.00  0.00    -0.298 N 
ATOM      7  H2  UNL     1      33.011  35.003  32.188  1.00  0.00     0.187 HD
BRANCH   6   8
HETATM    8  N3  UNL     1      34.260  35.867  33.598  1.00  0.00    -0.344 N 
ATOM      9  H32 UNL     1      33.944  36.483  34.347  1.00  0.00     0.176 HD
ATOM     10  H31 UNL     1      35.092  35.292  33.731  1.00  0.00     0.176 HD
ENDBRANCH   6   8
ENDBRANCH   3   4
ENDBRANCH   2   3
BRANCH   2  11
HETATM   11  C5  UNL     1      31.802  38.488  28.569  1.00  0.00     0.077 C 
HETATM   12  C6  UNL     1      32.735  37.628  27.660  1.00  0.00     0.032 C 
BRANCH  11  13
HETATM   13  N4  UNL     1      31.878  39.778  28.042  1.00  0.00    -0.413 N 
ATOM     14  H4  UNL     1      32.806  40.178  27.903  1.00  0.00     0.154 HD
BRANCH  13  15
HETATM   15  C7  UNL     1      30.787  40.551  27.695  1.00  0.00     0.077 A 
HETATM   16  C8  UNL     1      30.312  41.633  28.649  1.00  0.00     0.027 A 
HETATM   17  C9  UNL     1      29.509  40.383  28.475  1.00  0.00     0.027 A 
ENDBRANCH  13  15
ENDBRANCH  11  13
ENDBRANCH   2  11
TORSDOF 6
ENDMDL
MODEL 2
REMARK VINA RESULT: -6.571676851      1.128      2.357
REMARK  6 active torsions:
REMARK  status: ('A' for Active; 'I' for Inactive)
REMARK    1  A    between atoms: C2_2  and  C3_3 
REMARK    2  A    between atoms: C2_2  and  C5_11 
REMARK    3  A    between atoms: C3_3  and  C4_4 
REMARK    4  A    between atoms: N2_6  and  N3_8 
REMARK    5  A    between atoms: C5_11  and  N4_13 
REMARK    6  A    between atoms: N4_13  and  C7_15 
ROOT
HETATM    1  C1  UNL     1      30.536  39.039  30.722  1.00  0.00     0.012 C 
HETATM    2  C2  UNL     1      31.990  39.014  30.186  1.00  0.00     0.010 C 
ENDROOT
BRANCH   2   3
HETATM    3  C3  UNL     1      32.432  37.616  30.202  1.00  0.00     0.081 C 
BRANCH   3   4
HETATM    4  C4  UNL     1      33.232  37.170  31.352  1.00  0.00     0.107 C 
HETATM    5  N1  UNL     1      34.118  38.154  31.918  1.00  0.00    -0.086 NA
HETATM    6  N2  UNL     1      33.224  36.018  31.888  1.00  0.00    -0.298 N 
ATOM      7  H2  UNL     1      32.608  35.302  31.505  1.00  0.00     0.187 HD
BRANCH   6   8
HETATM    8  N3  UNL     1      34.019  35.702  32.969  1.00  0.00    -0.344 N 
ATOM      9  H32 UNL     1      33.975  36.311  33.786  1.00  0.00     0.176 HD
ATOM     10  H31 UNL     1      34.637  34.891  32.973  1.00  0.00     0.176 HD
ENDBRANCH   6   8
ENDBRANCH   3   4
ENDBRANCH   2   3
BRANCH   2  11
HETATM   11  C5  UNL     1      31.984  39.785  28.919  1.00  0.00     0.077 C 
HETATM   12  C6  UNL     1      31.296  41.146  29.254  1.00  0.00     0.032 C 
BRANCH  11  13
HETATM   13  N4  UNL     1      31.266  39.279  27.835  1.00  0.00    -0.413 N 
ATOM     14  H4  UNL     1      30.248  39.271  27.903  1.00  0.00     0.154 HD
BRANCH  13  15
HETATM   15  C7  UNL     1      31.835  38.787  26.676  1.00  0.00     0.077 A 
HETATM   16  C8  UNL     1      31.160  37.637  25.949  1.00  0.00     0.027 A 
HETATM   17  C9  UNL     1      32.433  37.405  26.699  1.00  0.00     0.027 A 
ENDBRANCH  13  15
ENDBRANCH  11  13
ENDBRANCH   2  11
TORSDOF 6
ENDMDL
MODEL 3
REMARK VINA RESULT: -6.185303157      6.704      9.794
REMARK  6 active torsions:
REMARK  status: ('A' for Active; 'I' for Inactive)
REMARK    1  A    between atoms: C2_2  and  C3_3 
REMARK    2  A    between atoms: C2_2  and  C5_11 
REMARK    3  A    between atoms: C3_3  and  C4_4 
REMARK    4  A    between atoms: N2_6  and  N3_8 
REMARK    5  A    between atoms: C5_11  and  N4_13 
REMARK    6  A    between atoms: N4_13  and  C7_15 
ROOT
HETATM    1  C1  UNL     1      36.607  31.598  34.977  1.00  0.00     0.012 C 
HETATM    2  C2  UNL     1      35.183  32.206  34.942  1.00  0.00     0.010 C 
ENDROOT
BRANCH   2   3
HETATM    3  C3  UNL     1      35.235  33.377  34.061  1.00  0.00     0.081 C 
BRANCH   3   4
HETATM    4  C4  UNL     1      34.296  34.474  34.333  1.00  0.00     0.107 C 
HETATM    5  N1  UNL     1      34.742  35.789  33.948  1.00  0.00    -0.086 NA
HETATM    6  N2  UNL     1      33.148  34.384  34.868  1.00  0.00    -0.298 N 
ATOM      7  H2  UNL     1      32.809  33.465  35.152  1.00  0.00     0.187 HD
BRANCH   6   8
HETATM    8  N3  UNL     1      32.343  35.483  35.079  1.00  0.00    -0.344 N 
ATOM      9  H32 UNL     1      32.771  36.314  35.486  1.00  0.00     0.176 HD
ATOM     10  H31 UNL     1      31.350  35.486  34.842  1.00  0.00     0.176 HD
ENDBRANCH   6   8
ENDBRANCH   3   4
ENDBRANCH   2   3
BRANCH   2  11
HETATM   11  C5  UNL     1      34.255  31.086  34.647  1.00  0.00     0.077 C 
HETATM   12  C6  UNL     1      33.352  30.940  35.913  1.00  0.00     0.032 C 
BRANCH  11  13
HETATM   13  N4  UNL     1      34.790  29.815  34.440  1.00  0.00    -0.413 N 
ATOM     14  H4  UNL     1      35.716  29.623  34.823  1.00  0.00     0.154 HD
BRANCH  13  15
HETATM   15  C7  UNL     1      34.157  28.797  33.753  1.00  0.00     0.077 A 
HETATM   16  C8  UNL     1      33.895  27.478  34.458  1.00  0.00     0.027 A 
HETATM   17  C9  UNL     1      34.949  27.566  33.401  1.00  0.00     0.027 A 
ENDBRANCH  13  15
ENDBRANCH  11  13
ENDBRANCH   2  11
TORSDOF 6
ENDMDL
MODEL 4
REMARK VINA RESULT: -6.125181826      6.745     10.285
REMARK  6 active torsions:
REMARK  status: ('A' for Active; 'I' for Inactive)
REMARK    1  A    between atoms: C2_2  and  C3_3 
REMARK    2  A    between atoms: C2_2  and  C5_11 
REMARK    3  A    between atoms: C3_3  and  C4_4 
REMARK    4  A    between atoms: N2_6  and  N3_8 
REMARK    5  A    between atoms: C5_11  and  N4_13 
REMARK    6  A    between atoms: N4_13  and  C7_15 
ROOT
HETATM    1  C1  UNL     1      36.861  31.836  34.856  1.00  0.00     0.012 C 
HETATM    2  C2  UNL     1      35.359  32.213  34.909  1.00  0.00     0.010 C 
ENDROOT
BRANCH   2   3
HETATM    3  C3  UNL     1      35.148  33.283  33.929  1.00  0.00     0.081 C 
BRANCH   3   4
HETATM    4  C4  UNL     1      34.272  34.397  34.317  1.00  0.00     0.107 C 
HETATM    5  N1  UNL     1      34.790  35.718  34.066  1.00  0.00    -0.086 NA
HETATM    6  N2  UNL     1      33.121  34.317  34.849  1.00  0.00    -0.298 N 
ATOM      7  H2  UNL     1      32.731  33.394  35.040  1.00  0.00     0.187 HD
BRANCH   6   8
HETATM    8  N3  UNL     1      32.380  35.432  35.176  1.00  0.00    -0.344 N 
ATOM      9  H32 UNL     1      32.877  36.313  35.303  1.00  0.00     0.176 HD
ATOM     10  H31 UNL     1      31.366  35.399  35.292  1.00  0.00     0.176 HD
ENDBRANCH   6   8
ENDBRANCH   3   4
ENDBRANCH   2   3
BRANCH   2  11
HETATM   11  C5  UNL     1      34.602  30.941  34.806  1.00  0.00     0.077 C 
HETATM   12  C6  UNL     1      33.425  31.065  35.823  1.00  0.00     0.032 C 
BRANCH  11  13
HETATM   13  N4  UNL     1      35.248  29.753  35.148  1.00  0.00    -0.413 N 
ATOM     14  H4  UNL     1      35.942  29.386  34.497  1.00  0.00     0.154 HD
BRANCH  13  15
HETATM   15  C7  UNL     1      35.015  29.037  36.307  1.00  0.00     0.077 A 
HETATM   16  C8  UNL     1      36.192  28.452  37.066  1.00  0.00     0.027 A 
HETATM   17  C9  UNL     1      35.275  27.553  36.299  1.00  0.00     0.027 A 
ENDBRANCH  13  15
ENDBRANCH  11  13
ENDBRANCH   2  11
TORSDOF 6
ENDMDL
MODEL 5
REMARK VINA RESULT: -6.107062956      4.278      6.843
REMARK  6 active torsions:
REMARK  status: ('A' for Active; 'I' for Inactive)
REMARK    1  A    between atoms: C2_2  and  C3_3 
REMARK    2  A    between atoms: C2_2  and  C5_11 
REMARK    3  A    between atoms: C3_3  and  C4_4 
REMARK    4  A    between atoms: N2_6  and  N3_8 
REMARK    5  A    between atoms: C5_11  and  N4_13 
REMARK    6  A    between atoms: N4_13  and  C7_15 
ROOT
HETATM    1  C1  UNL     1      36.286  33.541  34.117  1.00  0.00     0.012 C 
HETATM    2  C2  UNL     1      34.740  33.644  34.140  1.00  0.00     0.010 C 
ENDROOT
BRANCH   2   3
HETATM    3  C3  UNL     1      34.254  32.621  35.072  1.00  0.00     0.081 C 
BRANCH   3   4
HETATM    4  C4  UNL     1      33.892  31.311  34.515  1.00  0.00     0.107 C 
HETATM    5  N1  UNL     1      34.867  30.264  34.692  1.00  0.00    -0.086 NA
HETATM    6  N2  UNL     1      32.824  31.010  33.897  1.00  0.00    -0.298 N 
ATOM      7  H2  UNL     1      32.118  31.732  33.755  1.00  0.00     0.187 HD
BRANCH   6   8
HETATM    8  N3  UNL     1      32.583  29.742  33.412  1.00  0.00    -0.344 N 
ATOM      9  H32 UNL     1      33.357  29.077  33.416  1.00  0.00     0.176 HD
ATOM     10  H31 UNL     1      31.670  29.457  33.056  1.00  0.00     0.176 HD
ENDBRANCH   6   8
ENDBRANCH   3   4
ENDBRANCH   2   3
BRANCH   2  11
HETATM   11  C5  UNL     1      34.416  35.075  34.360  1.00  0.00     0.077 C 
HETATM   12  C6  UNL     1      32.946  35.101  34.885  1.00  0.00     0.032 C 
BRANCH  11  13
HETATM   13  N4  UNL     1      34.419  35.934  33.261  1.00  0.00    -0.413 N 
ATOM     14  H4  UNL     1      35.322  36.275  32.929  1.00  0.00     0.154 HD
BRANCH  13  15
HETATM   15  C7  UNL     1      33.288  36.357  32.589  1.00  0.00     0.077 A 
HETATM   16  C8  UNL     1      33.215  36.191  31.082  1.00  0.00     0.027 A 
HETATM   17  C9  UNL     1      33.397  37.551  31.678  1.00  0.00     0.027 A 
ENDBRANCH  13  15
ENDBRANCH  11  13
ENDBRANCH   2  11
TORSDOF 6
ENDMDL
