MODEL 1
REMARK VINA RESULT: -6.560006083      0.000      0.000
REMARK  1 active torsions:
REMARK  status: ('A' for Active; 'I' for Inactive)
REMARK       I    between atoms: N2_8  and  C7_9 
REMARK       I    between atoms: C7_9  and  N4_13 
REMARK    1  A    between atoms: N4_13  and  C8_15 
ROOT
HETATM    1  N1  UNL     1      52.614  54.770   6.540  1.00  0.00    -0.195 NA
HETATM    2  C1  UNL     1      53.060  55.733   7.001  1.00  0.00     0.085 C 
HETATM    3  C2  UNL     1      53.612  56.975   7.573  1.00  0.00     0.209 C 
HETATM    4  C3  UNL     1      52.685  58.127   7.269  1.00  0.00     0.041 C 
HETATM    5  C4  UNL     1      51.458  58.106   8.157  1.00  0.00     0.004 C 
HETATM    6  C5  UNL     1      51.937  58.132   9.592  1.00  0.00     0.020 C 
HETATM    7  C6  UNL     1      52.659  56.827   9.850  1.00  0.00     0.143 C 
HETATM    8  N2  UNL     1      53.819  56.773   8.972  1.00  0.00    -0.201 N 
HETATM    9  C7  UNL     1      55.115  56.529   9.471  1.00  0.00     0.671 C 
HETATM   10  N3  UNL     1      55.261  56.220  10.705  1.00  0.00    -0.235 N 
ATOM     11  H31 UNL     1      56.198  56.043  11.065  1.00  0.00     0.174 HD
ATOM     12  H32 UNL     1      54.443  56.151  11.310  1.00  0.00     0.174 HD
HETATM   13  N4  UNL     1      56.244  56.625   8.635  1.00  0.00    -0.222 N 
ATOM     14  H4  UNL     1      56.636  57.553   8.478  1.00  0.00     0.178 HD
ENDROOT
BRANCH  13  15
HETATM   15  C8  UNL     1      56.893  55.507   7.981  1.00  0.00     0.101 C 
HETATM   16  C9  UNL     1      56.769  55.627   6.505  1.00  0.00     0.040 C 
HETATM   17  C10 UNL     1      58.046  55.873   5.778  1.00  0.00     0.142 C 
HETATM   18  S1  UNL     1      59.156  54.512   6.147  1.00  0.00     0.144 S 
HETATM   19  O1  UNL     1      60.546  54.840   5.695  1.00  0.00    -0.228 OA
HETATM   20  O2  UNL     1      58.620  53.270   5.493  1.00  0.00    -0.228 OA
HETATM   21  C11 UNL     1      59.072  54.266   7.903  1.00  0.00     0.142 C 
HETATM   22  C12 UNL     1      58.314  55.450   8.478  1.00  0.00     0.040 C 
ENDBRANCH  13  15
TORSDOF 1
ENDMDL
MODEL 2
REMARK VINA RESULT: -6.206938436      1.235      1.628
REMARK  1 active torsions:
REMARK  status: ('A' for Active; 'I' for Inactive)
REMARK       I    between atoms: N2_8  and  C7_9 
REMARK       I    between atoms: C7_9  and  N4_13 
REMARK    1  A    between atoms: N4_13  and  C8_15 
ROOT
HETATM    1  N1  UNL     1      53.200  55.086   6.641  1.00  0.00    -0.195 NA
HETATM    2  C1  UNL     1      53.438  56.095   7.156  1.00  0.00     0.085 C 
HETATM    3  C2  UNL     1      53.722  57.390   7.800  1.00  0.00     0.209 C 
HETATM    4  C3  UNL     1      52.539  58.313   7.622  1.00  0.00     0.041 C 
HETATM    5  C4  UNL     1      51.403  57.948   8.554  1.00  0.00     0.004 C 
HETATM    6  C5  UNL     1      51.943  57.992   9.967  1.00  0.00     0.020 C 
HETATM    7  C6  UNL     1      52.959  56.877  10.095  1.00  0.00     0.143 C 
HETATM    8  N2  UNL     1      54.049  57.151   9.170  1.00  0.00    -0.201 N 
HETATM    9  C7  UNL     1      55.392  57.184   9.596  1.00  0.00     0.671 C 
HETATM   10  N3  UNL     1      55.675  56.837  10.795  1.00  0.00    -0.235 N 
ATOM     11  H31 UNL     1      56.647  56.861  11.103  1.00  0.00     0.174 HD
ATOM     12  H32 UNL     1      54.930  56.540  11.426  1.00  0.00     0.174 HD
HETATM   13  N4  UNL     1      56.421  57.594   8.725  1.00  0.00    -0.222 N 
ATOM     14  H4  UNL     1      56.579  58.597   8.624  1.00  0.00     0.178 HD
ENDROOT
BRANCH  13  15
HETATM   15  C8  UNL     1      57.270  56.704   7.962  1.00  0.00     0.101 C 
HETATM   16  C9  UNL     1      58.695  57.103   8.097  1.00  0.00     0.040 C 
HETATM   17  C10 UNL     1      59.558  56.140   8.835  1.00  0.00     0.142 C 
HETATM   18  S1  UNL     1      59.488  54.569   7.970  1.00  0.00     0.144 S 
HETATM   19  O1  UNL     1      60.087  53.486   8.814  1.00  0.00    -0.228 OA
HETATM   20  O2  UNL     1      60.190  54.721   6.651  1.00  0.00    -0.228 OA
HETATM   21  C11 UNL     1      57.773  54.269   7.628  1.00  0.00     0.142 C 
HETATM   22  C12 UNL     1      56.979  55.297   8.415  1.00  0.00     0.040 C 
ENDBRANCH  13  15
TORSDOF 1
ENDMDL
MODEL 3
REMARK VINA RESULT: -5.878688137      2.631      3.538
REMARK  1 active torsions:
REMARK  status: ('A' for Active; 'I' for Inactive)
REMARK       I    between atoms: N2_8  and  C7_9 
REMARK       I    between atoms: C7_9  and  N4_13 
REMARK    1  A    between atoms: N4_13  and  C8_15 
ROOT
HETATM    1  N1  UNL     1      52.583  54.833   6.629  1.00  0.00    -0.195 NA
HETATM    2  C1  UNL     1      52.837  55.958   6.722  1.00  0.00     0.085 C 
HETATM    3  C2  UNL     1      53.136  57.397   6.844  1.00  0.00     0.209 C 
HETATM    4  C3  UNL     1      51.963  58.104   7.480  1.00  0.00     0.041 C 
HETATM    5  C4  UNL     1      51.904  57.854   8.973  1.00  0.00     0.004 C 
HETATM    6  C5  UNL     1      53.222  58.308   9.561  1.00  0.00     0.020 C 
HETATM    7  C6  UNL     1      54.296  57.384   9.028  1.00  0.00     0.143 C 
HETATM    8  N2  UNL     1      54.350  57.544   7.582  1.00  0.00    -0.201 N 
HETATM    9  C7  UNL     1      55.557  57.835   6.914  1.00  0.00     0.671 C 
HETATM   10  N3  UNL     1      56.653  57.831   7.575  1.00  0.00    -0.235 N 
ATOM     11  H31 UNL     1      57.526  58.042   7.091  1.00  0.00     0.174 HD
ATOM     12  H32 UNL     1      56.643  57.616   8.572  1.00  0.00     0.174 HD
HETATM   13  N4  UNL     1      55.571  58.132   5.537  1.00  0.00    -0.222 N 
ATOM     14  H4  UNL     1      55.355  59.090   5.261  1.00  0.00     0.178 HD
ENDROOT
BRANCH  13  15
HETATM   15  C8  UNL     1      55.869  57.184   4.484  1.00  0.00     0.101 C 
HETATM   16  C9  UNL     1      56.616  56.020   5.030  1.00  0.00     0.040 C 
HETATM   17  C10 UNL     1      55.879  54.726   5.011  1.00  0.00     0.142 C 
HETATM   18  S1  UNL     1      55.441  54.371   3.307  1.00  0.00     0.144 S 
HETATM   19  O1  UNL     1      54.450  53.249   3.250  1.00  0.00    -0.228 OA
HETATM   20  O2  UNL     1      56.699  54.063   2.547  1.00  0.00    -0.228 OA
HETATM   21  C11 UNL     1      54.774  55.877   2.644  1.00  0.00     0.142 C 
HETATM   22  C12 UNL     1      54.569  56.822   3.815  1.00  0.00     0.040 C 
ENDBRANCH  13  15
TORSDOF 1
ENDMDL
MODEL 4
REMARK VINA RESULT: -5.630520070      3.188      4.426
REMARK  1 active torsions:
REMARK  status: ('A' for Active; 'I' for Inactive)
REMARK       I    between atoms: N2_8  and  C7_9 
REMARK       I    between atoms: C7_9  and  N4_13 
REMARK    1  A    between atoms: N4_13  and  C8_15 
ROOT
HETATM    1  N1  UNL     1      55.130  59.736   6.805  1.00  0.00    -0.195 NA
HETATM    2  C1  UNL     1      54.780  58.747   7.292  1.00  0.00     0.085 C 
HETATM    3  C2  UNL     1      54.344  57.495   7.937  1.00  0.00     0.209 C 
HETATM    4  C3  UNL     1      54.344  57.671   9.436  1.00  0.00     0.041 C 
HETATM    5  C4  UNL     1      53.153  58.482   9.903  1.00  0.00     0.004 C 
HETATM    6  C5  UNL     1      51.906  57.775   9.420  1.00  0.00     0.020 C 
HETATM    7  C6  UNL     1      51.898  57.858   7.908  1.00  0.00     0.143 C 
HETATM    8  N2  UNL     1      53.063  57.140   7.412  1.00  0.00    -0.201 N 
HETATM    9  C7  UNL     1      52.949  56.124   6.442  1.00  0.00     0.671 C 
HETATM   10  N3  UNL     1      51.815  55.913   5.888  1.00  0.00    -0.235 N 
ATOM     11  H31 UNL     1      51.733  55.178   5.186  1.00  0.00     0.174 HD
ATOM     12  H32 UNL     1      51.009  56.481   6.151  1.00  0.00     0.174 HD
HETATM   13  N4  UNL     1      54.062  55.339   6.078  1.00  0.00    -0.222 N 
ATOM     14  H4  UNL     1      54.291  54.544   6.675  1.00  0.00     0.178 HD
ENDROOT
BRANCH  13  15
HETATM   15  C8  UNL     1      54.904  55.573   4.923  1.00  0.00     0.101 C 
HETATM   16  C9  UNL     1      55.530  54.303   4.472  1.00  0.00     0.040 C 
HETATM   17  C10 UNL     1      55.071  53.803   3.146  1.00  0.00     0.142 C 
HETATM   18  S1  UNL     1      55.426  55.074   1.931  1.00  0.00     0.144 S 
HETATM   19  O1  UNL     1      54.728  54.767   0.641  1.00  0.00    -0.228 OA
HETATM   20  O2  UNL     1      56.916  55.173   1.766  1.00  0.00    -0.228 OA
HETATM   21  C11 UNL     1      54.867  56.604   2.637  1.00  0.00     0.142 C 
HETATM   22  C12 UNL     1      54.061  56.250   3.875  1.00  0.00     0.040 C 
ENDBRANCH  13  15
TORSDOF 1
ENDMDL
MODEL 5
REMARK VINA RESULT: -5.595952597      1.582      3.029
REMARK  1 active torsions:
REMARK  status: ('A' for Active; 'I' for Inactive)
REMARK       I    between atoms: N2_8  and  C7_9 
REMARK       I    between atoms: C7_9  and  N4_13 
REMARK    1  A    between atoms: N4_13  and  C8_15 
ROOT
HETATM    1  N1  UNL     1      55.571  59.032   9.587  1.00  0.00    -0.195 NA
HETATM    2  C1  UNL     1      54.937  58.174   9.136  1.00  0.00     0.085 C 
HETATM    3  C2  UNL     1      54.116  57.081   8.584  1.00  0.00     0.209 C 
HETATM    4  C3  UNL     1      52.862  56.925   9.410  1.00  0.00     0.041 C 
HETATM    5  C4  UNL     1      51.854  58.014   9.105  1.00  0.00     0.004 C 
HETATM    6  C5  UNL     1      51.562  57.959   7.622  1.00  0.00     0.020 C 
HETATM    7  C6  UNL     1      52.831  58.353   6.898  1.00  0.00     0.143 C 
HETATM    8  N2  UNL     1      53.853  57.365   7.209  1.00  0.00    -0.201 N 
HETATM    9  C7  UNL     1      54.572  56.698   6.196  1.00  0.00     0.671 C 
HETATM   10  N3  UNL     1      54.417  57.061   4.978  1.00  0.00    -0.235 N 
ATOM     11  H31 UNL     1      54.937  56.578   4.246  1.00  0.00     0.174 HD
ATOM     12  H32 UNL     1      53.780  57.826   4.755  1.00  0.00     0.174 HD
HETATM   13  N4  UNL     1      55.451  55.641   6.505  1.00  0.00    -0.222 N 
ATOM     14  H4  UNL     1      55.046  54.713   6.628  1.00  0.00     0.178 HD
ENDROOT
BRANCH  13  15
HETATM   15  C8  UNL     1      56.885  55.770   6.661  1.00  0.00     0.101 C 
HETATM   16  C9  UNL     1      57.327  55.138   7.931  1.00  0.00     0.040 C 
HETATM   17  C10 UNL     1      58.171  53.920   7.776  1.00  0.00     0.142 C 
HETATM   18  S1  UNL     1      59.627  54.380   6.833  1.00  0.00     0.144 S 
HETATM   19  O1  UNL     1      60.364  53.154   6.387  1.00  0.00    -0.228 OA
HETATM   20  O2  UNL     1      60.477  55.283   7.680  1.00  0.00    -0.228 OA
HETATM   21  C11 UNL     1      59.043  55.338   5.457  1.00  0.00     0.142 C 
HETATM   22  C12 UNL     1      57.531  55.193   5.428  1.00  0.00     0.040 C 
ENDBRANCH  13  15
TORSDOF 1
ENDMDL
