MODEL 1
REMARK VINA RESULT: -8.669595978      0.000      0.000
REMARK  6 active torsions:
REMARK  status: ('A' for Active; 'I' for Inactive)
REMARK       I    between atoms: N3_4  and  C2_6 
REMARK    1  A    between atoms: C2_6  and  C3_8 
REMARK    2  A    between atoms: C3_8  and  N6_21 
REMARK    3  A    between atoms: N4_9  and  O2_11 
REMARK    4  A    between atoms: O2_11  and  C4_12 
REMARK    5  A    between atoms: C7_15  and  N5_16 
REMARK    6  A    between atoms: N6_21  and  N7_23 
ROOT
HETATM    1  C3  UNL     1       8.807   3.721  92.581  1.00  0.00     0.205 C 
HETATM    2  N4  UNL     1       9.393   4.863  92.708  1.00  0.00    -0.245 N 
ATOM      3  H4  UNL     1      10.317   4.915  93.136  1.00  0.00     0.196 HD
ENDROOT
BRANCH   1   4
HETATM    4  C2  UNL     1       7.486   3.583  91.978  1.00  0.00     0.294 C 
HETATM    5  N3  UNL     1       7.267   3.516  90.592  1.00  0.00    -0.297 N 
HETATM    6  C1  UNL     1       7.080   2.453  89.913  1.00  0.00     0.203 C 
ATOM      7  H3  UNL     1       7.255   4.398  90.082  1.00  0.00     0.171 HD
HETATM    8  N1  UNL     1       6.875   2.605  88.504  1.00  0.00    -0.066 NA
HETATM    9  N2  UNL     1       7.062   1.140  90.454  1.00  0.00    -0.066 NA
HETATM   10  O1  UNL     1       6.498   3.523  92.752  1.00  0.00    -0.264 OA
ENDBRANCH   1   4
BRANCH   1  11
HETATM   11  N6  UNL     1       9.502   2.575  93.060  1.00  0.00    -0.299 N 
ATOM     12  H6  UNL     1      10.422   2.384  92.663  1.00  0.00     0.182 HD
BRANCH  11  13
HETATM   13  N7  UNL     1       9.031   1.705  94.015  1.00  0.00    -0.230 NA
HETATM   14  C9  UNL     1       8.519   0.468  93.503  1.00  0.00     0.113 C 
HETATM   15  C10 UNL     1       8.418  -0.370  94.775  1.00  0.00     0.017 C 
HETATM   16  C11 UNL     1       9.750  -0.059  95.427  1.00  0.00     0.017 C 
HETATM   17  C12 UNL     1       9.950   1.396  95.063  1.00  0.00     0.113 C 
ENDBRANCH  11  13
ENDBRANCH   1  11
BRANCH   2  18
HETATM   18  O2  UNL     1       8.785   5.994  92.272  1.00  0.00    -0.273 OA
BRANCH  18  19
HETATM   19  C4  UNL     1       8.469   7.114  93.018  1.00  0.00     0.154 C 
HETATM   20  C5  UNL     1       9.602   7.731  93.768  1.00  0.00     0.036 C 
HETATM   21  C6  UNL     1       8.876   8.763  94.634  1.00  0.00     0.035 C 
HETATM   22  C7  UNL     1       7.699   7.961  95.134  1.00  0.00     0.186 C 
HETATM   23  C8  UNL     1       7.442   6.879  94.099  1.00  0.00     0.067 C 
BRANCH  22  24
HETATM   24  N5  UNL     1       6.497   8.765  95.230  1.00  0.00    -0.075 N 
ATOM     25  H53 UNL     1       6.639   9.574  95.836  1.00  0.00     0.274 HD
ATOM     26  H52 UNL     1       6.307   9.252  94.354  1.00  0.00     0.274 HD
ATOM     27  H51 UNL     1       5.693   8.214  95.529  1.00  0.00     0.274 HD
ENDBRANCH  22  24
ENDBRANCH  18  19
ENDBRANCH   2  18
TORSDOF 6
ENDMDL
MODEL 2
REMARK VINA RESULT: -8.450848411      2.778      6.341
REMARK  6 active torsions:
REMARK  status: ('A' for Active; 'I' for Inactive)
REMARK       I    between atoms: N3_4  and  C2_6 
REMARK    1  A    between atoms: C2_6  and  C3_8 
REMARK    2  A    between atoms: C3_8  and  N6_21 
REMARK    3  A    between atoms: N4_9  and  O2_11 
REMARK    4  A    between atoms: O2_11  and  C4_12 
REMARK    5  A    between atoms: C7_15  and  N5_16 
REMARK    6  A    between atoms: N6_21  and  N7_23 
ROOT
HETATM    1  C3  UNL     1       8.655   5.577  92.343  1.00  0.00     0.205 C 
HETATM    2  N4  UNL     1       9.265   4.546  91.866  1.00  0.00    -0.245 N 
ATOM      3  H4  UNL     1      10.248   4.612  91.606  1.00  0.00     0.196 HD
ENDROOT
BRANCH   1   4
HETATM    4  C2  UNL     1       7.249   5.543  92.733  1.00  0.00     0.294 C 
HETATM    5  N3  UNL     1       6.435   4.406  92.609  1.00  0.00    -0.297 N 
HETATM    6  C1  UNL     1       6.142   3.588  93.543  1.00  0.00     0.203 C 
ATOM      7  H3  UNL     1       6.041   4.216  91.688  1.00  0.00     0.171 HD
HETATM    8  N1  UNL     1       5.291   2.487  93.204  1.00  0.00    -0.066 NA
HETATM    9  N2  UNL     1       6.596   3.694  94.884  1.00  0.00    -0.066 NA
HETATM   10  O1  UNL     1       6.752   6.597  93.202  1.00  0.00    -0.264 OA
ENDBRANCH   1   4
BRANCH   1  11
HETATM   11  N6  UNL     1       9.411   6.774  92.481  1.00  0.00    -0.299 N 
ATOM     12  H6  UNL     1       9.349   7.459  91.727  1.00  0.00     0.182 HD
BRANCH  11  13
HETATM   13  N7  UNL     1      10.218   7.082  93.551  1.00  0.00    -0.230 NA
HETATM   14  C9  UNL     1      11.559   7.454  93.207  1.00  0.00     0.113 C 
HETATM   15  C10 UNL     1      12.057   8.050  94.522  1.00  0.00     0.017 C 
HETATM   16  C11 UNL     1      10.872   8.912  94.910  1.00  0.00     0.017 C 
HETATM   17  C12 UNL     1       9.703   8.077  94.436  1.00  0.00     0.113 C 
ENDBRANCH  11  13
ENDBRANCH   1  11
BRANCH   2  18
HETATM   18  O2  UNL     1       8.602   3.373  91.709  1.00  0.00    -0.273 OA
BRANCH  18  19
HETATM   19  C4  UNL     1       8.681   2.504  90.636  1.00  0.00     0.154 C 
HETATM   20  C5  UNL     1       7.492   2.483  89.734  1.00  0.00     0.036 C 
HETATM   21  C6  UNL     1       7.809   1.289  88.829  1.00  0.00     0.035 C 
HETATM   22  C7  UNL     1       8.288   0.270  89.834  1.00  0.00     0.186 C 
HETATM   23  C8  UNL     1       8.837   1.052  91.016  1.00  0.00     0.067 C 
BRANCH  22  24
HETATM   24  N5  UNL     1       9.368  -0.541  89.310  1.00  0.00    -0.075 N 
ATOM     25  H53 UNL     1       9.034  -1.460  89.016  1.00  0.00     0.274 HD
ATOM     26  H52 UNL     1       9.689  -0.191  88.407  1.00  0.00     0.274 HD
ATOM     27  H51 UNL     1      10.140  -0.622  89.972  1.00  0.00     0.274 HD
ENDBRANCH  22  24
ENDBRANCH  18  19
ENDBRANCH   2  18
TORSDOF 6
ENDMDL
MODEL 3
REMARK VINA RESULT: -8.385702075      3.375      5.814
REMARK  6 active torsions:
REMARK  status: ('A' for Active; 'I' for Inactive)
REMARK       I    between atoms: N3_4  and  C2_6 
REMARK    1  A    between atoms: C2_6  and  C3_8 
REMARK    2  A    between atoms: C3_8  and  N6_21 
REMARK    3  A    between atoms: N4_9  and  O2_11 
REMARK    4  A    between atoms: O2_11  and  C4_12 
REMARK    5  A    between atoms: C7_15  and  N5_16 
REMARK    6  A    between atoms: N6_21  and  N7_23 
ROOT
HETATM    1  C3  UNL     1       6.761   4.210  92.686  1.00  0.00     0.205 C 
HETATM    2  N4  UNL     1       5.605   3.889  93.158  1.00  0.00    -0.245 N 
ATOM      3  H4  UNL     1       4.969   4.618  93.483  1.00  0.00     0.196 HD
ENDROOT
BRANCH   1   4
HETATM    4  C2  UNL     1       7.714   3.213  92.207  1.00  0.00     0.294 C 
HETATM    5  N3  UNL     1       7.564   2.510  91.001  1.00  0.00    -0.297 N 
HETATM    6  C1  UNL     1       8.138   2.784  89.896  1.00  0.00     0.203 C 
ATOM      7  H3  UNL     1       6.937   1.705  91.010  1.00  0.00     0.171 HD
HETATM    8  N1  UNL     1       7.845   1.936  88.780  1.00  0.00    -0.066 NA
HETATM    9  N2  UNL     1       9.040   3.862  89.699  1.00  0.00    -0.066 NA
HETATM   10  O1  UNL     1       8.719   2.981  92.924  1.00  0.00    -0.264 OA
ENDBRANCH   1   4
BRANCH   1  11
HETATM   11  N6  UNL     1       7.087   5.594  92.645  1.00  0.00    -0.299 N 
ATOM     12  H6  UNL     1       6.590   6.174  91.969  1.00  0.00     0.182 HD
BRANCH  11  13
HETATM   13  N7  UNL     1       8.020   6.212  93.445  1.00  0.00    -0.230 NA
HETATM   14  C9  UNL     1       9.200   6.656  92.763  1.00  0.00     0.113 C 
HETATM   15  C10 UNL     1       9.833   7.569  93.811  1.00  0.00     0.017 C 
HETATM   16  C11 UNL     1       8.620   8.350  94.276  1.00  0.00     0.017 C 
HETATM   17  C12 UNL     1       7.528   7.304  94.222  1.00  0.00     0.113 C 
ENDBRANCH  11  13
ENDBRANCH   1  11
BRANCH   2  18
HETATM   18  O2  UNL     1       5.232   2.587  93.225  1.00  0.00    -0.273 OA
BRANCH  18  19
HETATM   19  C4  UNL     1       4.067   2.077  93.767  1.00  0.00     0.154 C 
HETATM   20  C5  UNL     1       2.802   2.532  93.119  1.00  0.00     0.036 C 
HETATM   21  C6  UNL     1       1.745   1.982  94.082  1.00  0.00     0.035 C 
HETATM   22  C7  UNL     1       2.340   2.345  95.420  1.00  0.00     0.186 C 
HETATM   23  C8  UNL     1       3.844   2.426  95.218  1.00  0.00     0.067 C 
BRANCH  22  24
HETATM   24  N5  UNL     1       2.090   1.325  96.419  1.00  0.00    -0.075 N 
ATOM     25  H53 UNL     1       1.343   0.695  96.126  1.00  0.00     0.274 HD
ATOM     26  H52 UNL     1       2.858   0.655  96.463  1.00  0.00     0.274 HD
ATOM     27  H51 UNL     1       1.897   1.728  97.336  1.00  0.00     0.274 HD
ENDBRANCH  22  24
ENDBRANCH  18  19
ENDBRANCH   2  18
TORSDOF 6
ENDMDL
MODEL 4
REMARK VINA RESULT: -8.312428578      3.437      5.731
REMARK  6 active torsions:
REMARK  status: ('A' for Active; 'I' for Inactive)
REMARK       I    between atoms: N3_4  and  C2_6 
REMARK    1  A    between atoms: C2_6  and  C3_8 
REMARK    2  A    between atoms: C3_8  and  N6_21 
REMARK    3  A    between atoms: N4_9  and  O2_11 
REMARK    4  A    between atoms: O2_11  and  C4_12 
REMARK    5  A    between atoms: C7_15  and  N5_16 
REMARK    6  A    between atoms: N6_21  and  N7_23 
ROOT
HETATM    1  C3  UNL     1       7.010   3.417  93.005  1.00  0.00     0.205 C 
HETATM    2  N4  UNL     1       5.786   3.450  93.412  1.00  0.00    -0.245 N 
ATOM      3  H4  UNL     1       5.489   4.169  94.070  1.00  0.00     0.196 HD
ENDROOT
BRANCH   1   4
HETATM    4  C2  UNL     1       7.495   2.412  92.065  1.00  0.00     0.294 C 
HETATM    5  N3  UNL     1       6.950   2.216  90.786  1.00  0.00    -0.297 N 
HETATM    6  C1  UNL     1       7.423   2.669  89.692  1.00  0.00     0.203 C 
ATOM      7  H3  UNL     1       6.097   1.660  90.726  1.00  0.00     0.171 HD
HETATM    8  N1  UNL     1       6.710   2.352  88.491  1.00  0.00    -0.066 NA
HETATM    9  N2  UNL     1       8.598   3.458  89.583  1.00  0.00    -0.066 NA
HETATM   10  O1  UNL     1       8.453   1.688  92.435  1.00  0.00    -0.264 OA
ENDBRANCH   1   4
BRANCH   1  11
HETATM   11  N6  UNL     1       7.891   4.412  93.513  1.00  0.00    -0.299 N 
ATOM     12  H6  UNL     1       8.752   4.094  93.958  1.00  0.00     0.182 HD
BRANCH  11  13
HETATM   13  N7  UNL     1       7.674   5.768  93.450  1.00  0.00    -0.230 NA
HETATM   14  C9  UNL     1       7.203   6.361  94.667  1.00  0.00     0.113 C 
HETATM   15  C10 UNL     1       7.400   7.848  94.379  1.00  0.00     0.017 C 
HETATM   16  C11 UNL     1       8.787   7.837  93.770  1.00  0.00     0.017 C 
HETATM   17  C12 UNL     1       8.783   6.542  92.989  1.00  0.00     0.113 C 
ENDBRANCH  11  13
ENDBRANCH   1  11
BRANCH   2  18
HETATM   18  O2  UNL     1       4.895   2.530  92.966  1.00  0.00    -0.273 OA
BRANCH  18  19
HETATM   19  C4  UNL     1       3.744   2.103  93.603  1.00  0.00     0.154 C 
HETATM   20  C5  UNL     1       2.484   2.781  93.178  1.00  0.00     0.036 C 
HETATM   21  C6  UNL     1       1.484   2.252  94.211  1.00  0.00     0.035 C 
HETATM   22  C7  UNL     1       2.277   2.381  95.489  1.00  0.00     0.186 C 
HETATM   23  C8  UNL     1       3.743   2.303  95.098  1.00  0.00     0.067 C 
BRANCH  22  24
HETATM   24  N5  UNL     1       2.012   1.288  96.403  1.00  0.00    -0.075 N 
ATOM     25  H53 UNL     1       1.483   1.604  97.216  1.00  0.00     0.274 HD
ATOM     26  H52 UNL     1       1.332   0.635  96.013  1.00  0.00     0.274 HD
ATOM     27  H51 UNL     1       2.868   0.808  96.681  1.00  0.00     0.274 HD
ENDBRANCH  22  24
ENDBRANCH  18  19
ENDBRANCH   2  18
TORSDOF 6
ENDMDL
MODEL 5
REMARK VINA RESULT: -8.131182203      1.572      5.766
REMARK  6 active torsions:
REMARK  status: ('A' for Active; 'I' for Inactive)
REMARK       I    between atoms: N3_4  and  C2_6 
REMARK    1  A    between atoms: C2_6  and  C3_8 
REMARK    2  A    between atoms: C3_8  and  N6_21 
REMARK    3  A    between atoms: N4_9  and  O2_11 
REMARK    4  A    between atoms: O2_11  and  C4_12 
REMARK    5  A    between atoms: C7_15  and  N5_16 
REMARK    6  A    between atoms: N6_21  and  N7_23 
ROOT
HETATM    1  C3  UNL     1       8.423   4.454  92.294  1.00  0.00     0.205 C 
HETATM    2  N4  UNL     1       7.828   3.910  93.300  1.00  0.00    -0.245 N 
ATOM      3  H4  UNL     1       7.487   4.493  94.064  1.00  0.00     0.196 HD
ENDROOT
BRANCH   1   4
HETATM    4  C2  UNL     1       8.933   3.672  91.172  1.00  0.00     0.294 C 
HETATM    5  N3  UNL     1       8.534   2.355  90.896  1.00  0.00    -0.297 N 
HETATM    6  C1  UNL     1       7.665   1.999  90.033  1.00  0.00     0.203 C 
ATOM      7  H3  UNL     1       8.979   1.613  91.436  1.00  0.00     0.171 HD
HETATM    8  N1  UNL     1       7.403   0.597  89.909  1.00  0.00    -0.066 NA
HETATM    9  N2  UNL     1       6.947   2.891  89.193  1.00  0.00    -0.066 NA
HETATM   10  O1  UNL     1       9.777   4.221  90.420  1.00  0.00    -0.264 OA
ENDBRANCH   1   4
BRANCH   1  11
HETATM   11  N6  UNL     1       8.572   5.869  92.311  1.00  0.00    -0.299 N 
ATOM     12  H6  UNL     1       8.317   6.378  91.465  1.00  0.00     0.182 HD
BRANCH  11  13
HETATM   13  N7  UNL     1       9.031   6.604  93.378  1.00  0.00    -0.230 NA
HETATM   14  C9  UNL     1      10.266   7.294  93.148  1.00  0.00     0.113 C 
HETATM   15  C10 UNL     1      10.308   8.250  94.338  1.00  0.00     0.017 C 
HETATM   16  C11 UNL     1       8.884   8.768  94.336  1.00  0.00     0.017 C 
HETATM   17  C12 UNL     1       8.100   7.543  93.917  1.00  0.00     0.113 C 
ENDBRANCH  11  13
ENDBRANCH   1  11
BRANCH   2  18
HETATM   18  O2  UNL     1       7.654   2.566  93.346  1.00  0.00    -0.273 OA
BRANCH  18  19
HETATM   19  C4  UNL     1       8.143   1.691  94.298  1.00  0.00     0.154 C 
HETATM   20  C5  UNL     1       9.550   1.933  94.734  1.00  0.00     0.036 C 
HETATM   21  C6  UNL     1       9.831   0.688  95.581  1.00  0.00     0.035 C 
HETATM   22  C7  UNL     1       9.255  -0.403  94.712  1.00  0.00     0.186 C 
HETATM   23  C8  UNL     1       8.173   0.245  93.864  1.00  0.00     0.067 C 
BRANCH  22  24
HETATM   24  N5  UNL     1       8.625  -1.446  95.497  1.00  0.00    -0.075 N 
ATOM     25  H53 UNL     1       8.198  -2.153  94.899  1.00  0.00     0.274 HD
ATOM     26  H52 UNL     1       9.320  -2.028  95.964  1.00  0.00     0.274 HD
ATOM     27  H51 UNL     1       7.951  -1.067  96.163  1.00  0.00     0.274 HD
ENDBRANCH  22  24
ENDBRANCH  18  19
ENDBRANCH   2  18
TORSDOF 6
ENDMDL
