MODEL 1
REMARK VINA RESULT: -7.328684627      0.000      0.000
REMARK  4 active torsions:
REMARK  status: ('A' for Active; 'I' for Inactive)
REMARK       I    between atoms: N1_2  and  C2_4 
REMARK       I    between atoms: C2_4  and  N4_9 
REMARK    1  A    between atoms: C8_15  and  N5_16 
REMARK    2  A    between atoms: N5_16  and  C9_18 
REMARK    3  A    between atoms: C10_21  and  C11_22 
REMARK    4  A    between atoms: C11_22  and  O2_23 
ROOT
HETATM    1  C1  UNL     1       6.678   7.270  95.552  1.00  0.00     0.165 C 
HETATM    2  N1  UNL     1       7.066   7.255  94.159  1.00  0.00    -0.228 N 
ATOM      3  H1  UNL     1       6.572   7.873  93.515  1.00  0.00     0.177 HD
HETATM    4  C2  UNL     1       8.095   6.427  93.639  1.00  0.00     0.709 C 
HETATM    5  N2  UNL     1       9.292   6.882  93.621  1.00  0.00    -0.124 N 
ATOM      6  H2  UNL     1      10.040   6.296  93.250  1.00  0.00     0.197 HD
HETATM    7  C3  UNL     1       9.600   8.156  94.096  1.00  0.00     0.196 C 
HETATM    8  N3  UNL     1       9.852   9.219  94.510  1.00  0.00    -0.171 NA
HETATM    9  N4  UNL     1       7.837   5.122  93.142  1.00  0.00    -0.076 N 
HETATM   10  O1  UNL     1       7.520   3.988  93.827  1.00  0.00    -0.248 OA
HETATM   11  C4  UNL     1       7.991   3.294  92.708  1.00  0.00     0.135 C 
HETATM   12  C5  UNL     1       9.453   2.902  92.904  1.00  0.00     0.045 C 
HETATM   13  C6  UNL     1       9.251   1.540  93.583  1.00  0.00     0.005 C 
HETATM   14  C7  UNL     1       8.269   0.927  92.611  1.00  0.00     0.028 C 
HETATM   15  C8  UNL     1       7.232   2.042  92.483  1.00  0.00     0.123 C 
HETATM   16  C10 UNL     1       7.794   4.465  91.826  1.00  0.00     0.196 C 
ENDROOT
BRANCH  16  17
HETATM   17  C11 UNL     1       9.010   4.915  91.039  1.00  0.00     0.195 C 
BRANCH  17  18
HETATM   18  O2  UNL     1       8.997   4.409  89.743  1.00  0.00    -0.399 OA
ATOM     19  H2  UNL     1       9.567   4.905  89.168  1.00  0.00     0.209 HD
ENDBRANCH  17  18
ENDBRANCH  16  17
BRANCH  15  20
HETATM   20  N5  UNL     1       6.517   1.975  91.257  1.00  0.00    -0.362 N 
ATOM     21  H5  UNL     1       5.500   2.056  91.262  1.00  0.00     0.162 HD
BRANCH  20  22
HETATM   22  C9  UNL     1       7.192   1.798  90.036  1.00  0.00     0.181 C 
HETATM   23  N6  UNL     1       6.850   2.594  88.918  1.00  0.00    -0.070 NA
HETATM   24  S1  UNL     1       8.379   0.693  89.841  1.00  0.00    -0.044 SA
ENDBRANCH  20  22
ENDBRANCH  15  20
TORSDOF 4
ENDMDL
MODEL 2
REMARK VINA RESULT: -7.027584961      1.088      1.088
REMARK  4 active torsions:
REMARK  status: ('A' for Active; 'I' for Inactive)
REMARK       I    between atoms: N1_2  and  C2_4 
REMARK       I    between atoms: C2_4  and  N4_9 
REMARK    1  A    between atoms: C8_15  and  N5_16 
REMARK    2  A    between atoms: N5_16  and  C9_18 
REMARK    3  A    between atoms: C10_21  and  C11_22 
REMARK    4  A    between atoms: C11_22  and  O2_23 
ROOT
HETATM    1  C1  UNL     1       7.451   7.575  94.806  1.00  0.00     0.165 C 
HETATM    2  N1  UNL     1       7.960   7.373  93.468  1.00  0.00    -0.228 N 
ATOM      3  H1  UNL     1       7.675   8.028  92.740  1.00  0.00     0.177 HD
HETATM    4  C2  UNL     1       8.835   6.313  93.113  1.00  0.00     0.709 C 
HETATM    5  N2  UNL     1      10.097   6.509  93.204  1.00  0.00    -0.124 N 
ATOM      6  H2  UNL     1      10.736   5.755  92.951  1.00  0.00     0.197 HD
HETATM    7  C3  UNL     1      10.622   7.725  93.641  1.00  0.00     0.196 C 
HETATM    8  N3  UNL     1      11.053   8.742  94.021  1.00  0.00    -0.171 NA
HETATM    9  N4  UNL     1       8.355   5.055  92.662  1.00  0.00    -0.076 N 
HETATM   10  O1  UNL     1       7.738   4.067  93.368  1.00  0.00    -0.248 OA
HETATM   11  C4  UNL     1       8.157   3.207  92.349  1.00  0.00     0.135 C 
HETATM   12  C5  UNL     1       9.475   2.539  92.728  1.00  0.00     0.045 C 
HETATM   13  C6  UNL     1       8.922   1.303  93.454  1.00  0.00     0.005 C 
HETATM   14  C7  UNL     1       7.932   0.833  92.413  1.00  0.00     0.028 C 
HETATM   15  C8  UNL     1       7.175   2.125  92.108  1.00  0.00     0.123 C 
HETATM   16  C10 UNL     1       8.302   4.322  91.387  1.00  0.00     0.196 C 
ENDROOT
BRANCH  16  17
HETATM   17  C11 UNL     1       9.657   4.450  90.718  1.00  0.00     0.195 C 
BRANCH  17  18
HETATM   18  O2  UNL     1       9.653   3.892  89.443  1.00  0.00    -0.399 OA
ATOM     19  H2  UNL     1       8.798   3.961  89.035  1.00  0.00     0.209 HD
ENDBRANCH  17  18
ENDBRANCH  16  17
BRANCH  15  20
HETATM   20  N5  UNL     1       6.585   2.112  90.815  1.00  0.00    -0.362 N 
ATOM     21  H5  UNL     1       5.765   2.691  90.630  1.00  0.00     0.162 HD
BRANCH  20  22
HETATM   22  C9  UNL     1       7.116   1.313  89.787  1.00  0.00     0.181 C 
HETATM   23  N6  UNL     1       8.511   1.100  89.707  1.00  0.00    -0.070 NA
HETATM   24  S1  UNL     1       6.177   0.602  88.656  1.00  0.00    -0.044 SA
ENDBRANCH  20  22
ENDBRANCH  15  20
TORSDOF 4
ENDMDL
MODEL 3
REMARK VINA RESULT: -7.015793695      2.821      6.244
REMARK  4 active torsions:
REMARK  status: ('A' for Active; 'I' for Inactive)
REMARK       I    between atoms: N1_2  and  C2_4 
REMARK       I    between atoms: C2_4  and  N4_9 
REMARK    1  A    between atoms: C8_15  and  N5_16 
REMARK    2  A    between atoms: N5_16  and  C9_18 
REMARK    3  A    between atoms: C10_21  and  C11_22 
REMARK    4  A    between atoms: C11_22  and  O2_23 
ROOT
HETATM    1  C1  UNL     1       6.966   2.437  88.441  1.00  0.00     0.165 C 
HETATM    2  N1  UNL     1       6.739   2.121  89.833  1.00  0.00    -0.228 N 
ATOM      3  H1  UNL     1       5.865   1.660  90.086  1.00  0.00     0.177 HD
HETATM    4  C2  UNL     1       7.665   2.418  90.867  1.00  0.00     0.709 C 
HETATM    5  N2  UNL     1       8.553   1.543  91.159  1.00  0.00    -0.124 N 
ATOM      6  H2  UNL     1       9.224   1.745  91.901  1.00  0.00     0.197 HD
HETATM    7  C3  UNL     1       8.628   0.321  90.490  1.00  0.00     0.196 C 
HETATM    8  N3  UNL     1       8.693  -0.693  89.915  1.00  0.00    -0.171 NA
HETATM    9  N4  UNL     1       7.634   3.645  91.580  1.00  0.00    -0.076 N 
HETATM   10  O1  UNL     1       7.981   4.894  91.160  1.00  0.00    -0.248 OA
HETATM   11  C4  UNL     1       8.141   5.203  92.514  1.00  0.00     0.135 C 
HETATM   12  C5  UNL     1       9.600   5.029  92.928  1.00  0.00     0.045 C 
HETATM   13  C6  UNL     1      10.112   6.442  92.611  1.00  0.00     0.005 C 
HETATM   14  C7  UNL     1       9.055   7.250  93.328  1.00  0.00     0.028 C 
HETATM   15  C8  UNL     1       7.772   6.608  92.801  1.00  0.00     0.123 C 
HETATM   16  C10 UNL     1       7.260   4.090  92.932  1.00  0.00     0.196 C 
ENDROOT
BRANCH  16  17
HETATM   17  C11 UNL     1       7.854   3.112  93.928  1.00  0.00     0.195 C 
BRANCH  17  18
HETATM   18  O2  UNL     1       7.083   3.026  95.083  1.00  0.00    -0.399 OA
ATOM     19  H2  UNL     1       7.510   2.500  95.749  1.00  0.00     0.209 HD
ENDBRANCH  17  18
ENDBRANCH  16  17
BRANCH  15  20
HETATM   20  N5  UNL     1       6.677   6.782  93.690  1.00  0.00    -0.362 N 
ATOM     21  H5  UNL     1       5.740   6.507  93.395  1.00  0.00     0.162 HD
BRANCH  20  22
HETATM   22  C9  UNL     1       6.868   7.328  94.972  1.00  0.00     0.181 C 
HETATM   23  N6  UNL     1       6.535   6.571  96.119  1.00  0.00    -0.070 NA
HETATM   24  S1  UNL     1       7.470   8.828  95.206  1.00  0.00    -0.044 SA
ENDBRANCH  20  22
ENDBRANCH  15  20
TORSDOF 4
ENDMDL
MODEL 4
REMARK VINA RESULT: -6.991064114      3.368      5.791
REMARK  4 active torsions:
REMARK  status: ('A' for Active; 'I' for Inactive)
REMARK       I    between atoms: N1_2  and  C2_4 
REMARK       I    between atoms: C2_4  and  N4_9 
REMARK    1  A    between atoms: C8_15  and  N5_16 
REMARK    2  A    between atoms: N5_16  and  C9_18 
REMARK    3  A    between atoms: C10_21  and  C11_22 
REMARK    4  A    between atoms: C11_22  and  O2_23 
ROOT
HETATM    1  C1  UNL     1       2.529   3.302  94.485  1.00  0.00     0.165 C 
HETATM    2  N1  UNL     1       3.747   2.843  95.115  1.00  0.00    -0.228 N 
ATOM      3  H1  UNL     1       3.870   3.020  96.112  1.00  0.00     0.177 HD
HETATM    4  C2  UNL     1       4.781   2.160  94.422  1.00  0.00     0.709 C 
HETATM    5  N2  UNL     1       4.729   0.882  94.356  1.00  0.00    -0.124 N 
ATOM      6  H2  UNL     1       5.466   0.381  93.861  1.00  0.00     0.197 HD
HETATM    7  C3  UNL     1       3.691   0.159  94.943  1.00  0.00     0.196 C 
HETATM    8  N3  UNL     1       2.811  -0.439  95.424  1.00  0.00    -0.171 NA
HETATM    9  N4  UNL     1       5.860   2.848  93.807  1.00  0.00    -0.076 N 
HETATM   10  O1  UNL     1       5.862   3.615  92.681  1.00  0.00    -0.248 OA
HETATM   11  C4  UNL     1       7.234   3.354  92.618  1.00  0.00     0.135 C 
HETATM   12  C5  UNL     1       7.505   2.163  91.704  1.00  0.00     0.045 C 
HETATM   13  C6  UNL     1       7.652   2.909  90.370  1.00  0.00     0.005 C 
HETATM   14  C7  UNL     1       8.640   3.972  90.794  1.00  0.00     0.028 C 
HETATM   15  C8  UNL     1       7.985   4.505  92.067  1.00  0.00     0.123 C 
HETATM   16  C10 UNL     1       7.298   3.032  94.061  1.00  0.00     0.196 C 
ENDROOT
BRANCH  16  17
HETATM   17  C11 UNL     1       7.887   1.679  94.414  1.00  0.00     0.195 C 
BRANCH  17  18
HETATM   18  O2  UNL     1       9.024   1.807  95.206  1.00  0.00    -0.399 OA
ATOM     19  H2  UNL     1       9.712   1.214  94.929  1.00  0.00     0.209 HD
ENDBRANCH  17  18
ENDBRANCH  16  17
BRANCH  15  20
HETATM   20  N5  UNL     1       8.927   5.098  92.950  1.00  0.00    -0.362 N 
ATOM     21  H5  UNL     1       9.576   4.504  93.468  1.00  0.00     0.162 HD
BRANCH  20  22
HETATM   22  C9  UNL     1       8.978   6.493  93.120  1.00  0.00     0.181 C 
HETATM   23  N6  UNL     1       7.780   7.243  93.172  1.00  0.00    -0.070 NA
HETATM   24  S1  UNL     1      10.386   7.308  93.263  1.00  0.00    -0.044 SA
ENDBRANCH  20  22
ENDBRANCH  15  20
TORSDOF 4
ENDMDL
MODEL 5
REMARK VINA RESULT: -6.493732767      3.758      5.608
REMARK  4 active torsions:
REMARK  status: ('A' for Active; 'I' for Inactive)
REMARK       I    between atoms: N1_2  and  C2_4 
REMARK       I    between atoms: C2_4  and  N4_9 
REMARK    1  A    between atoms: C8_15  and  N5_16 
REMARK    2  A    between atoms: N5_16  and  C9_18 
REMARK    3  A    between atoms: C10_21  and  C11_22 
REMARK    4  A    between atoms: C11_22  and  O2_23 
ROOT
HETATM    1  C1  UNL     1       1.774   0.953  93.240  1.00  0.00     0.165 C 
HETATM    2  N1  UNL     1       2.425   2.065  93.896  1.00  0.00    -0.228 N 
ATOM      3  H1  UNL     1       1.907   2.939  93.989  1.00  0.00     0.177 HD
HETATM    4  C2  UNL     1       3.743   2.006  94.419  1.00  0.00     0.709 C 
HETATM    5  N2  UNL     1       3.902   1.630  95.632  1.00  0.00    -0.124 N 
ATOM      6  H2  UNL     1       4.844   1.584  96.019  1.00  0.00     0.197 HD
HETATM    7  C3  UNL     1       2.819   1.280  96.440  1.00  0.00     0.196 C 
HETATM    8  N3  UNL     1       1.909   0.975  97.104  1.00  0.00    -0.171 NA
HETATM    9  N4  UNL     1       4.880   2.351  93.641  1.00  0.00    -0.076 N 
HETATM   10  O1  UNL     1       5.454   1.673  92.608  1.00  0.00    -0.248 OA
HETATM   11  C4  UNL     1       6.614   2.396  92.902  1.00  0.00     0.135 C 
HETATM   12  C5  UNL     1       7.522   1.589  93.825  1.00  0.00     0.045 C 
HETATM   13  C6  UNL     1       8.339   0.835  92.765  1.00  0.00     0.005 C 
HETATM   14  C7  UNL     1       8.738   2.002  91.891  1.00  0.00     0.028 C 
HETATM   15  C8  UNL     1       7.394   2.698  91.680  1.00  0.00     0.123 C 
HETATM   16  C10 UNL     1       5.848   3.459  93.590  1.00  0.00     0.196 C 
ENDROOT
BRANCH  16  17
HETATM   17  C11 UNL     1       6.276   3.772  95.011  1.00  0.00     0.195 C 
BRANCH  17  18
HETATM   18  O2  UNL     1       6.285   5.143  95.252  1.00  0.00    -0.399 OA
ATOM     19  H2  UNL     1       5.775   5.365  96.022  1.00  0.00     0.209 HD
ENDBRANCH  17  18
ENDBRANCH  16  17
BRANCH  15  20
HETATM   20  N5  UNL     1       7.543   4.078  91.376  1.00  0.00    -0.362 N 
ATOM     21  H5  UNL     1       6.714   4.659  91.255  1.00  0.00     0.162 HD
BRANCH  20  22
HETATM   22  C9  UNL     1       8.819   4.654  91.240  1.00  0.00     0.181 C 
HETATM   23  N6  UNL     1       9.632   4.317  90.133  1.00  0.00    -0.070 NA
HETATM   24  S1  UNL     1       9.421   5.717  92.324  1.00  0.00    -0.044 SA
ENDBRANCH  20  22
ENDBRANCH  15  20
TORSDOF 4
ENDMDL
