MODEL 1
REMARK VINA RESULT: -8.796071174      0.000      0.000
REMARK  6 active torsions:
REMARK  status: ('A' for Active; 'I' for Inactive)
REMARK       I    between atoms: C2_3  and  N2_5 
REMARK    1  A    between atoms: N2_5  and  N3_7 
REMARK    2  A    between atoms: N3_7  and  C3_9 
REMARK    3  A    between atoms: C3_9  and  N4_11 
REMARK    4  A    between atoms: N4_11  and  N5_13 
REMARK    5  A    between atoms: N5_13  and  S2_15 
REMARK    6  A    between atoms: S2_15  and  C4_18 
ROOT
HETATM    1  N1  UNL     1       4.856   0.221  87.699  1.00  0.00    -0.186 NA
HETATM    2  C1  UNL     1       5.709   0.840  88.181  1.00  0.00     0.163 C 
HETATM    3  C2  UNL     1       6.767   1.608  88.755  1.00  0.00     0.340 C 
HETATM    4  O1  UNL     1       6.664   2.851  88.850  1.00  0.00    -0.254 OA
HETATM    5  N2  UNL     1       7.929   0.968  89.215  1.00  0.00    -0.255 N 
ATOM      6  H2  UNL     1       8.026  -0.045  89.144  1.00  0.00     0.191 HD
ENDROOT
BRANCH   5   7
HETATM    7  N3  UNL     1       8.949   1.742  89.772  1.00  0.00    -0.272 N 
ATOM      8  H3  UNL     1       9.728   2.024  89.177  1.00  0.00     0.189 HD
BRANCH   7   9
HETATM    9  C3  UNL     1       8.949   2.149  91.115  1.00  0.00     0.206 C 
HETATM   10  S1  UNL     1       8.691   1.048  92.281  1.00  0.00    -0.038 SA
BRANCH   9  11
HETATM   11  N4  UNL     1       9.174   3.503  91.440  1.00  0.00    -0.265 N 
ATOM     12  H4  UNL     1      10.003   3.746  91.982  1.00  0.00     0.190 HD
BRANCH  11  13
HETATM   13  N5  UNL     1       8.308   4.522  91.050  1.00  0.00    -0.221 N 
ATOM     14  H5  UNL     1       8.116   4.816  90.093  1.00  0.00     0.200 HD
BRANCH  13  15
HETATM   15  S2  UNL     1       7.618   5.201  92.488  1.00  0.00     0.276 S 
HETATM   16  O2  UNL     1       6.235   5.747  92.205  1.00  0.00    -0.199 OA
HETATM   17  O3  UNL     1       7.461   4.132  93.557  1.00  0.00    -0.199 OA
BRANCH  15  18
HETATM   18  C4  UNL     1       8.629   6.463  93.154  1.00  0.00     0.081 A 
HETATM   19  C5  UNL     1       9.977   6.486  92.863  1.00  0.00     0.025 A 
HETATM   20  C6  UNL     1      10.759   7.501  93.405  1.00  0.00     0.002 A 
HETATM   21  C7  UNL     1      10.185   8.473  94.224  1.00  0.00     0.000 A 
HETATM   22  C8  UNL     1       8.841   8.440  94.507  1.00  0.00     0.002 A 
HETATM   23  C9  UNL     1       8.080   7.443  93.973  1.00  0.00     0.025 A 
ENDBRANCH  15  18
ENDBRANCH  13  15
ENDBRANCH  11  13
ENDBRANCH   9  11
ENDBRANCH   7   9
ENDBRANCH   5   7
TORSDOF 6
ENDMDL
MODEL 2
REMARK VINA RESULT: -8.792380509      0.046      1.102
REMARK  6 active torsions:
REMARK  status: ('A' for Active; 'I' for Inactive)
REMARK       I    between atoms: C2_3  and  N2_5 
REMARK    1  A    between atoms: N2_5  and  N3_7 
REMARK    2  A    between atoms: N3_7  and  C3_9 
REMARK    3  A    between atoms: C3_9  and  N4_11 
REMARK    4  A    between atoms: N4_11  and  N5_13 
REMARK    5  A    between atoms: N5_13  and  S2_15 
REMARK    6  A    between atoms: S2_15  and  C4_18 
ROOT
HETATM    1  N1  UNL     1       4.880   0.234  87.701  1.00  0.00    -0.186 NA
HETATM    2  C1  UNL     1       5.733   0.849  88.189  1.00  0.00     0.163 C 
HETATM    3  C2  UNL     1       6.792   1.612  88.770  1.00  0.00     0.340 C 
HETATM    4  O1  UNL     1       6.697   2.856  88.858  1.00  0.00    -0.254 OA
HETATM    5  N2  UNL     1       7.943   0.964  89.246  1.00  0.00    -0.255 N 
ATOM      6  H2  UNL     1       8.033  -0.050  89.181  1.00  0.00     0.191 HD
ENDROOT
BRANCH   5   7
HETATM    7  N3  UNL     1       8.963   1.733  89.810  1.00  0.00    -0.272 N 
ATOM      8  H3  UNL     1       9.747   2.012  89.219  1.00  0.00     0.189 HD
BRANCH   7   9
HETATM    9  C3  UNL     1       8.958   2.137  91.153  1.00  0.00     0.206 C 
HETATM   10  S1  UNL     1       8.690   1.034  92.316  1.00  0.00    -0.038 SA
BRANCH   9  11
HETATM   11  N4  UNL     1       9.187   3.490  91.482  1.00  0.00    -0.265 N 
ATOM     12  H4  UNL     1      10.011   3.727  92.032  1.00  0.00     0.190 HD
BRANCH  11  13
HETATM   13  N5  UNL     1       8.330   4.513  91.085  1.00  0.00    -0.221 N 
ATOM     14  H5  UNL     1       8.144   4.805  90.126  1.00  0.00     0.200 HD
BRANCH  13  15
HETATM   15  S2  UNL     1       7.639   5.202  92.517  1.00  0.00     0.276 S 
HETATM   16  O2  UNL     1       6.249   5.729  92.234  1.00  0.00    -0.199 OA
HETATM   17  O3  UNL     1       7.499   4.145  93.600  1.00  0.00    -0.199 OA
BRANCH  15  18
HETATM   18  C4  UNL     1       8.639   6.484  93.163  1.00  0.00     0.081 A 
HETATM   19  C5  UNL     1       8.074   7.457  93.960  1.00  0.00     0.025 A 
HETATM   20  C6  UNL     1       8.891   8.465  94.462  1.00  0.00     0.002 A 
HETATM   21  C7  UNL     1      10.253   8.484  94.161  1.00  0.00     0.000 A 
HETATM   22  C8  UNL     1      10.805   7.510  93.366  1.00  0.00     0.002 A 
HETATM   23  C9  UNL     1       9.998   6.525  92.877  1.00  0.00     0.025 A 
ENDBRANCH  15  18
ENDBRANCH  13  15
ENDBRANCH  11  13
ENDBRANCH   9  11
ENDBRANCH   7   9
ENDBRANCH   5   7
TORSDOF 6
ENDMDL
MODEL 3
REMARK VINA RESULT: -8.557561865      1.812      2.096
REMARK  6 active torsions:
REMARK  status: ('A' for Active; 'I' for Inactive)
REMARK       I    between atoms: C2_3  and  N2_5 
REMARK    1  A    between atoms: N2_5  and  N3_7 
REMARK    2  A    between atoms: N3_7  and  C3_9 
REMARK    3  A    between atoms: C3_9  and  N4_11 
REMARK    4  A    between atoms: N4_11  and  N5_13 
REMARK    5  A    between atoms: N5_13  and  S2_15 
REMARK    6  A    between atoms: S2_15  and  C4_18 
ROOT
HETATM    1  N1  UNL     1       3.639  -1.263  87.230  1.00  0.00    -0.186 NA
HETATM    2  C1  UNL     1       4.122  -0.389  87.819  1.00  0.00     0.163 C 
HETATM    3  C2  UNL     1       4.709   0.702  88.530  1.00  0.00     0.340 C 
HETATM    4  O1  UNL     1       4.018   1.384  89.319  1.00  0.00    -0.254 OA
HETATM    5  N2  UNL     1       6.066   1.010  88.345  1.00  0.00    -0.255 N 
ATOM      6  H2  UNL     1       6.641   0.461  87.705  1.00  0.00     0.191 HD
ENDROOT
BRANCH   5   7
HETATM    7  N3  UNL     1       6.616   2.081  89.053  1.00  0.00    -0.272 N 
ATOM      8  H3  UNL     1       6.509   3.022  88.673  1.00  0.00     0.189 HD
BRANCH   7   9
HETATM    9  C3  UNL     1       7.308   1.920  90.262  1.00  0.00     0.206 C 
HETATM   10  S1  UNL     1       8.493   0.812  90.360  1.00  0.00    -0.038 SA
BRANCH   9  11
HETATM   11  N4  UNL     1       6.973   2.717  91.377  1.00  0.00    -0.265 N 
ATOM     12  H4  UNL     1       6.571   2.266  92.199  1.00  0.00     0.190 HD
BRANCH  11  13
HETATM   13  N5  UNL     1       7.170   4.095  91.400  1.00  0.00    -0.221 N 
ATOM     14  H5  UNL     1       6.492   4.806  91.127  1.00  0.00     0.200 HD
BRANCH  13  15
HETATM   15  S2  UNL     1       8.779   4.384  91.977  1.00  0.00     0.276 S 
HETATM   16  O2  UNL     1       9.230   3.255  92.878  1.00  0.00    -0.199 OA
HETATM   17  O3  UNL     1       9.757   4.439  90.815  1.00  0.00    -0.199 OA
BRANCH  15  18
HETATM   18  C4  UNL     1       8.894   5.906  92.830  1.00  0.00     0.081 A 
HETATM   19  C5  UNL     1      10.115   6.539  92.941  1.00  0.00     0.025 A 
HETATM   20  C6  UNL     1      10.179   7.748  93.624  1.00  0.00     0.002 A 
HETATM   21  C7  UNL     1       9.029   8.305  94.183  1.00  0.00     0.000 A 
HETATM   22  C8  UNL     1       7.818   7.667  94.066  1.00  0.00     0.002 A 
HETATM   23  C9  UNL     1       7.763   6.481  93.395  1.00  0.00     0.025 A 
ENDBRANCH  15  18
ENDBRANCH  13  15
ENDBRANCH  11  13
ENDBRANCH   9  11
ENDBRANCH   7   9
ENDBRANCH   5   7
TORSDOF 6
ENDMDL
MODEL 4
REMARK VINA RESULT: -8.517700240      1.413      1.927
REMARK  6 active torsions:
REMARK  status: ('A' for Active; 'I' for Inactive)
REMARK       I    between atoms: C2_3  and  N2_5 
REMARK    1  A    between atoms: N2_5  and  N3_7 
REMARK    2  A    between atoms: N3_7  and  C3_9 
REMARK    3  A    between atoms: C3_9  and  N4_11 
REMARK    4  A    between atoms: N4_11  and  N5_13 
REMARK    5  A    between atoms: N5_13  and  S2_15 
REMARK    6  A    between atoms: S2_15  and  C4_18 
ROOT
HETATM    1  N1  UNL     1       2.424   1.091  87.989  1.00  0.00    -0.186 NA
HETATM    2  C1  UNL     1       3.533   0.898  88.267  1.00  0.00     0.163 C 
HETATM    3  C2  UNL     1       4.893   0.659  88.631  1.00  0.00     0.340 C 
HETATM    4  O1  UNL     1       5.303  -0.510  88.799  1.00  0.00    -0.254 OA
HETATM    5  N2  UNL     1       5.774   1.739  88.799  1.00  0.00    -0.255 N 
ATOM      6  H2  UNL     1       5.452   2.698  88.664  1.00  0.00     0.191 HD
ENDROOT
BRANCH   5   7
HETATM    7  N3  UNL     1       7.099   1.477  89.155  1.00  0.00    -0.272 N 
ATOM      8  H3  UNL     1       7.583   0.704  88.698  1.00  0.00     0.189 HD
BRANCH   7   9
HETATM    9  C3  UNL     1       7.793   2.230  90.114  1.00  0.00     0.206 C 
HETATM   10  S1  UNL     1       8.950   1.516  91.004  1.00  0.00    -0.038 SA
BRANCH   9  11
HETATM   11  N4  UNL     1       7.485   3.595  90.295  1.00  0.00    -0.265 N 
ATOM     12  H4  UNL     1       6.556   3.926  90.035  1.00  0.00     0.190 HD
BRANCH  11  13
HETATM   13  N5  UNL     1       8.398   4.507  90.818  1.00  0.00    -0.221 N 
ATOM     14  H5  UNL     1       9.276   4.795  90.387  1.00  0.00     0.200 HD
BRANCH  13  15
HETATM   15  S2  UNL     1       7.771   5.065  92.334  1.00  0.00     0.276 S 
HETATM   16  O2  UNL     1       6.345   5.545  92.174  1.00  0.00    -0.199 OA
HETATM   17  O3  UNL     1       7.745   3.932  93.347  1.00  0.00    -0.199 OA
BRANCH  15  18
HETATM   18  C4  UNL     1       8.756   6.345  93.007  1.00  0.00     0.081 A 
HETATM   19  C5  UNL     1       8.166   7.340  93.759  1.00  0.00     0.025 A 
HETATM   20  C6  UNL     1       8.972   8.345  94.283  1.00  0.00     0.002 A 
HETATM   21  C7  UNL     1      10.347   8.341  94.049  1.00  0.00     0.000 A 
HETATM   22  C8  UNL     1      10.924   7.345  93.299  1.00  0.00     0.002 A 
HETATM   23  C9  UNL     1      10.128   6.362  92.788  1.00  0.00     0.025 A 
ENDBRANCH  15  18
ENDBRANCH  13  15
ENDBRANCH  11  13
ENDBRANCH   9  11
ENDBRANCH   7   9
ENDBRANCH   5   7
TORSDOF 6
ENDMDL
MODEL 5
REMARK VINA RESULT: -8.486696993      2.116      3.491
REMARK  6 active torsions:
REMARK  status: ('A' for Active; 'I' for Inactive)
REMARK       I    between atoms: C2_3  and  N2_5 
REMARK    1  A    between atoms: N2_5  and  N3_7 
REMARK    2  A    between atoms: N3_7  and  C3_9 
REMARK    3  A    between atoms: C3_9  and  N4_11 
REMARK    4  A    between atoms: N4_11  and  N5_13 
REMARK    5  A    between atoms: N5_13  and  S2_15 
REMARK    6  A    between atoms: S2_15  and  C4_18 
ROOT
HETATM    1  N1  UNL     1       9.484   1.362  95.427  1.00  0.00    -0.186 NA
HETATM    2  C1  UNL     1       9.234   1.297  94.296  1.00  0.00     0.163 C 
HETATM    3  C2  UNL     1       8.942   1.201  92.902  1.00  0.00     0.340 C 
HETATM    4  O1  UNL     1       8.203   0.288  92.474  1.00  0.00    -0.254 OA
HETATM    5  N2  UNL     1       9.486   2.136  92.006  1.00  0.00    -0.255 N 
ATOM      6  H2  UNL     1      10.091   2.886  92.341  1.00  0.00     0.191 HD
ENDROOT
BRANCH   5   7
HETATM    7  N3  UNL     1       9.185   2.020  90.647  1.00  0.00    -0.272 N 
ATOM      8  H3  UNL     1       9.892   1.632  90.022  1.00  0.00     0.189 HD
BRANCH   7   9
HETATM    9  C3  UNL     1       7.953   2.413  90.104  1.00  0.00     0.206 C 
HETATM   10  S1  UNL     1       7.183   1.419  89.074  1.00  0.00    -0.038 SA
BRANCH   9  11
HETATM   11  N4  UNL     1       7.394   3.660  90.455  1.00  0.00    -0.265 N 
ATOM     12  H4  UNL     1       6.380   3.765  90.436  1.00  0.00     0.190 HD
BRANCH  11  13
HETATM   13  N5  UNL     1       8.173   4.753  90.827  1.00  0.00    -0.221 N 
ATOM     14  H5  UNL     1       8.935   5.162  90.286  1.00  0.00     0.200 HD
BRANCH  13  15
HETATM   15  S2  UNL     1       7.612   5.291  92.376  1.00  0.00     0.276 S 
HETATM   16  O2  UNL     1       6.219   5.871  92.263  1.00  0.00    -0.199 OA
HETATM   17  O3  UNL     1       7.528   4.124  93.345  1.00  0.00    -0.199 OA
BRANCH  15  18
HETATM   18  C4  UNL     1       8.693   6.476  93.076  1.00  0.00     0.081 A 
HETATM   19  C5  UNL     1       8.188   7.466  93.892  1.00  0.00     0.025 A 
HETATM   20  C6  UNL     1       9.068   8.394  94.437  1.00  0.00     0.002 A 
HETATM   21  C7  UNL     1      10.433   8.320  94.159  1.00  0.00     0.000 A 
HETATM   22  C8  UNL     1      10.925   7.329  93.345  1.00  0.00     0.002 A 
HETATM   23  C9  UNL     1      10.056   6.422  92.814  1.00  0.00     0.025 A 
ENDBRANCH  15  18
ENDBRANCH  13  15
ENDBRANCH  11  13
ENDBRANCH   9  11
ENDBRANCH   7   9
ENDBRANCH   5   7
TORSDOF 6
ENDMDL
