MODEL 1
REMARK VINA RESULT: -7.771677947      0.000      0.000
REMARK  4 active torsions:
REMARK  status: ('A' for Active; 'I' for Inactive)
REMARK    1  A    between atoms: C2_9  and  N5_10 
REMARK       I    between atoms: N5_10  and  C3_12 
REMARK       I    between atoms: C3_12  and  N7_16 
REMARK       I    between atoms: N7_16  and  C4_18 
REMARK       I    between atoms: C4_18  and  N11_28 
REMARK    2  A    between atoms: N8_19  and  C5_21 
REMARK    3  A    between atoms: C5_21  and  C6_22 
REMARK    4  A    between atoms: C6_22  and  C7_23 
ROOT
HETATM    1  N5  UNL     1       7.874   5.908  92.659  1.00  0.00    -0.019 N 
ATOM      2  H5  UNL     1       7.629   6.636  91.988  1.00  0.00     0.203 HD
HETATM    3  C3  UNL     1       8.879   4.984  92.293  1.00  0.00     0.705 C 
HETATM    4  N6  UNL     1       9.484   5.074  91.167  1.00  0.00    -0.234 N 
ATOM      5  H61 UNL     1      10.210   4.408  90.903  1.00  0.00     0.174 HD
ATOM      6  H62 UNL     1       9.233   5.828  90.527  1.00  0.00     0.174 HD
HETATM    7  N7  UNL     1       9.224   3.951  93.171  1.00  0.00    -0.022 N 
ATOM      8  H7  UNL     1       9.668   4.191  94.058  1.00  0.00     0.203 HD
HETATM    9  C4  UNL     1       8.978   2.560  92.874  1.00  0.00     0.690 C 
HETATM   10  N8  UNL     1       8.796   2.230  91.641  1.00  0.00    -0.225 N 
ATOM     11  H8  UNL     1       8.829   2.938  90.906  1.00  0.00     0.177 HD
HETATM   12  N11 UNL     1       8.938   1.594  93.915  1.00  0.00    -0.217 N 
HETATM   13  C8  UNL     1      10.119   0.960  94.467  1.00  0.00     0.141 C 
HETATM   14  C9  UNL     1       9.683  -0.373  95.006  1.00  0.00     0.022 C 
HETATM   15  C10 UNL     1       8.185  -0.419  94.744  1.00  0.00     0.022 C 
HETATM   16  C11 UNL     1       7.819   1.032  94.640  1.00  0.00     0.141 C 
ENDROOT
BRANCH   1  17
HETATM   17  C2  UNL     1       7.252   5.890  93.775  1.00  0.00     0.730 A 
HETATM   18  N1  UNL     1       7.226   6.917  94.652  1.00  0.00    -0.111 N 
HETATM   19  C1  UNL     1       7.907   8.181  94.446  1.00  0.00     0.199 C 
HETATM   20  N2  UNL     1       6.499   6.595  95.709  1.00  0.00    -0.211 N 
HETATM   21  N3  UNL     1       6.066   5.368  95.497  1.00  0.00    -0.213 N 
ATOM     22  H2  UNL     1       6.310   7.180  96.523  1.00  0.00     0.210 HD
HETATM   23  N4  UNL     1       6.510   4.926  94.335  1.00  0.00    -0.114 N 
ATOM     24  H3  UNL     1       5.475   4.837  96.137  1.00  0.00     0.210 HD
ATOM     25  H4  UNL     1       6.320   4.009  93.932  1.00  0.00     0.207 HD
ENDBRANCH   1  17
BRANCH  10  26
HETATM   26  C5  UNL     1       8.546   0.841  91.312  1.00  0.00     0.145 C 
BRANCH  26  27
HETATM   27  C6  UNL     1       8.420   0.646  89.823  1.00  0.00     0.092 C 
BRANCH  27  28
HETATM   28  C7  UNL     1       7.178   1.279  89.296  1.00  0.00     0.088 C 
HETATM   29  N9  UNL     1       6.244   0.528  88.844  1.00  0.00    -0.391 N 
ATOM     30  H92 UNL     1       6.335  -0.488  88.840  1.00  0.00     0.157 HD
ATOM     31  H91 UNL     1       5.395   0.962  88.482  1.00  0.00     0.157 HD
HETATM   32  N10 UNL     1       7.053   2.690  89.301  1.00  0.00    -0.088 NA
ENDBRANCH  27  28
ENDBRANCH  26  27
ENDBRANCH  10  26
TORSDOF 4
ENDMDL
MODEL 2
REMARK VINA RESULT: -7.742311086      3.150      5.627
REMARK  4 active torsions:
REMARK  status: ('A' for Active; 'I' for Inactive)
REMARK    1  A    between atoms: C2_9  and  N5_10 
REMARK       I    between atoms: N5_10  and  C3_12 
REMARK       I    between atoms: C3_12  and  N7_16 
REMARK       I    between atoms: N7_16  and  C4_18 
REMARK       I    between atoms: C4_18  and  N11_28 
REMARK    2  A    between atoms: N8_19  and  C5_21 
REMARK    3  A    between atoms: C5_21  and  C6_22 
REMARK    4  A    between atoms: C6_22  and  C7_23 
ROOT
HETATM    1  N5  UNL     1       3.883   2.956  94.523  1.00  0.00    -0.019 N 
ATOM      2  H5  UNL     1       3.320   3.584  95.098  1.00  0.00     0.203 HD
HETATM    3  C3  UNL     1       5.289   3.051  94.625  1.00  0.00     0.705 C 
HETATM    4  N6  UNL     1       5.842   3.879  95.432  1.00  0.00    -0.234 N 
ATOM      5  H61 UNL     1       6.857   3.948  95.506  1.00  0.00     0.174 HD
ATOM      6  H62 UNL     1       5.252   4.477  96.011  1.00  0.00     0.174 HD
HETATM    7  N7  UNL     1       6.099   2.231  93.831  1.00  0.00    -0.022 N 
ATOM      8  H7  UNL     1       6.084   1.224  93.995  1.00  0.00     0.203 HD
HETATM    9  C4  UNL     1       6.953   2.750  92.790  1.00  0.00     0.690 C 
HETATM   10  N8  UNL     1       7.272   3.998  92.839  1.00  0.00    -0.225 N 
ATOM     11  H8  UNL     1       6.928   4.591  93.595  1.00  0.00     0.177 HD
HETATM   12  N11 UNL     1       7.421   1.904  91.749  1.00  0.00    -0.217 N 
HETATM   13  C8  UNL     1       8.586   1.051  91.870  1.00  0.00     0.141 C 
HETATM   14  C9  UNL     1       9.123   0.852  90.481  1.00  0.00     0.022 C 
HETATM   15  C10 UNL     1       8.163   1.622  89.587  1.00  0.00     0.022 C 
HETATM   16  C11 UNL     1       6.912   1.682  90.413  1.00  0.00     0.141 C 
ENDROOT
BRANCH   1  17
HETATM   17  C2  UNL     1       3.270   2.136  93.760  1.00  0.00     0.730 A 
HETATM   18  N1  UNL     1       2.864   0.903  94.130  1.00  0.00    -0.111 N 
HETATM   19  C1  UNL     1       3.073   0.340  95.450  1.00  0.00     0.199 C 
HETATM   20  N2  UNL     1       2.259   0.300  93.121  1.00  0.00    -0.211 N 
HETATM   21  N3  UNL     1       2.283   1.153  92.116  1.00  0.00    -0.213 N 
ATOM     22  H2  UNL     1       1.854  -0.637  93.121  1.00  0.00     0.210 HD
HETATM   23  N4  UNL     1       2.888   2.267  92.482  1.00  0.00    -0.114 N 
ATOM     24  H3  UNL     1       1.891   0.977  91.191  1.00  0.00     0.210 HD
ATOM     25  H4  UNL     1       3.039   3.086  91.894  1.00  0.00     0.207 HD
ENDBRANCH   1  17
BRANCH  10  26
HETATM   26  C5  UNL     1       8.129   4.548  91.807  1.00  0.00     0.145 C 
BRANCH  26  27
HETATM   27  C6  UNL     1       9.366   5.172  92.399  1.00  0.00     0.092 C 
BRANCH  27  28
HETATM   28  C7  UNL     1       9.124   6.587  92.799  1.00  0.00     0.088 C 
HETATM   29  N9  UNL     1      10.124   7.379  92.909  1.00  0.00    -0.391 N 
ATOM     30  H92 UNL     1      11.076   7.061  92.728  1.00  0.00     0.157 HD
ATOM     31  H91 UNL     1       9.958   8.347  93.183  1.00  0.00     0.157 HD
HETATM   32  N10 UNL     1       7.802   7.029  93.049  1.00  0.00    -0.088 NA
ENDBRANCH  27  28
ENDBRANCH  26  27
ENDBRANCH  10  26
TORSDOF 4
ENDMDL
MODEL 3
REMARK VINA RESULT: -7.646813248      2.790      4.654
REMARK  4 active torsions:
REMARK  status: ('A' for Active; 'I' for Inactive)
REMARK    1  A    between atoms: C2_9  and  N5_10 
REMARK       I    between atoms: N5_10  and  C3_12 
REMARK       I    between atoms: C3_12  and  N7_16 
REMARK       I    between atoms: N7_16  and  C4_18 
REMARK       I    between atoms: C4_18  and  N11_28 
REMARK    2  A    between atoms: N8_19  and  C5_21 
REMARK    3  A    between atoms: C5_21  and  C6_22 
REMARK    4  A    between atoms: C6_22  and  C7_23 
ROOT
HETATM    1  N5  UNL     1       8.975   7.876  94.316  1.00  0.00    -0.019 N 
ATOM      2  H5  UNL     1       8.797   8.506  95.099  1.00  0.00     0.203 HD
HETATM    3  C3  UNL     1       7.863   7.257  93.701  1.00  0.00     0.705 C 
HETATM    4  N6  UNL     1       6.668   7.497  94.096  1.00  0.00    -0.234 N 
ATOM      5  H61 UNL     1       5.865   7.050  93.653  1.00  0.00     0.174 HD
ATOM      6  H62 UNL     1       6.521   8.149  94.867  1.00  0.00     0.174 HD
HETATM    7  N7  UNL     1       8.065   6.363  92.644  1.00  0.00    -0.022 N 
ATOM      8  H7  UNL     1       8.440   6.721  91.765  1.00  0.00     0.203 HD
HETATM    9  C4  UNL     1       7.763   4.955  92.745  1.00  0.00     0.690 C 
HETATM   10  N8  UNL     1       6.948   4.578  93.668  1.00  0.00    -0.225 N 
ATOM     11  H8  UNL     1       6.533   5.261  94.303  1.00  0.00     0.177 HD
HETATM   12  N11 UNL     1       8.354   4.023  91.849  1.00  0.00    -0.217 N 
HETATM   13  C8  UNL     1       7.831   3.737  90.527  1.00  0.00     0.141 C 
HETATM   14  C9  UNL     1       8.264   2.341  90.183  1.00  0.00     0.022 C 
HETATM   15  C10 UNL     1       9.084   1.889  91.383  1.00  0.00     0.022 C 
HETATM   16  C11 UNL     1       9.525   3.186  91.994  1.00  0.00     0.141 C 
ENDROOT
BRANCH   1  17
HETATM   17  C2  UNL     1      10.188   7.701  93.955  1.00  0.00     0.730 A 
HETATM   18  N1  UNL     1      11.254   8.273  94.554  1.00  0.00    -0.111 N 
HETATM   19  C1  UNL     1      11.165   9.168  95.692  1.00  0.00     0.199 C 
HETATM   20  N2  UNL     1      12.371   7.896  93.954  1.00  0.00    -0.211 N 
HETATM   21  N3  UNL     1      12.008   7.088  92.977  1.00  0.00    -0.213 N 
ATOM     22  H2  UNL     1      13.321   8.175  94.198  1.00  0.00     0.210 HD
HETATM   23  N4  UNL     1      10.694   6.958  92.963  1.00  0.00    -0.114 N 
ATOM     24  H3  UNL     1      12.648   6.631  92.328  1.00  0.00     0.210 HD
ATOM     25  H4  UNL     1      10.158   6.389  92.309  1.00  0.00     0.207 HD
ENDBRANCH   1  17
BRANCH  10  26
HETATM   26  C5  UNL     1       6.627   3.170  93.794  1.00  0.00     0.145 C 
BRANCH  26  27
HETATM   27  C6  UNL     1       5.496   2.952  94.765  1.00  0.00     0.092 C 
BRANCH  27  28
HETATM   28  C7  UNL     1       4.350   2.252  94.117  1.00  0.00     0.088 C 
HETATM   29  N9  UNL     1       3.584   2.914  93.332  1.00  0.00    -0.391 N 
ATOM     30  H92 UNL     1       3.744   3.903  93.144  1.00  0.00     0.157 HD
ATOM     31  H91 UNL     1       2.800   2.435  92.889  1.00  0.00     0.157 HD
HETATM   32  N10 UNL     1       4.129   0.878  94.379  1.00  0.00    -0.088 NA
ENDBRANCH  27  28
ENDBRANCH  26  27
ENDBRANCH  10  26
TORSDOF 4
ENDMDL
MODEL 4
REMARK VINA RESULT: -7.318386703      3.480      6.393
REMARK  4 active torsions:
REMARK  status: ('A' for Active; 'I' for Inactive)
REMARK    1  A    between atoms: C2_9  and  N5_10 
REMARK       I    between atoms: N5_10  and  C3_12 
REMARK       I    between atoms: C3_12  and  N7_16 
REMARK       I    between atoms: N7_16  and  C4_18 
REMARK       I    between atoms: C4_18  and  N11_28 
REMARK    2  A    between atoms: N8_19  and  C5_21 
REMARK    3  A    between atoms: C5_21  and  C6_22 
REMARK    4  A    between atoms: C6_22  and  C7_23 
ROOT
HETATM    1  N5  UNL     1       2.584   2.174  93.642  1.00  0.00    -0.019 N 
ATOM      2  H5  UNL     1       1.769   2.632  94.053  1.00  0.00     0.203 HD
HETATM    3  C3  UNL     1       3.834   2.363  94.273  1.00  0.00     0.705 C 
HETATM    4  N6  UNL     1       3.940   3.064  95.340  1.00  0.00    -0.234 N 
ATOM      5  H61 UNL     1       4.843   3.201  95.796  1.00  0.00     0.174 HD
ATOM      6  H62 UNL     1       3.103   3.491  95.740  1.00  0.00     0.174 HD
HETATM    7  N7  UNL     1       4.982   1.778  93.726  1.00  0.00    -0.022 N 
ATOM      8  H7  UNL     1       5.058   0.761  93.723  1.00  0.00     0.203 HD
HETATM    9  C4  UNL     1       6.062   2.555  93.166  1.00  0.00     0.690 C 
HETATM   10  N8  UNL     1       6.158   3.792  93.514  1.00  0.00    -0.225 N 
ATOM     11  H8  UNL     1       5.487   4.200  94.166  1.00  0.00     0.177 HD
HETATM   12  N11 UNL     1       6.984   1.963  92.261  1.00  0.00    -0.217 N 
HETATM   13  C8  UNL     1       8.144   1.201  92.680  1.00  0.00     0.141 C 
HETATM   14  C9  UNL     1       9.158   1.316  91.578  1.00  0.00     0.022 C 
HETATM   15  C10 UNL     1       8.473   2.161  90.514  1.00  0.00     0.022 C 
HETATM   16  C11 UNL     1       7.017   1.959  90.815  1.00  0.00     0.141 C 
ENDROOT
BRANCH   1  17
HETATM   17  C2  UNL     1       2.405   1.467  92.594  1.00  0.00     0.730 A 
HETATM   18  N1  UNL     1       1.983   0.184  92.598  1.00  0.00    -0.111 N 
HETATM   19  C1  UNL     1       1.676  -0.567  93.800  1.00  0.00     0.199 C 
HETATM   20  N2  UNL     1       1.895  -0.271  91.360  1.00  0.00    -0.211 N 
HETATM   21  N3  UNL     1       2.261   0.724  90.576  1.00  0.00    -0.213 N 
ATOM     22  H2  UNL     1       1.602  -1.204  91.070  1.00  0.00     0.210 HD
HETATM   23  N4  UNL     1       2.572   1.781  91.303  1.00  0.00    -0.114 N 
ATOM     24  H3  UNL     1       2.299   0.683  89.558  1.00  0.00     0.210 HD
ATOM     25  H4  UNL     1       2.885   2.682  90.942  1.00  0.00     0.207 HD
ENDBRANCH   1  17
BRANCH  10  26
HETATM   26  C5  UNL     1       7.232   4.597  92.967  1.00  0.00     0.145 C 
BRANCH  26  27
HETATM   27  C6  UNL     1       6.786   6.016  92.731  1.00  0.00     0.092 C 
BRANCH  27  28
HETATM   28  C7  UNL     1       7.285   6.929  93.798  1.00  0.00     0.088 C 
HETATM   29  N9  UNL     1       6.762   6.861  94.965  1.00  0.00    -0.391 N 
ATOM     30  H92 UNL     1       6.016   6.199  95.175  1.00  0.00     0.157 HD
ATOM     31  H91 UNL     1       7.104   7.486  95.696  1.00  0.00     0.157 HD
HETATM   32  N10 UNL     1       8.322   7.849  93.506  1.00  0.00    -0.088 NA
ENDBRANCH  27  28
ENDBRANCH  26  27
ENDBRANCH  10  26
TORSDOF 4
ENDMDL
MODEL 5
REMARK VINA RESULT: -7.231255381      2.407      6.330
REMARK  4 active torsions:
REMARK  status: ('A' for Active; 'I' for Inactive)
REMARK    1  A    between atoms: C2_9  and  N5_10 
REMARK       I    between atoms: N5_10  and  C3_12 
REMARK       I    between atoms: C3_12  and  N7_16 
REMARK       I    between atoms: N7_16  and  C4_18 
REMARK       I    between atoms: C4_18  and  N11_28 
REMARK    2  A    between atoms: N8_19  and  C5_21 
REMARK    3  A    between atoms: C5_21  and  C6_22 
REMARK    4  A    between atoms: C6_22  and  C7_23 
ROOT
HETATM    1  N5  UNL     1       5.982   0.412  88.553  1.00  0.00    -0.019 N 
ATOM      2  H5  UNL     1       6.117  -0.399  87.949  1.00  0.00     0.203 HD
HETATM    3  C3  UNL     1       7.126   1.150  88.931  1.00  0.00     0.705 C 
HETATM    4  N6  UNL     1       8.293   0.829  88.507  1.00  0.00    -0.234 N 
ATOM      5  H61 UNL     1       9.119   1.362  88.780  1.00  0.00     0.174 HD
ATOM      6  H62 UNL     1       8.392   0.026  87.886  1.00  0.00     0.174 HD
HETATM    7  N7  UNL     1       6.991   2.251  89.783  1.00  0.00    -0.022 N 
ATOM      8  H7  UNL     1       6.486   3.071  89.446  1.00  0.00     0.203 HD
HETATM    9  C4  UNL     1       7.535   2.275  91.120  1.00  0.00     0.690 C 
HETATM   10  N8  UNL     1       8.479   1.444  91.401  1.00  0.00    -0.225 N 
ATOM     11  H8  UNL     1       8.825   0.795  90.693  1.00  0.00     0.177 HD
HETATM   12  N11 UNL     1       7.038   3.190  92.088  1.00  0.00    -0.217 N 
HETATM   13  C8  UNL     1       7.487   4.563  92.200  1.00  0.00     0.141 C 
HETATM   14  C9  UNL     1       7.270   4.974  93.628  1.00  0.00     0.022 C 
HETATM   15  C10 UNL     1       6.646   3.753  94.286  1.00  0.00     0.022 C 
HETATM   16  C11 UNL     1       6.044   3.018  93.125  1.00  0.00     0.141 C 
ENDROOT
BRANCH   1  17
HETATM   17  C2  UNL     1       4.791   0.693  88.918  1.00  0.00     0.730 A 
HETATM   18  N1  UNL     1       3.693   0.510  88.153  1.00  0.00    -0.111 N 
HETATM   19  C1  UNL     1       3.720  -0.031  86.808  1.00  0.00     0.199 C 
HETATM   20  N2  UNL     1       2.611   0.894  88.809  1.00  0.00    -0.211 N 
HETATM   21  N3  UNL     1       3.027   1.318  89.986  1.00  0.00    -0.213 N 
ATOM     22  H2  UNL     1       1.649   0.866  88.472  1.00  0.00     0.210 HD
HETATM   23  N4  UNL     1       4.339   1.204  90.070  1.00  0.00    -0.114 N 
ATOM     24  H3  UNL     1       2.423   1.681  90.723  1.00  0.00     0.210 HD
ATOM     25  H4  UNL     1       4.910   1.461  90.875  1.00  0.00     0.207 HD
ENDBRANCH   1  17
BRANCH  10  26
HETATM   26  C5  UNL     1       9.045   1.444  92.735  1.00  0.00     0.145 C 
BRANCH  26  27
HETATM   27  C6  UNL     1       8.407   0.388  93.599  1.00  0.00     0.092 C 
BRANCH  27  28
HETATM   28  C7  UNL     1       9.111   0.255  94.906  1.00  0.00     0.088 C 
HETATM   29  N9  UNL     1       9.675   1.287  95.413  1.00  0.00    -0.391 N 
ATOM     30  H92 UNL     1       9.650   2.192  94.941  1.00  0.00     0.157 HD
ATOM     31  H91 UNL     1      10.158   1.196  96.307  1.00  0.00     0.157 HD
HETATM   32  N10 UNL     1       9.145  -1.001  95.560  1.00  0.00    -0.088 NA
ENDBRANCH  27  28
ENDBRANCH  26  27
ENDBRANCH  10  26
TORSDOF 4
ENDMDL
