MODEL 1
REMARK VINA RESULT: -7.959928512      0.000      0.000
REMARK  3 active torsions:
REMARK  status: ('A' for Active; 'I' for Inactive)
REMARK    1  A    between atoms: C6_6  and  O1_8 
REMARK    2  A    between atoms: C11_14  and  O3_15 
REMARK    3  A    between atoms: C13_18  and  O4_19 
ROOT
HETATM    1  C1  UNL     1      38.087   9.848  37.182  1.00  0.00     0.043 C 
HETATM    2  C2  UNL     1      37.951   8.970  35.982  1.00  0.00    -0.087 C 
HETATM    3  C3  UNL     1      37.531   9.475  34.855  1.00  0.00    -0.024 C 
HETATM    4  C4  UNL     1      37.339   8.761  33.585  1.00  0.00     0.030 C 
HETATM    5  C5  UNL     1      35.926   8.226  33.424  1.00  0.00     0.041 C 
HETATM    6  C6  UNL     1      35.822   7.259  32.278  1.00  0.00     0.054 C 
HETATM    7  C7  UNL     1      36.696   7.667  31.107  1.00  0.00     0.045 C 
HETATM    8  C8  UNL     1      36.053   5.853  32.725  1.00  0.00     0.039 C 
HETATM    9  C9  UNL     1      36.836   5.013  31.777  1.00  0.00     0.029 C 
HETATM   10  C10 UNL     1      38.214   4.645  32.282  1.00  0.00     0.171 C 
HETATM   11  O2  UNL     1      38.335   5.050  33.588  1.00  0.00    -0.361 OA
HETATM   12  C11 UNL     1      39.406   4.534  34.271  1.00  0.00     0.259 C 
HETATM   13  C12 UNL     1      39.219   4.796  35.741  1.00  0.00     0.092 C 
HETATM   14  C13 UNL     1      40.115   5.873  36.277  1.00  0.00     0.123 C 
HETATM   15  C14 UNL     1      39.731   7.236  35.790  1.00  0.00     0.036 C 
HETATM   16  C15 UNL     1      38.318   7.527  36.175  1.00  0.00     0.036 C 
ENDROOT
BRANCH   6  17
HETATM   17  O1  UNL     1      34.491   7.347  31.805  1.00  0.00    -0.390 OA
ATOM     18  H1  UNL     1      34.025   7.895  32.425  1.00  0.00     0.210 HD
ENDBRANCH   6  17
BRANCH  12  19
HETATM   19  O3  UNL     1      40.572   5.090  33.762  1.00  0.00    -0.371 OA
ATOM     20  H3  UNL     1      40.870   5.772  34.353  1.00  0.00     0.212 HD
ENDBRANCH  12  19
BRANCH  14  21
HETATM   21  O4  UNL     1      40.171   5.792  37.665  1.00  0.00    -0.395 OA
ATOM     22  H4  UNL     1      40.168   6.665  38.039  1.00  0.00     0.210 HD
ENDBRANCH  14  21
TORSDOF 3
ENDMDL
MODEL 2
REMARK VINA RESULT: -7.687411250      2.579      3.366
REMARK  3 active torsions:
REMARK  status: ('A' for Active; 'I' for Inactive)
REMARK    1  A    between atoms: C6_6  and  O1_8 
REMARK    2  A    between atoms: C11_14  and  O3_15 
REMARK    3  A    between atoms: C13_18  and  O4_19 
ROOT
HETATM    1  C1  UNL     1      40.562   7.034  37.758  1.00  0.00     0.043 C 
HETATM    2  C2  UNL     1      40.192   6.196  36.578  1.00  0.00    -0.087 C 
HETATM    3  C3  UNL     1      39.646   6.755  35.534  1.00  0.00    -0.024 C 
HETATM    4  C4  UNL     1      39.222   6.087  34.295  1.00  0.00     0.030 C 
HETATM    5  C5  UNL     1      37.768   5.646  34.338  1.00  0.00     0.041 C 
HETATM    6  C6  UNL     1      37.433   4.716  33.206  1.00  0.00     0.054 C 
HETATM    7  C7  UNL     1      38.149   5.097  31.924  1.00  0.00     0.045 C 
HETATM    8  C8  UNL     1      37.634   3.287  33.591  1.00  0.00     0.039 C 
HETATM    9  C9  UNL     1      38.211   2.424  32.525  1.00  0.00     0.029 C 
HETATM   10  C10 UNL     1      39.621   1.957  32.813  1.00  0.00     0.171 C 
HETATM   11  O2  UNL     1      39.960   2.322  34.093  1.00  0.00    -0.361 OA
HETATM   12  C11 UNL     1      41.083   1.722  34.602  1.00  0.00     0.259 C 
HETATM   13  C12 UNL     1      41.133   1.959  36.086  1.00  0.00     0.092 C 
HETATM   14  C13 UNL     1      42.167   2.963  36.501  1.00  0.00     0.123 C 
HETATM   15  C14 UNL     1      41.806   4.359  36.096  1.00  0.00     0.036 C 
HETATM   16  C15 UNL     1      40.488   4.729  36.692  1.00  0.00     0.036 C 
ENDROOT
BRANCH   6  17
HETATM   17  O1  UNL     1      36.056   4.899  32.937  1.00  0.00    -0.390 OA
ATOM     18  H1  UNL     1      35.651   4.045  33.034  1.00  0.00     0.210 HD
ENDBRANCH   6  17
BRANCH  12  19
HETATM   19  O3  UNL     1      42.196   2.215  33.933  1.00  0.00    -0.371 OA
ATOM     20  H3  UNL     1      42.048   3.131  33.728  1.00  0.00     0.212 HD
ENDBRANCH  12  19
BRANCH  14  21
HETATM   21  O4  UNL     1      42.422   2.844  37.863  1.00  0.00    -0.395 OA
ATOM     22  H4  UNL     1      42.696   3.683  38.214  1.00  0.00     0.210 HD
ENDBRANCH  14  21
TORSDOF 3
ENDMDL
MODEL 3
REMARK VINA RESULT: -7.652978338      1.271      1.524
REMARK  3 active torsions:
REMARK  status: ('A' for Active; 'I' for Inactive)
REMARK    1  A    between atoms: C6_6  and  O1_8 
REMARK    2  A    between atoms: C11_14  and  O3_15 
REMARK    3  A    between atoms: C13_18  and  O4_19 
ROOT
HETATM    1  C1  UNL     1      38.096   9.937  36.699  1.00  0.00     0.043 C 
HETATM    2  C2  UNL     1      38.151   8.708  35.852  1.00  0.00    -0.087 C 
HETATM    3  C3  UNL     1      37.794   8.769  34.599  1.00  0.00    -0.024 C 
HETATM    4  C4  UNL     1      37.786   7.666  33.629  1.00  0.00     0.030 C 
HETATM    5  C5  UNL     1      36.448   6.947  33.573  1.00  0.00     0.041 C 
HETATM    6  C6  UNL     1      36.539   5.656  32.809  1.00  0.00     0.054 C 
HETATM    7  C7  UNL     1      37.477   5.761  31.621  1.00  0.00     0.045 C 
HETATM    8  C8  UNL     1      36.854   4.507  33.709  1.00  0.00     0.039 C 
HETATM    9  C9  UNL     1      37.794   3.502  33.140  1.00  0.00     0.029 C 
HETATM   10  C10 UNL     1      39.147   3.479  33.817  1.00  0.00     0.171 C 
HETATM   11  O2  UNL     1      39.109   4.297  34.920  1.00  0.00    -0.361 OA
HETATM   12  C11 UNL     1      40.154   4.157  35.797  1.00  0.00     0.259 C 
HETATM   13  C12 UNL     1      39.809   4.858  37.082  1.00  0.00     0.092 C 
HETATM   14  C13 UNL     1      40.550   6.146  37.282  1.00  0.00     0.123 C 
HETATM   15  C14 UNL     1      40.091   7.224  36.349  1.00  0.00     0.036 C 
HETATM   16  C15 UNL     1      38.628   7.458  36.534  1.00  0.00     0.036 C 
ENDROOT
BRANCH   6  17
HETATM   17  O1  UNL     1      35.255   5.431  32.257  1.00  0.00    -0.390 OA
ATOM     18  H1  UNL     1      35.058   4.514  32.409  1.00  0.00     0.210 HD
ENDBRANCH   6  17
BRANCH  12  19
HETATM   19  O3  UNL     1      41.308   4.650  35.200  1.00  0.00    -0.371 OA
ATOM     20  H3  UNL     1      42.063   4.278  35.641  1.00  0.00     0.212 HD
ENDBRANCH  12  19
BRANCH  14  21
HETATM   21  O4  UNL     1      40.484   6.526  38.619  1.00  0.00    -0.395 OA
ATOM     22  H4  UNL     1      41.115   7.215  38.790  1.00  0.00     0.210 HD
ENDBRANCH  14  21
TORSDOF 3
ENDMDL
MODEL 4
REMARK VINA RESULT: -7.639588961      2.188      5.436
REMARK  3 active torsions:
REMARK  status: ('A' for Active; 'I' for Inactive)
REMARK    1  A    between atoms: C6_6  and  O1_8 
REMARK    2  A    between atoms: C11_14  and  O3_15 
REMARK    3  A    between atoms: C13_18  and  O4_19 
ROOT
HETATM    1  C1  UNL     1      39.174   8.762  36.666  1.00  0.00     0.043 C 
HETATM    2  C2  UNL     1      39.420   7.325  36.343  1.00  0.00    -0.087 C 
HETATM    3  C3  UNL     1      39.852   6.518  37.273  1.00  0.00    -0.024 C 
HETATM    4  C4  UNL     1      40.145   5.085  37.131  1.00  0.00     0.030 C 
HETATM    5  C5  UNL     1      41.597   4.820  36.768  1.00  0.00     0.041 C 
HETATM    6  C6  UNL     1      41.814   3.395  36.341  1.00  0.00     0.054 C 
HETATM    7  C7  UNL     1      40.966   2.425  37.141  1.00  0.00     0.045 C 
HETATM    8  C8  UNL     1      41.660   3.235  34.864  1.00  0.00     0.039 C 
HETATM    9  C9  UNL     1      40.976   1.984  34.436  1.00  0.00     0.029 C 
HETATM   10  C10 UNL     1      39.605   2.211  33.836  1.00  0.00     0.171 C 
HETATM   11  O2  UNL     1      39.401   3.561  33.684  1.00  0.00    -0.361 OA
HETATM   12  C11 UNL     1      38.340   3.914  32.891  1.00  0.00     0.259 C 
HETATM   13  C12 UNL     1      38.446   5.376  32.557  1.00  0.00     0.092 C 
HETATM   14  C13 UNL     1      37.457   6.233  33.291  1.00  0.00     0.123 C 
HETATM   15  C14 UNL     1      37.769   6.348  34.751  1.00  0.00     0.036 C 
HETATM   16  C15 UNL     1      39.142   6.909  34.928  1.00  0.00     0.036 C 
ENDROOT
BRANCH   6  17
HETATM   17  O1  UNL     1      43.155   3.084  36.668  1.00  0.00    -0.390 OA
ATOM     18  H1  UNL     1      43.174   2.944  37.608  1.00  0.00     0.210 HD
ENDBRANCH   6  17
BRANCH  12  19
HETATM   19  O3  UNL     1      37.161   3.588  33.551  1.00  0.00    -0.371 OA
ATOM     20  H3  UNL     1      36.472   4.169  33.249  1.00  0.00     0.212 HD
ENDBRANCH  12  19
BRANCH  14  21
HETATM   21  O4  UNL     1      37.348   7.470  32.663  1.00  0.00    -0.395 OA
ATOM     22  H4  UNL     1      37.531   7.378  31.735  1.00  0.00     0.210 HD
ENDBRANCH  14  21
TORSDOF 3
ENDMDL
MODEL 5
REMARK VINA RESULT: -7.527034233      2.127      5.046
REMARK  3 active torsions:
REMARK  status: ('A' for Active; 'I' for Inactive)
REMARK    1  A    between atoms: C6_6  and  O1_8 
REMARK    2  A    between atoms: C11_14  and  O3_15 
REMARK    3  A    between atoms: C13_18  and  O4_19 
ROOT
HETATM    1  C1  UNL     1      39.762   4.587  36.009  1.00  0.00     0.043 C 
HETATM    2  C2  UNL     1      39.199   5.918  35.629  1.00  0.00    -0.087 C 
HETATM    3  C3  UNL     1      39.820   7.008  35.985  1.00  0.00    -0.024 C 
HETATM    4  C4  UNL     1      39.412   8.390  35.698  1.00  0.00     0.030 C 
HETATM    5  C5  UNL     1      38.550   8.984  36.801  1.00  0.00     0.041 C 
HETATM    6  C6  UNL     1      37.902  10.270  36.370  1.00  0.00     0.054 C 
HETATM    7  C7  UNL     1      38.813  11.101  35.488  1.00  0.00     0.045 C 
HETATM    8  C8  UNL     1      36.556  10.031  35.769  1.00  0.00     0.039 C 
HETATM    9  C9  UNL     1      36.231  10.888  34.595  1.00  0.00     0.029 C 
HETATM   10  C10 UNL     1      36.161  10.132  33.287  1.00  0.00     0.171 C 
HETATM   11  O2  UNL     1      36.256   8.786  33.542  1.00  0.00    -0.361 OA
HETATM   12  C11 UNL     1      35.918   7.960  32.501  1.00  0.00     0.259 C 
HETATM   13  C12 UNL     1      35.751   6.559  33.024  1.00  0.00     0.092 C 
HETATM   14  C13 UNL     1      36.876   5.640  32.648  1.00  0.00     0.123 C 
HETATM   15  C14 UNL     1      38.148   5.964  33.370  1.00  0.00     0.036 C 
HETATM   16  C15 UNL     1      37.920   5.893  34.844  1.00  0.00     0.036 C 
ENDROOT
BRANCH   6  17
HETATM   17  O1  UNL     1      37.716  11.033  37.548  1.00  0.00    -0.390 OA
ATOM     18  H1  UNL     1      37.339  11.860  37.272  1.00  0.00     0.210 HD
ENDBRANCH   6  17
BRANCH  12  19
HETATM   19  O3  UNL     1      36.890   8.063  31.515  1.00  0.00    -0.371 OA
ATOM     20  H3  UNL     1      37.730   8.223  31.929  1.00  0.00     0.212 HD
ENDBRANCH  12  19
BRANCH  14  21
HETATM   21  O4  UNL     1      36.481   4.318  32.817  1.00  0.00    -0.395 OA
ATOM     22  H4  UNL     1      37.196   3.736  32.588  1.00  0.00     0.210 HD
ENDBRANCH  14  21
TORSDOF 3
ENDMDL
