MODEL 1
REMARK VINA RESULT: -6.638638144      0.000      0.000
REMARK  2 active torsions:
REMARK  status: ('A' for Active; 'I' for Inactive)
REMARK    1  A    between atoms: C9_9  and  O1_10 
REMARK    2  A    between atoms: C11_13  and  O2_14 
ROOT
HETATM    1  C1  UNL     1      40.450   4.977  34.025  1.00  0.00     0.011 C 
HETATM    2  C2  UNL     1      39.349   5.784  33.412  1.00  0.00    -0.002 C 
HETATM    3  C3  UNL     1      38.943   6.875  34.419  1.00  0.00     0.006 C 
HETATM    4  C4  UNL     1      37.705   7.610  34.067  1.00  0.00     0.007 C 
HETATM    5  C5  UNL     1      37.299   7.357  32.648  1.00  0.00     0.008 C 
HETATM    6  C6  UNL     1      36.086   8.079  32.172  1.00  0.00    -0.017 C 
HETATM    7  C7  UNL     1      34.816   7.705  32.851  1.00  0.00     0.018 C 
HETATM    8  C8  UNL     1      36.314   9.558  32.544  1.00  0.00     0.018 C 
HETATM    9  C9  UNL     1      36.049   7.997  30.679  1.00  0.00     0.128 C 
HETATM   10  C10 UNL     1      36.787   6.948  29.998  1.00  0.00     0.065 C 
HETATM   11  C11 UNL     1      37.806   6.119  30.744  1.00  0.00     0.130 C 
HETATM   12  C12 UNL     1      37.340   5.982  32.143  1.00  0.00     0.005 C 
HETATM   13  C13 UNL     1      36.118   5.137  32.094  1.00  0.00     0.021 C 
HETATM   14  C14 UNL     1      36.728   3.744  31.822  1.00  0.00     0.080 C 
HETATM   15  C15 UNL     1      38.179   3.871  32.216  1.00  0.00     0.136 C 
HETATM   16  O3  UNL     1      39.034   3.120  31.870  1.00  0.00    -0.297 OA
HETATM   17  C16 UNL     1      38.135   5.085  33.060  1.00  0.00     0.030 C 
HETATM   18  C17 UNL     1      37.414   4.617  34.268  1.00  0.00     0.025 C 
ENDROOT
BRANCH   9  19
HETATM   19  O1  UNL     1      34.667   7.948  30.342  1.00  0.00    -0.395 OA
ATOM     20  H1  UNL     1      34.249   7.495  31.064  1.00  0.00     0.210 HD
ENDBRANCH   9  19
BRANCH  11  21
HETATM   21  O2  UNL     1      38.144   5.074  29.983  1.00  0.00    -0.395 OA
ATOM     22  H2  UNL     1      37.356   4.718  29.590  1.00  0.00     0.210 HD
ENDBRANCH  11  21
TORSDOF 2
ENDMDL
MODEL 2
REMARK VINA RESULT: -6.623996337      1.756      4.340
REMARK  2 active torsions:
REMARK  status: ('A' for Active; 'I' for Inactive)
REMARK    1  A    between atoms: C9_9  and  O1_10 
REMARK    2  A    between atoms: C11_13  and  O2_14 
ROOT
HETATM    1  C1  UNL     1      37.995   7.170  35.557  1.00  0.00     0.011 C 
HETATM    2  C2  UNL     1      37.869   5.998  34.635  1.00  0.00    -0.002 C 
HETATM    3  C3  UNL     1      38.889   4.934  35.079  1.00  0.00     0.006 C 
HETATM    4  C4  UNL     1      39.061   3.811  34.127  1.00  0.00     0.007 C 
HETATM    5  C5  UNL     1      37.972   3.785  33.101  1.00  0.00     0.008 C 
HETATM    6  C6  UNL     1      38.023   2.670  32.114  1.00  0.00    -0.017 C 
HETATM    7  C7  UNL     1      39.202   2.678  31.206  1.00  0.00     0.018 C 
HETATM    8  C8  UNL     1      38.175   1.385  32.951  1.00  0.00     0.018 C 
HETATM    9  C9  UNL     1      36.697   2.596  31.424  1.00  0.00     0.128 C 
HETATM   10  C10 UNL     1      35.826   3.758  31.413  1.00  0.00     0.065 C 
HETATM   11  C11 UNL     1      36.108   4.937  32.314  1.00  0.00     0.130 C 
HETATM   12  C12 UNL     1      37.577   5.046  32.468  1.00  0.00     0.005 C 
HETATM   13  C13 UNL     1      38.106   5.445  31.138  1.00  0.00     0.021 C 
HETATM   14  C14 UNL     1      37.678   6.928  31.078  1.00  0.00     0.080 C 
HETATM   15  C15 UNL     1      37.403   7.313  32.511  1.00  0.00     0.136 C 
HETATM   16  O3  UNL     1      36.767   8.262  32.838  1.00  0.00    -0.297 OA
HETATM   17  C16 UNL     1      38.113   6.234  33.231  1.00  0.00     0.030 C 
HETATM   18  C17 UNL     1      39.538   6.556  32.980  1.00  0.00     0.025 C 
ENDROOT
BRANCH   9  19
HETATM   19  O1  UNL     1      36.990   2.167  30.099  1.00  0.00    -0.395 OA
ATOM     20  H1  UNL     1      37.468   1.353  30.200  1.00  0.00     0.210 HD
ENDBRANCH   9  19
BRANCH  11  21
HETATM   21  O2  UNL     1      35.337   5.958  31.933  1.00  0.00    -0.395 OA
ATOM     22  H2  UNL     1      35.873   6.581  31.456  1.00  0.00     0.210 HD
ENDBRANCH  11  21
TORSDOF 2
ENDMDL
MODEL 3
REMARK VINA RESULT: -6.582407478      1.759      3.377
REMARK  2 active torsions:
REMARK  status: ('A' for Active; 'I' for Inactive)
REMARK    1  A    between atoms: C9_9  and  O1_10 
REMARK    2  A    between atoms: C11_13  and  O2_14 
ROOT
HETATM    1  C1  UNL     1      37.282   1.933  32.925  1.00  0.00     0.011 C 
HETATM    2  C2  UNL     1      36.870   3.306  32.495  1.00  0.00    -0.002 C 
HETATM    3  C3  UNL     1      36.324   3.208  31.058  1.00  0.00     0.006 C 
HETATM    4  C4  UNL     1      36.096   4.513  30.395  1.00  0.00     0.007 C 
HETATM    5  C5  UNL     1      36.134   5.644  31.375  1.00  0.00     0.008 C 
HETATM    6  C6  UNL     1      35.877   7.003  30.823  1.00  0.00    -0.017 C 
HETATM    7  C7  UNL     1      36.890   7.498  29.852  1.00  0.00     0.018 C 
HETATM    8  C8  UNL     1      34.575   6.877  30.007  1.00  0.00     0.018 C 
HETATM    9  C9  UNL     1      35.597   7.927  31.966  1.00  0.00     0.128 C 
HETATM   10  C10 UNL     1      36.050   7.578  33.300  1.00  0.00     0.065 C 
HETATM   11  C11 UNL     1      36.548   6.184  33.602  1.00  0.00     0.130 C 
HETATM   12  C12 UNL     1      37.202   5.665  32.378  1.00  0.00     0.005 C 
HETATM   13  C13 UNL     1      38.431   6.478  32.186  1.00  0.00     0.021 C 
HETATM   14  C14 UNL     1      39.341   5.914  33.301  1.00  0.00     0.080 C 
HETATM   15  C15 UNL     1      38.735   4.579  33.660  1.00  0.00     0.136 C 
HETATM   16  O3  UNL     1      38.962   3.992  34.668  1.00  0.00    -0.297 OA
HETATM   17  C16 UNL     1      37.893   4.325  32.471  1.00  0.00     0.030 C 
HETATM   18  C17 UNL     1      38.896   4.057  31.412  1.00  0.00     0.025 C 
ENDROOT
BRANCH   9  19
HETATM   19  O1  UNL     1      36.120   9.188  31.564  1.00  0.00    -0.395 OA
ATOM     20  H1  UNL     1      35.427   9.597  31.060  1.00  0.00     0.210 HD
ENDBRANCH   9  19
BRANCH  11  21
HETATM   21  O2  UNL     1      37.142   6.193  34.798  1.00  0.00    -0.395 OA
ATOM     22  H2  UNL     1      38.079   6.279  34.670  1.00  0.00     0.210 HD
ENDBRANCH  11  21
TORSDOF 2
ENDMDL
MODEL 4
REMARK VINA RESULT: -6.547810635      1.752      4.054
REMARK  2 active torsions:
REMARK  status: ('A' for Active; 'I' for Inactive)
REMARK    1  A    between atoms: C9_9  and  O1_10 
REMARK    2  A    between atoms: C11_13  and  O2_14 
ROOT
HETATM    1  C1  UNL     1      38.343   6.747  35.910  1.00  0.00     0.011 C 
HETATM    2  C2  UNL     1      37.896   5.890  34.767  1.00  0.00    -0.002 C 
HETATM    3  C3  UNL     1      38.719   4.589  34.800  1.00  0.00     0.006 C 
HETATM    4  C4  UNL     1      38.570   3.735  33.599  1.00  0.00     0.007 C 
HETATM    5  C5  UNL     1      37.405   4.160  32.760  1.00  0.00     0.008 C 
HETATM    6  C6  UNL     1      37.136   3.344  31.543  1.00  0.00    -0.017 C 
HETATM    7  C7  UNL     1      38.200   3.382  30.504  1.00  0.00     0.018 C 
HETATM    8  C8  UNL     1      37.106   1.881  32.027  1.00  0.00     0.018 C 
HETATM    9  C9  UNL     1      35.763   3.678  31.050  1.00  0.00     0.128 C 
HETATM   10  C10 UNL     1      35.147   4.935  31.435  1.00  0.00     0.065 C 
HETATM   11  C11 UNL     1      35.745   5.778  32.537  1.00  0.00     0.130 C 
HETATM   12  C12 UNL     1      37.214   5.590  32.502  1.00  0.00     0.005 C 
HETATM   13  C13 UNL     1      37.683   6.220  31.240  1.00  0.00     0.021 C 
HETATM   14  C14 UNL     1      37.559   7.720  31.590  1.00  0.00     0.080 C 
HETATM   15  C15 UNL     1      37.505   7.765  33.097  1.00  0.00     0.136 C 
HETATM   16  O3  UNL     1      37.107   8.694  33.725  1.00  0.00    -0.297 OA
HETATM   17  C16 UNL     1      38.048   6.432  33.437  1.00  0.00     0.030 C 
HETATM   18  C17 UNL     1      39.478   6.559  33.068  1.00  0.00     0.025 C 
ENDROOT
BRANCH   9  19
HETATM   19  O1  UNL     1      35.836   3.559  29.634  1.00  0.00    -0.395 OA
ATOM     20  H1  UNL     1      36.548   2.952  29.470  1.00  0.00     0.210 HD
ENDBRANCH   9  19
BRANCH  11  21
HETATM   21  O2  UNL     1      35.163   6.979  32.519  1.00  0.00    -0.395 OA
ATOM     22  H2  UNL     1      34.957   7.230  33.412  1.00  0.00     0.210 HD
ENDBRANCH  11  21
TORSDOF 2
ENDMDL
MODEL 5
REMARK VINA RESULT: -6.469267401      1.752      2.584
REMARK  2 active torsions:
REMARK  status: ('A' for Active; 'I' for Inactive)
REMARK    1  A    between atoms: C9_9  and  O1_10 
REMARK    2  A    between atoms: C11_13  and  O2_14 
ROOT
HETATM    1  C1  UNL     1      40.087   6.010  34.393  1.00  0.00     0.011 C 
HETATM    2  C2  UNL     1      39.140   5.777  33.257  1.00  0.00    -0.002 C 
HETATM    3  C3  UNL     1      38.178   6.977  33.189  1.00  0.00     0.006 C 
HETATM    4  C4  UNL     1      37.027   6.793  32.273  1.00  0.00     0.007 C 
HETATM    5  C5  UNL     1      37.225   5.618  31.368  1.00  0.00     0.008 C 
HETATM    6  C6  UNL     1      36.145   5.362  30.375  1.00  0.00    -0.017 C 
HETATM    7  C7  UNL     1      34.823   4.995  30.953  1.00  0.00     0.018 C 
HETATM    8  C8  UNL     1      35.907   6.711  29.668  1.00  0.00     0.018 C 
HETATM    9  C9  UNL     1      36.669   4.408  29.348  1.00  0.00     0.128 C 
HETATM   10  C10 UNL     1      37.806   3.563  29.666  1.00  0.00     0.065 C 
HETATM   11  C11 UNL     1      38.635   3.825  30.902  1.00  0.00     0.130 C 
HETATM   12  C12 UNL     1      37.733   4.369  31.943  1.00  0.00     0.005 C 
HETATM   13  C13 UNL     1      36.818   3.261  32.322  1.00  0.00     0.021 C 
HETATM   14  C14 UNL     1      37.763   2.364  33.153  1.00  0.00     0.080 C 
HETATM   15  C15 UNL     1      38.912   3.262  33.541  1.00  0.00     0.136 C 
HETATM   16  O3  UNL     1      39.971   2.871  33.914  1.00  0.00    -0.297 OA
HETATM   17  C16 UNL     1      38.312   4.596  33.319  1.00  0.00     0.030 C 
HETATM   18  C17 UNL     1      37.317   4.693  34.415  1.00  0.00     0.025 C 
ENDROOT
BRANCH   9  19
HETATM   19  O1  UNL     1      35.547   3.626  28.957  1.00  0.00    -0.395 OA
ATOM     20  H1  UNL     1      35.750   2.741  29.235  1.00  0.00     0.210 HD
ENDBRANCH   9  19
BRANCH  11  21
HETATM   21  O2  UNL     1      39.436   2.777  31.107  1.00  0.00    -0.395 OA
ATOM     22  H2  UNL     1      40.243   2.913  30.625  1.00  0.00     0.210 HD
ENDBRANCH  11  21
TORSDOF 2
ENDMDL
