MODEL 1
REMARK VINA RESULT: -7.832148803      0.000      0.000
REMARK  3 active torsions:
REMARK  status: ('A' for Active; 'I' for Inactive)
REMARK    1  A    between atoms: C8_9  and  O2_10 
REMARK    2  A    between atoms: C10_13  and  O3_15 
REMARK    3  A    between atoms: C14_19  and  O4_21 
ROOT
HETATM    1  C1  UNL     1      38.899   4.014  32.541  1.00  0.00     0.043 C 
HETATM    2  C2  UNL     1      38.735   5.228  33.467  1.00  0.00    -0.085 C 
HETATM    3  C3  UNL     1      39.155   5.049  34.683  1.00  0.00    -0.024 C 
HETATM    4  C4  UNL     1      39.215   5.863  35.887  1.00  0.00     0.030 C 
HETATM    5  C5  UNL     1      39.870   7.189  35.841  1.00  0.00     0.047 C 
HETATM    6  C6  UNL     1      39.582   8.103  36.971  1.00  0.00     0.117 A 
HETATM    7  C7  UNL     1      40.430   7.853  38.227  1.00  0.00     0.052 C 
HETATM    8  O1  UNL     1      39.785   9.514  36.500  1.00  0.00    -0.336 OA
HETATM    9  C8  UNL     1      38.589   9.066  36.992  1.00  0.00     0.197 A 
HETATM   10  C9  UNL     1      37.354   8.931  36.165  1.00  0.00     0.108 C 
HETATM   11  C10 UNL     1      37.153   9.913  35.072  1.00  0.00     0.059 C 
HETATM   12  C11 UNL     1      38.155  11.036  35.051  1.00  0.00     0.046 C 
HETATM   13  C12 UNL     1      37.254   9.214  33.699  1.00  0.00     0.040 C 
HETATM   14  C13 UNL     1      36.312   8.096  33.554  1.00  0.00     0.040 C 
HETATM   15  C14 UNL     1      36.725   6.745  33.169  1.00  0.00     0.058 C 
HETATM   16  C15 UNL     1      35.770   6.334  32.009  1.00  0.00     0.046 C 
HETATM   17  C16 UNL     1      38.119   6.422  32.819  1.00  0.00     0.070 C 
ENDROOT
BRANCH  11  18
HETATM   18  O3  UNL     1      35.878  10.499  35.079  1.00  0.00    -0.390 OA
ATOM     19  H3  UNL     1      35.875  11.389  35.412  1.00  0.00     0.210 HD
ENDBRANCH  11  18
BRANCH   9  20
HETATM   20  O2  UNL     1      38.316   9.649  38.263  1.00  0.00    -0.363 OA
ATOM     21  H2  UNL     1      37.722  10.389  38.260  1.00  0.00     0.213 HD
ENDBRANCH   9  20
BRANCH  15  22
HETATM   22  O4  UNL     1      36.316   5.785  34.140  1.00  0.00    -0.390 OA
ATOM     23  H4  UNL     1      35.465   5.422  33.926  1.00  0.00     0.210 HD
ENDBRANCH  15  22
TORSDOF 3
ENDMDL
MODEL 2
REMARK VINA RESULT: -7.541972369      1.726      2.963
REMARK  3 active torsions:
REMARK  status: ('A' for Active; 'I' for Inactive)
REMARK    1  A    between atoms: C8_9  and  O2_10 
REMARK    2  A    between atoms: C10_13  and  O3_15 
REMARK    3  A    between atoms: C14_19  and  O4_21 
ROOT
HETATM    1  C1  UNL     1      40.655   4.265  35.253  1.00  0.00     0.043 C 
HETATM    2  C2  UNL     1      39.674   5.414  34.978  1.00  0.00    -0.085 C 
HETATM    3  C3  UNL     1      39.493   6.228  35.973  1.00  0.00    -0.024 C 
HETATM    4  C4  UNL     1      38.693   7.422  36.200  1.00  0.00     0.030 C 
HETATM    5  C5  UNL     1      38.806   8.566  35.268  1.00  0.00     0.047 C 
HETATM    6  C6  UNL     1      37.726   9.578  35.337  1.00  0.00     0.117 A 
HETATM    7  C7  UNL     1      37.896  10.618  36.454  1.00  0.00     0.052 C 
HETATM    8  O1  UNL     1      37.648  10.274  34.009  1.00  0.00    -0.336 OA
HETATM    9  C8  UNL     1      36.589   9.595  34.549  1.00  0.00     0.197 A 
HETATM   10  C9  UNL     1      36.028   8.342  33.964  1.00  0.00     0.108 C 
HETATM   11  C10 UNL     1      36.062   8.203  32.487  1.00  0.00     0.059 C 
HETATM   12  C11 UNL     1      36.512   9.439  31.755  1.00  0.00     0.046 C 
HETATM   13  C12 UNL     1      37.035   7.075  32.078  1.00  0.00     0.040 C 
HETATM   14  C13 UNL     1      36.711   5.785  32.701  1.00  0.00     0.040 C 
HETATM   15  C14 UNL     1      37.680   4.999  33.468  1.00  0.00     0.058 C 
HETATM   16  C15 UNL     1      37.598   3.556  32.886  1.00  0.00     0.046 C 
HETATM   17  C16 UNL     1      39.087   5.412  33.606  1.00  0.00     0.070 C 
ENDROOT
BRANCH  11  18
HETATM   18  O3  UNL     1      34.828   7.824  31.936  1.00  0.00    -0.390 OA
ATOM     19  H3  UNL     1      34.847   7.749  30.989  1.00  0.00     0.210 HD
ENDBRANCH  11  18
BRANCH   9  20
HETATM   20  O2  UNL     1      35.565  10.497  34.956  1.00  0.00    -0.363 OA
ATOM     21  H2  UNL     1      34.733  10.101  35.185  1.00  0.00     0.213 HD
ENDBRANCH   9  20
BRANCH  15  22
HETATM   22  O4  UNL     1      37.202   4.733  34.783  1.00  0.00    -0.390 OA
ATOM     23  H4  UNL     1      36.847   3.854  34.849  1.00  0.00     0.210 HD
ENDBRANCH  15  22
TORSDOF 3
ENDMDL
MODEL 3
REMARK VINA RESULT: -7.301794200      1.969      4.895
REMARK  3 active torsions:
REMARK  status: ('A' for Active; 'I' for Inactive)
REMARK    1  A    between atoms: C8_9  and  O2_10 
REMARK    2  A    between atoms: C10_13  and  O3_15 
REMARK    3  A    between atoms: C14_19  and  O4_21 
ROOT
HETATM    1  C1  UNL     1      38.408  10.313  38.530  1.00  0.00     0.043 C 
HETATM    2  C2  UNL     1      38.698   9.127  37.598  1.00  0.00    -0.085 C 
HETATM    3  C3  UNL     1      39.832   8.530  37.808  1.00  0.00    -0.024 C 
HETATM    4  C4  UNL     1      40.533   7.402  37.213  1.00  0.00     0.030 C 
HETATM    5  C5  UNL     1      39.850   6.095  37.098  1.00  0.00     0.047 C 
HETATM    6  C6  UNL     1      40.464   5.112  36.175  1.00  0.00     0.117 A 
HETATM    7  C7  UNL     1      41.636   4.320  36.773  1.00  0.00     0.052 C 
HETATM    8  O1  UNL     1      39.395   4.162  35.720  1.00  0.00    -0.336 OA
HETATM    9  C8  UNL     1      40.117   4.931  34.848  1.00  0.00     0.197 A 
HETATM   10  C9  UNL     1      39.527   6.038  34.039  1.00  0.00     0.108 C 
HETATM   11  C10 UNL     1      38.125   5.876  33.581  1.00  0.00     0.059 C 
HETATM   12  C11 UNL     1      37.532   4.520  33.856  1.00  0.00     0.046 C 
HETATM   13  C12 UNL     1      37.210   6.902  34.285  1.00  0.00     0.040 C 
HETATM   14  C13 UNL     1      37.650   8.290  34.090  1.00  0.00     0.040 C 
HETATM   15  C14 UNL     1      37.888   9.219  35.196  1.00  0.00     0.058 C 
HETATM   16  C15 UNL     1      37.105  10.514  34.826  1.00  0.00     0.046 C 
HETATM   17  C16 UNL     1      37.625   8.849  36.598  1.00  0.00     0.070 C 
ENDROOT
BRANCH  11  18
HETATM   18  O3  UNL     1      37.954   6.129  32.212  1.00  0.00    -0.390 OA
ATOM     19  H3  UNL     1      38.760   6.373  31.771  1.00  0.00     0.210 HD
ENDBRANCH  11  18
BRANCH   9  20
HETATM   20  O2  UNL     1      41.005   4.125  34.079  1.00  0.00    -0.363 OA
ATOM     21  H2  UNL     1      40.715   3.915  33.199  1.00  0.00     0.213 HD
ENDBRANCH   9  20
BRANCH  15  22
HETATM   22  O4  UNL     1      39.212   9.743  35.154  1.00  0.00    -0.390 OA
ATOM     23  H4  UNL     1      39.390  10.289  35.910  1.00  0.00     0.210 HD
ENDBRANCH  15  22
TORSDOF 3
ENDMDL
MODEL 4
REMARK VINA RESULT: -7.296910611      1.532      5.708
REMARK  3 active torsions:
REMARK  status: ('A' for Active; 'I' for Inactive)
REMARK    1  A    between atoms: C8_9  and  O2_10 
REMARK    2  A    between atoms: C10_13  and  O3_15 
REMARK    3  A    between atoms: C14_19  and  O4_21 
ROOT
HETATM    1  C1  UNL     1      36.877  12.130  35.069  1.00  0.00     0.043 C 
HETATM    2  C2  UNL     1      37.108  10.633  34.819  1.00  0.00    -0.085 C 
HETATM    3  C3  UNL     1      36.146  10.029  34.189  1.00  0.00    -0.024 C 
HETATM    4  C4  UNL     1      35.902   8.669  33.735  1.00  0.00     0.030 C 
HETATM    5  C5  UNL     1      36.904   7.990  32.884  1.00  0.00     0.047 C 
HETATM    6  C6  UNL     1      36.775   6.519  32.763  1.00  0.00     0.117 A 
HETATM    7  C7  UNL     1      35.744   6.052  31.725  1.00  0.00     0.052 C 
HETATM    8  O1  UNL     1      38.123   5.954  32.422  1.00  0.00    -0.336 OA
HETATM    9  C8  UNL     1      37.434   5.588  33.546  1.00  0.00     0.197 A 
HETATM   10  C9  UNL     1      37.882   5.912  34.932  1.00  0.00     0.108 C 
HETATM   11  C10 UNL     1      39.343   5.953  35.185  1.00  0.00     0.059 C 
HETATM   12  C11 UNL     1      40.189   5.488  34.030  1.00  0.00     0.046 C 
HETATM   13  C12 UNL     1      39.791   7.397  35.500  1.00  0.00     0.040 C 
HETATM   14  C13 UNL     1      39.064   7.989  36.631  1.00  0.00     0.040 C 
HETATM   15  C14 UNL     1      38.365   9.272  36.551  1.00  0.00     0.058 C 
HETATM   16  C15 UNL     1      38.852  10.088  37.786  1.00  0.00     0.046 C 
HETATM   17  C16 UNL     1      38.405  10.111  35.341  1.00  0.00     0.070 C 
ENDROOT
BRANCH  11  18
HETATM   18  O3  UNL     1      39.734   5.207  36.308  1.00  0.00    -0.390 OA
ATOM     19  H3  UNL     1      39.776   4.272  36.142  1.00  0.00     0.210 HD
ENDBRANCH  11  18
BRANCH   9  20
HETATM   20  O2  UNL     1      36.968   4.246  33.437  1.00  0.00    -0.363 OA
ATOM     21  H2  UNL     1      37.289   3.643  34.097  1.00  0.00     0.213 HD
ENDBRANCH   9  20
BRANCH  15  22
HETATM   22  O4  UNL     1      36.992   9.134  36.906  1.00  0.00    -0.390 OA
ATOM     23  H4  UNL     1      36.426   9.304  36.162  1.00  0.00     0.210 HD
ENDBRANCH  15  22
TORSDOF 3
ENDMDL
MODEL 5
REMARK VINA RESULT: -7.280580040      1.540      4.793
REMARK  3 active torsions:
REMARK  status: ('A' for Active; 'I' for Inactive)
REMARK    1  A    between atoms: C8_9  and  O2_10 
REMARK    2  A    between atoms: C10_13  and  O3_15 
REMARK    3  A    between atoms: C14_19  and  O4_21 
ROOT
HETATM    1  C1  UNL     1      38.333  10.599  38.316  1.00  0.00     0.043 C 
HETATM    2  C2  UNL     1      38.364   9.551  37.194  1.00  0.00    -0.085 C 
HETATM    3  C3  UNL     1      39.421   8.797  37.179  1.00  0.00    -0.024 C 
HETATM    4  C4  UNL     1      39.899   7.703  36.349  1.00  0.00     0.030 C 
HETATM    5  C5  UNL     1      39.037   6.521  36.128  1.00  0.00     0.047 C 
HETATM    6  C6  UNL     1      39.417   5.631  35.005  1.00  0.00     0.117 A 
HETATM    7  C7  UNL     1      40.523   4.620  35.338  1.00  0.00     0.052 C 
HETATM    8  O1  UNL     1      38.188   4.900  34.548  1.00  0.00    -0.336 OA
HETATM    9  C8  UNL     1      38.918   5.706  33.717  1.00  0.00     0.197 A 
HETATM   10  C9  UNL     1      38.407   6.990  33.152  1.00  0.00     0.108 C 
HETATM   11  C10 UNL     1      36.957   7.071  32.847  1.00  0.00     0.059 C 
HETATM   12  C11 UNL     1      36.215   5.769  32.991  1.00  0.00     0.046 C 
HETATM   13  C12 UNL     1      36.266   8.074  33.795  1.00  0.00     0.040 C 
HETATM   14  C13 UNL     1      36.869   9.413  33.752  1.00  0.00     0.040 C 
HETATM   15  C14 UNL     1      37.339  10.119  34.945  1.00  0.00     0.058 C 
HETATM   16  C15 UNL     1      36.707  11.541  34.863  1.00  0.00     0.046 C 
HETATM   17  C16 UNL     1      37.170   9.566  36.300  1.00  0.00     0.070 C 
ENDROOT
BRANCH  11  18
HETATM   18  O3  UNL     1      36.688   7.558  31.558  1.00  0.00    -0.390 OA
ATOM     19  H3  UNL     1      35.777   7.796  31.429  1.00  0.00     0.210 HD
ENDBRANCH  11  18
BRANCH   9  20
HETATM   20  O2  UNL     1      39.607   4.932  32.739  1.00  0.00    -0.363 OA
ATOM     21  H2  UNL     1      39.579   5.268  31.851  1.00  0.00     0.213 HD
ENDBRANCH   9  20
BRANCH  15  22
HETATM   22  O4  UNL     1      38.712  10.481  34.822  1.00  0.00    -0.390 OA
ATOM     23  H4  UNL     1      39.015  10.948  35.592  1.00  0.00     0.210 HD
ENDBRANCH  15  22
TORSDOF 3
ENDMDL
