MODEL 1
REMARK VINA RESULT: -6.830556789      0.000      0.000
REMARK  1 active torsions:
REMARK  status: ('A' for Active; 'I' for Inactive)
REMARK    1  A    between atoms: C7_7  and  O1_8 
ROOT
HETATM    1  C1  UNL     1      33.406   7.495  28.733  1.00  0.00     0.010 C 
HETATM    2  C2  UNL     1      34.772   7.135  28.325  1.00  0.00    -0.008 C 
HETATM    3  C3  UNL     1      35.754   8.318  28.369  1.00  0.00     0.005 C 
HETATM    4  C4  UNL     1      35.888   8.890  29.715  1.00  0.00     0.006 C 
HETATM    5  C5  UNL     1      37.013   8.454  30.575  1.00  0.00     0.006 C 
HETATM    6  C6  UNL     1      37.832   7.315  30.133  1.00  0.00     0.039 C 
HETATM    7  C7  UNL     1      37.334   5.942  30.403  1.00  0.00     0.142 C 
HETATM    8  C8  UNL     1      35.836   5.881  30.286  1.00  0.00     0.095 C 
HETATM    9  S1  UNL     1      35.113   6.917  31.513  1.00  0.00    -0.142 SA
HETATM   10  C9  UNL     1      36.383   8.175  31.952  1.00  0.00     0.005 C 
HETATM   11  C10 UNL     1      35.715   9.436  32.445  1.00  0.00     0.027 C 
HETATM   12  C11 UNL     1      37.340   7.693  32.966  1.00  0.00     0.027 C 
HETATM   13  C12 UNL     1      35.322   4.457  30.551  1.00  0.00     0.348 C 
HETATM   14  N1  UNL     1      35.548   3.725  29.336  1.00  0.00    -0.015 N 
ATOM     15  H11 UNL     1      35.444   2.714  29.252  1.00  0.00     0.284 HD
ATOM     16  H12 UNL     1      36.468   3.580  28.922  1.00  0.00     0.284 HD
HETATM   17  C13 UNL     1      34.562   4.699  28.831  1.00  0.00     0.233 C 
HETATM   18  C14 UNL     1      33.818   4.385  27.642  1.00  0.00     0.079 C 
HETATM   19  O2  UNL     1      33.991   4.613  30.092  1.00  0.00    -0.319 OA
HETATM   20  C15 UNL     1      35.409   5.966  28.887  1.00  0.00     0.078 C 
ENDROOT
BRANCH   7  21
HETATM   21  O1  UNL     1      37.831   5.060  29.413  1.00  0.00    -0.394 OA
ATOM     22  H1  UNL     1      38.047   5.554  28.631  1.00  0.00     0.210 HD
ENDBRANCH   7  21
TORSDOF 1
ENDMDL
MODEL 2
REMARK VINA RESULT: -6.509871200      2.899      4.724
REMARK  1 active torsions:
REMARK  status: ('A' for Active; 'I' for Inactive)
REMARK    1  A    between atoms: C7_7  and  O1_8 
ROOT
HETATM    1  C1  UNL     1      38.212   3.241  30.680  1.00  0.00     0.010 C 
HETATM    2  C2  UNL     1      37.045   3.477  31.542  1.00  0.00    -0.008 C 
HETATM    3  C3  UNL     1      37.202   2.892  32.956  1.00  0.00     0.005 C 
HETATM    4  C4  UNL     1      38.343   3.466  33.681  1.00  0.00     0.006 C 
HETATM    5  C5  UNL     1      38.110   4.592  34.615  1.00  0.00     0.006 C 
HETATM    6  C6  UNL     1      36.786   5.230  34.629  1.00  0.00     0.039 C 
HETATM    7  C7  UNL     1      36.490   6.261  33.602  1.00  0.00     0.142 C 
HETATM    8  C8  UNL     1      37.147   5.921  32.293  1.00  0.00     0.095 C 
HETATM    9  S1  UNL     1      38.896   5.922  32.502  1.00  0.00    -0.142 SA
HETATM   10  C9  UNL     1      39.211   5.619  34.289  1.00  0.00     0.005 C 
HETATM   11  C10 UNL     1      40.558   4.964  34.476  1.00  0.00     0.027 C 
HETATM   12  C11 UNL     1      39.144   6.851  35.100  1.00  0.00     0.027 C 
HETATM   13  C12 UNL     1      36.830   6.982  31.226  1.00  0.00     0.348 C 
HETATM   14  N1  UNL     1      35.506   6.681  30.756  1.00  0.00    -0.015 N 
ATOM     15  H11 UNL     1      34.963   7.296  30.149  1.00  0.00     0.284 HD
ATOM     16  H12 UNL     1      34.678   6.676  31.350  1.00  0.00     0.284 HD
HETATM   17  C13 UNL     1      36.193   5.462  30.290  1.00  0.00     0.233 C 
HETATM   18  C14 UNL     1      35.608   4.698  29.221  1.00  0.00     0.079 C 
HETATM   19  O2  UNL     1      37.287   6.287  30.080  1.00  0.00    -0.319 OA
HETATM   20  C15 UNL     1      36.472   4.800  31.635  1.00  0.00     0.078 C 
ENDROOT
BRANCH   7  21
HETATM   21  O1  UNL     1      35.099   6.275  33.338  1.00  0.00    -0.394 OA
ATOM     22  H1  UNL     1      34.683   5.557  33.801  1.00  0.00     0.210 HD
ENDBRANCH   7  21
TORSDOF 1
ENDMDL
MODEL 3
REMARK VINA RESULT: -6.410734132      1.776      3.004
REMARK  1 active torsions:
REMARK  status: ('A' for Active; 'I' for Inactive)
REMARK    1  A    between atoms: C7_7  and  O1_8 
ROOT
HETATM    1  C1  UNL     1      35.681   8.199  31.120  1.00  0.00     0.010 C 
HETATM    2  C2  UNL     1      36.367   7.432  30.070  1.00  0.00    -0.008 C 
HETATM    3  C3  UNL     1      37.838   7.124  30.401  1.00  0.00     0.005 C 
HETATM    4  C4  UNL     1      37.986   6.328  31.626  1.00  0.00     0.006 C 
HETATM    5  C5  UNL     1      38.130   4.857  31.515  1.00  0.00     0.006 C 
HETATM    6  C6  UNL     1      37.911   4.228  30.205  1.00  0.00     0.039 C 
HETATM    7  C7  UNL     1      36.515   3.939  29.787  1.00  0.00     0.142 C 
HETATM    8  C8  UNL     1      35.576   5.006  30.274  1.00  0.00     0.095 C 
HETATM    9  S1  UNL     1      35.570   5.018  32.035  1.00  0.00    -0.142 SA
HETATM   10  C9  UNL     1      37.168   4.279  32.570  1.00  0.00     0.005 C 
HETATM   11  C10 UNL     1      37.558   4.812  33.928  1.00  0.00     0.027 C 
HETATM   12  C11 UNL     1      37.133   2.804  32.609  1.00  0.00     0.027 C 
HETATM   13  C12 UNL     1      34.133   4.715  29.829  1.00  0.00     0.348 C 
HETATM   14  N1  UNL     1      34.054   5.130  28.456  1.00  0.00    -0.015 N 
ATOM     15  H11 UNL     1      33.264   4.927  27.844  1.00  0.00     0.284 HD
ATOM     16  H12 UNL     1      34.626   4.737  27.709  1.00  0.00     0.284 HD
HETATM   17  C13 UNL     1      34.300   6.446  29.076  1.00  0.00     0.233 C 
HETATM   18  C14 UNL     1      33.924   7.634  28.359  1.00  0.00     0.079 C 
HETATM   19  O2  UNL     1      33.548   5.967  30.137  1.00  0.00    -0.319 OA
HETATM   20  C15 UNL     1      35.746   6.250  29.518  1.00  0.00     0.078 C 
ENDROOT
BRANCH   7  21
HETATM   21  O1  UNL     1      36.432   3.973  28.373  1.00  0.00    -0.394 OA
ATOM     22  H1  UNL     1      35.858   4.682  28.109  1.00  0.00     0.210 HD
ENDBRANCH   7  21
TORSDOF 1
ENDMDL
MODEL 4
REMARK VINA RESULT: -6.372714441      2.390      4.064
REMARK  1 active torsions:
REMARK  status: ('A' for Active; 'I' for Inactive)
REMARK    1  A    between atoms: C7_7  and  O1_8 
ROOT
HETATM    1  C1  UNL     1      37.235   4.510  29.608  1.00  0.00     0.010 C 
HETATM    2  C2  UNL     1      36.126   4.813  30.524  1.00  0.00    -0.008 C 
HETATM    3  C3  UNL     1      36.187   4.020  31.841  1.00  0.00     0.005 C 
HETATM    4  C4  UNL     1      37.410   4.293  32.607  1.00  0.00     0.006 C 
HETATM    5  C5  UNL     1      37.370   5.302  33.692  1.00  0.00     0.006 C 
HETATM    6  C6  UNL     1      36.170   6.141  33.826  1.00  0.00     0.039 C 
HETATM    7  C7  UNL     1      36.047   7.339  32.956  1.00  0.00     0.142 C 
HETATM    8  C8  UNL     1      36.635   7.079  31.597  1.00  0.00     0.095 C 
HETATM    9  S1  UNL     1      38.360   6.763  31.759  1.00  0.00    -0.142 SA
HETATM   10  C9  UNL     1      38.625   6.169  33.480  1.00  0.00     0.005 C 
HETATM   11  C10 UNL     1      39.845   5.282  33.541  1.00  0.00     0.027 C 
HETATM   12  C11 UNL     1      38.766   7.271  34.452  1.00  0.00     0.027 C 
HETATM   13  C12 UNL     1      36.495   8.315  30.693  1.00  0.00     0.348 C 
HETATM   14  N1  UNL     1      35.139   8.303  30.220  1.00  0.00    -0.015 N 
ATOM     15  H11 UNL     1      34.704   9.077  29.717  1.00  0.00     0.284 HD
ATOM     16  H12 UNL     1      34.323   8.352  30.829  1.00  0.00     0.284 HD
HETATM   17  C13 UNL     1      35.612   7.064  29.575  1.00  0.00     0.233 C 
HETATM   18  C14 UNL     1      34.905   6.562  28.428  1.00  0.00     0.079 C 
HETATM   19  O2  UNL     1      36.827   7.720  29.451  1.00  0.00    -0.319 OA
HETATM   20  C15 UNL     1      35.781   6.186  30.810  1.00  0.00     0.078 C 
ENDROOT
BRANCH   7  21
HETATM   21  O1  UNL     1      34.677   7.617  32.733  1.00  0.00    -0.394 OA
ATOM     22  H1  UNL     1      34.197   7.509  33.546  1.00  0.00     0.210 HD
ENDBRANCH   7  21
TORSDOF 1
ENDMDL
MODEL 5
REMARK VINA RESULT: -6.196855489      1.791      3.828
REMARK  1 active torsions:
REMARK  status: ('A' for Active; 'I' for Inactive)
REMARK    1  A    between atoms: C7_7  and  O1_8 
ROOT
HETATM    1  C1  UNL     1      38.028   6.067  33.079  1.00  0.00     0.010 C 
HETATM    2  C2  UNL     1      36.667   5.563  32.843  1.00  0.00    -0.008 C 
HETATM    3  C3  UNL     1      35.584   6.649  32.968  1.00  0.00     0.005 C 
HETATM    4  C4  UNL     1      35.766   7.742  32.004  1.00  0.00     0.006 C 
HETATM    5  C5  UNL     1      35.011   7.712  30.730  1.00  0.00     0.006 C 
HETATM    6  C6  UNL     1      34.267   6.492  30.384  1.00  0.00     0.039 C 
HETATM    7  C7  UNL     1      35.009   5.368  29.758  1.00  0.00     0.142 C 
HETATM    8  C8  UNL     1      36.402   5.267  30.315  1.00  0.00     0.095 C 
HETATM    9  S1  UNL     1      37.297   6.730  29.917  1.00  0.00    -0.142 SA
HETATM   10  C9  UNL     1      36.046   8.051  29.641  1.00  0.00     0.005 C 
HETATM   11  C10 UNL     1      36.645   9.404  29.944  1.00  0.00     0.027 C 
HETATM   12  C11 UNL     1      35.500   8.048  28.270  1.00  0.00     0.027 C 
HETATM   13  C12 UNL     1      37.165   4.094  29.677  1.00  0.00     0.348 C 
HETATM   14  N1  UNL     1      36.701   2.913  30.349  1.00  0.00    -0.015 N 
ATOM     15  H11 UNL     1      36.917   1.962  30.045  1.00  0.00     0.284 HD
ATOM     16  H12 UNL     1      35.730   2.601  30.349  1.00  0.00     0.284 HD
HETATM   17  C13 UNL     1      37.353   3.580  31.492  1.00  0.00     0.233 C 
HETATM   18  C14 UNL     1      37.757   2.788  32.622  1.00  0.00     0.079 C 
HETATM   19  O2  UNL     1      38.270   4.042  30.561  1.00  0.00    -0.319 OA
HETATM   20  C15 UNL     1      36.389   4.746  31.684  1.00  0.00     0.078 C 
ENDROOT
BRANCH   7  21
HETATM   21  O1  UNL     1      34.375   4.146  30.089  1.00  0.00    -0.394 OA
ATOM     22  H1  UNL     1      34.953   3.423  29.873  1.00  0.00     0.210 HD
ENDBRANCH   7  21
TORSDOF 1
ENDMDL
