MODEL 1
REMARK VINA RESULT: -8.877042929      0.000      0.000
REMARK  10 active torsions:
REMARK  status: ('A' for Active; 'I' for Inactive)
REMARK    1  A    between atoms: N1_1  and  C1_4 
REMARK    2  A    between atoms: C2_7  and  N3_8 
REMARK    3  A    between atoms: C4_12  and  N4_13 
REMARK    4  A    between atoms: N4_13  and  C5_15 
REMARK    5  A    between atoms: C6_20  and  C7_21 
REMARK    6  A    between atoms: C7_21  and  C8_22 
REMARK    7  A    between atoms: C8_22  and  C9_23 
REMARK    8  A    between atoms: C9_23  and  C10_24 
REMARK    9  A    between atoms: C10_24  and  N7_25 
REMARK   10  A    between atoms: N8_29  and  C11_30 
ROOT
HETATM    1  C1  UNL     1      11.354   4.284   7.156  1.00  0.00     0.679 A 
HETATM    2  N2  UNL     1      11.493   5.578   7.422  1.00  0.00    -0.176 N 
ATOM      3  H2  UNL     1      11.725   6.202   6.649  1.00  0.00     0.186 HD
HETATM    4  C2  UNL     1      11.344   6.132   8.676  1.00  0.00     0.132 A 
HETATM    5  C3  UNL     1      11.025   5.233   9.699  1.00  0.00     0.097 A 
HETATM    6  C4  UNL     1      10.859   5.698  10.981  1.00  0.00     0.139 A 
HETATM    7  N9  UNL     1      10.548   4.782  11.949  1.00  0.00    -0.337 N 
ATOM      8  H9  UNL     1      10.416   5.090  12.912  1.00  0.00     0.168 HD
HETATM    9  C12 UNL     1      10.415   3.484  11.644  1.00  0.00     0.183 A 
HETATM   10  N10 UNL     1      10.577   3.025  10.394  1.00  0.00    -0.337 N 
ATOM     11  H10 UNL     1      10.468   2.030  10.196  1.00  0.00     0.168 HD
HETATM   12  C13 UNL     1      10.884   3.883   9.402  1.00  0.00     0.139 A 
HETATM   13  N11 UNL     1      11.048   3.426   8.140  1.00  0.00    -0.176 N 
ATOM     14  H11 UNL     1      10.940   2.432   7.938  1.00  0.00     0.186 HD
ENDROOT
BRANCH   6  15
HETATM   15  N4  UNL     1      10.985   6.929  11.268  1.00  0.00    -0.174 N 
ATOM     16  H4  UNL     1      11.682   7.488  10.775  1.00  0.00     0.186 HD
BRANCH  15  17
HETATM   17  C5  UNL     1      10.176   7.544  12.261  1.00  0.00     0.706 A 
HETATM   18  N5  UNL     1       8.900   7.203  12.515  1.00  0.00    -0.130 N 
HETATM   19  N6  UNL     1       8.474   7.977  13.487  1.00  0.00    -0.274 N 
ATOM     20  H5  UNL     1       8.363   6.477  12.041  1.00  0.00     0.205 HD
HETATM   21  C6  UNL     1       9.442   8.828  13.884  1.00  0.00     0.120 A 
ATOM     22  H6  UNL     1       7.537   7.940  13.887  1.00  0.00     0.189 HD
HETATM   23  N8  UNL     1      10.500   8.537  13.099  1.00  0.00    -0.110 N 
BRANCH  21  24
HETATM   24  C7  UNL     1       9.333   9.851  14.954  1.00  0.00     0.079 C 
BRANCH  24  25
HETATM   25  C8  UNL     1       9.131   9.210  16.313  1.00  0.00     0.009 C 
BRANCH  25  26
HETATM   26  C9  UNL     1      10.259   9.646  17.225  1.00  0.00     0.027 C 
BRANCH  26  27
HETATM   27  C10 UNL     1      11.515   8.854  16.919  1.00  0.00     0.229 C 
BRANCH  27  28
HETATM   28  N7  UNL     1      12.654   9.734  16.758  1.00  0.00    -0.079 N 
ATOM     29  H73 UNL     1      12.372  10.714  16.728  1.00  0.00     0.274 HD
ATOM     30  H72 UNL     1      13.229   9.766  17.599  1.00  0.00     0.274 HD
ATOM     31  H71 UNL     1      13.201   9.474  15.937  1.00  0.00     0.274 HD
ENDBRANCH  27  28
ENDBRANCH  26  27
ENDBRANCH  25  26
ENDBRANCH  24  25
ENDBRANCH  21  24
BRANCH  23  32
HETATM   32  C11 UNL     1      11.779   9.214  13.177  1.00  0.00     0.481 C 
HETATM   33  F1  UNL     1      12.253   9.552  11.926  1.00  0.00    -0.190 F 
HETATM   34  F2  UNL     1      12.663   8.410  13.871  1.00  0.00    -0.190 F 
ENDBRANCH  23  32
ENDBRANCH  15  17
ENDBRANCH   6  15
BRANCH   4  35
HETATM   35  N3  UNL     1      11.496   7.356   8.816  1.00  0.00    -0.384 N 
ATOM     36  H32 UNL     1      12.009   7.965   8.179  1.00  0.00     0.157 HD
ATOM     37  H31 UNL     1      11.083   7.817   9.628  1.00  0.00     0.157 HD
ENDBRANCH   4  35
BRANCH   1  38
HETATM   38  N1  UNL     1      11.513   3.839   5.931  1.00  0.00    -0.234 N 
ATOM     39  H12 UNL     1      10.699   3.707   5.331  1.00  0.00     0.174 HD
ATOM     40  H11 UNL     1      12.446   3.628   5.579  1.00  0.00     0.174 HD
ENDBRANCH   1  38
TORSDOF 10
ENDMDL
MODEL 2
REMARK VINA RESULT: -8.407664746      0.769      1.019
REMARK  10 active torsions:
REMARK  status: ('A' for Active; 'I' for Inactive)
REMARK    1  A    between atoms: N1_1  and  C1_4 
REMARK    2  A    between atoms: C2_7  and  N3_8 
REMARK    3  A    between atoms: C4_12  and  N4_13 
REMARK    4  A    between atoms: N4_13  and  C5_15 
REMARK    5  A    between atoms: C6_20  and  C7_21 
REMARK    6  A    between atoms: C7_21  and  C8_22 
REMARK    7  A    between atoms: C8_22  and  C9_23 
REMARK    8  A    between atoms: C9_23  and  C10_24 
REMARK    9  A    between atoms: C10_24  and  N7_25 
REMARK   10  A    between atoms: N8_29  and  C11_30 
ROOT
HETATM    1  C1  UNL     1      11.402   4.075   6.991  1.00  0.00     0.679 A 
HETATM    2  N2  UNL     1      11.506   5.387   7.177  1.00  0.00    -0.176 N 
ATOM      3  H2  UNL     1      11.697   5.971   6.364  1.00  0.00     0.186 HD
HETATM    4  C2  UNL     1      11.370   6.009   8.401  1.00  0.00     0.132 A 
HETATM    5  C3  UNL     1      11.107   5.161   9.482  1.00  0.00     0.097 A 
HETATM    6  C4  UNL     1      10.958   5.696  10.739  1.00  0.00     0.139 A 
HETATM    7  N9  UNL     1      10.702   4.829  11.766  1.00  0.00    -0.337 N 
ATOM      8  H9  UNL     1      10.584   5.189  12.713  1.00  0.00     0.168 HD
HETATM    9  C12 UNL     1      10.604   3.512  11.541  1.00  0.00     0.183 A 
HETATM   10  N10 UNL     1      10.749   2.985  10.317  1.00  0.00    -0.337 N 
ATOM     11  H10 UNL     1      10.668   1.978  10.180  1.00  0.00     0.168 HD
HETATM   12  C13 UNL     1      11.003   3.793   9.268  1.00  0.00     0.139 A 
HETATM   13  N11 UNL     1      11.150   3.267   8.031  1.00  0.00    -0.176 N 
ATOM     14  H11 UNL     1      11.070   2.261   7.890  1.00  0.00     0.186 HD
ENDROOT
BRANCH   6  15
HETATM   15  N4  UNL     1      11.051   6.945  10.950  1.00  0.00    -0.174 N 
ATOM     16  H4  UNL     1      11.581   7.524  10.299  1.00  0.00     0.186 HD
BRANCH  15  17
HETATM   17  C5  UNL     1      10.431   7.553  12.075  1.00  0.00     0.706 A 
HETATM   18  N5  UNL     1       9.221   7.208  12.551  1.00  0.00    -0.130 N 
HETATM   19  N6  UNL     1       8.974   7.976  13.587  1.00  0.00    -0.274 N 
ATOM     20  H5  UNL     1       8.609   6.484  12.176  1.00  0.00     0.205 HD
HETATM   21  C6  UNL     1       9.997   8.826  13.810  1.00  0.00     0.120 A 
ATOM     22  H6  UNL     1       8.124   7.935  14.148  1.00  0.00     0.189 HD
HETATM   23  N8  UNL     1      10.898   8.542  12.847  1.00  0.00    -0.110 N 
BRANCH  21  24
HETATM   24  C7  UNL     1      10.080   9.843  14.889  1.00  0.00     0.079 C 
BRANCH  24  25
HETATM   25  C8  UNL     1      10.254   9.196  16.248  1.00  0.00     0.009 C 
BRANCH  25  26
HETATM   26  C9  UNL     1      11.720   9.252  16.625  1.00  0.00     0.027 C 
BRANCH  26  27
HETATM   27  C10 UNL     1      12.324   7.862  16.583  1.00  0.00     0.229 C 
BRANCH  27  28
HETATM   28  N7  UNL     1      12.441   7.308  17.917  1.00  0.00    -0.079 N 
ATOM     29  H73 UNL     1      13.327   6.820  18.046  1.00  0.00     0.274 HD
ATOM     30  H72 UNL     1      12.564   8.037  18.618  1.00  0.00     0.274 HD
ATOM     31  H71 UNL     1      11.644   6.708  18.132  1.00  0.00     0.274 HD
ENDBRANCH  27  28
ENDBRANCH  26  27
ENDBRANCH  25  26
ENDBRANCH  24  25
ENDBRANCH  21  24
BRANCH  23  32
HETATM   32  C11 UNL     1      12.170   9.221  12.700  1.00  0.00     0.481 C 
HETATM   33  F1  UNL     1      13.027   8.928  13.740  1.00  0.00    -0.190 F 
HETATM   34  F2  UNL     1      11.935  10.578  12.583  1.00  0.00    -0.190 F 
ENDBRANCH  23  32
ENDBRANCH  15  17
ENDBRANCH   6  15
BRANCH   4  35
HETATM   35  N3  UNL     1      11.485   7.242   8.465  1.00  0.00    -0.384 N 
ATOM     36  H32 UNL     1      12.131   7.806   7.913  1.00  0.00     0.157 HD
ATOM     37  H31 UNL     1      10.896   7.761   9.117  1.00  0.00     0.157 HD
ENDBRANCH   4  35
BRANCH   1  38
HETATM   38  N1  UNL     1      11.545   3.564   5.790  1.00  0.00    -0.234 N 
ATOM     39  H12 UNL     1      12.202   2.798   5.641  1.00  0.00     0.174 HD
ATOM     40  H11 UNL     1      11.002   3.930   5.008  1.00  0.00     0.174 HD
ENDBRANCH   1  38
TORSDOF 10
ENDMDL
MODEL 3
REMARK VINA RESULT: -8.064569837      1.323      1.875
REMARK  10 active torsions:
REMARK  status: ('A' for Active; 'I' for Inactive)
REMARK    1  A    between atoms: N1_1  and  C1_4 
REMARK    2  A    between atoms: C2_7  and  N3_8 
REMARK    3  A    between atoms: C4_12  and  N4_13 
REMARK    4  A    between atoms: N4_13  and  C5_15 
REMARK    5  A    between atoms: C6_20  and  C7_21 
REMARK    6  A    between atoms: C7_21  and  C8_22 
REMARK    7  A    between atoms: C8_22  and  C9_23 
REMARK    8  A    between atoms: C9_23  and  C10_24 
REMARK    9  A    between atoms: C10_24  and  N7_25 
REMARK   10  A    between atoms: N8_29  and  C11_30 
ROOT
HETATM    1  C1  UNL     1      11.486   4.438   6.530  1.00  0.00     0.679 A 
HETATM    2  N2  UNL     1      11.593   5.709   6.903  1.00  0.00    -0.176 N 
ATOM      3  H2  UNL     1      11.825   6.399   6.188  1.00  0.00     0.186 HD
HETATM    4  C2  UNL     1      11.408   6.155   8.195  1.00  0.00     0.132 A 
HETATM    5  C3  UNL     1      11.091   5.169   9.133  1.00  0.00     0.097 A 
HETATM    6  C4  UNL     1      10.891   5.524  10.446  1.00  0.00     0.139 A 
HETATM    7  N9  UNL     1      10.583   4.525  11.329  1.00  0.00    -0.337 N 
ATOM      8  H9  UNL     1      10.426   4.750  12.312  1.00  0.00     0.168 HD
HETATM    9  C12 UNL     1      10.484   3.255  10.917  1.00  0.00     0.183 A 
HETATM   10  N10 UNL     1      10.678   2.903   9.638  1.00  0.00    -0.337 N 
ATOM     11  H10 UNL     1      10.595   1.925   9.357  1.00  0.00     0.168 HD
HETATM   12  C13 UNL     1      10.985   3.845   8.725  1.00  0.00     0.139 A 
HETATM   13  N11 UNL     1      11.182   3.497   7.434  1.00  0.00    -0.176 N 
ATOM     14  H11 UNL     1      11.099   2.521   7.149  1.00  0.00     0.186 HD
ENDROOT
BRANCH   6  15
HETATM   15  N4  UNL     1      10.985   6.729  10.835  1.00  0.00    -0.174 N 
ATOM     16  H4  UNL     1      11.009   7.478  10.142  1.00  0.00     0.186 HD
BRANCH  15  17
HETATM   17  C5  UNL     1      11.057   7.058  12.215  1.00  0.00     0.706 A 
HETATM   18  N5  UNL     1      10.634   6.255  13.207  1.00  0.00    -0.130 N 
HETATM   19  N6  UNL     1      10.855   6.881  14.340  1.00  0.00    -0.274 N 
ATOM     20  H5  UNL     1      10.218   5.330  13.100  1.00  0.00     0.205 HD
HETATM   21  C6  UNL     1      11.418   8.087  14.121  1.00  0.00     0.120 A 
ATOM     22  H6  UNL     1      10.632   6.506  15.262  1.00  0.00     0.189 HD
HETATM   23  N8  UNL     1      11.533   8.175  12.780  1.00  0.00    -0.110 N 
BRANCH  21  24
HETATM   24  C7  UNL     1      11.810   9.079  15.154  1.00  0.00     0.079 C 
BRANCH  24  25
HETATM   25  C8  UNL     1      10.662   9.380  16.096  1.00  0.00     0.009 C 
BRANCH  25  26
HETATM   26  C9  UNL     1       9.456   9.786  15.275  1.00  0.00     0.027 C 
BRANCH  26  27
HETATM   27  C10 UNL     1       8.232   9.013  15.726  1.00  0.00     0.229 C 
BRANCH  27  28
HETATM   28  N7  UNL     1       7.720   8.184  14.654  1.00  0.00    -0.079 N 
ATOM     29  H73 UNL     1       6.803   7.798  14.880  1.00  0.00     0.274 HD
ATOM     30  H72 UNL     1       7.455   8.740  13.841  1.00  0.00     0.274 HD
ATOM     31  H71 UNL     1       8.387   7.452  14.409  1.00  0.00     0.274 HD
ENDBRANCH  27  28
ENDBRANCH  26  27
ENDBRANCH  25  26
ENDBRANCH  24  25
ENDBRANCH  21  24
BRANCH  23  32
HETATM   32  C11 UNL     1      12.093   9.318  12.086  1.00  0.00     0.481 C 
HETATM   33  F1  UNL     1      13.459   9.400  12.259  1.00  0.00    -0.190 F 
HETATM   34  F2  UNL     1      11.443  10.459  12.518  1.00  0.00    -0.190 F 
ENDBRANCH  23  32
ENDBRANCH  15  17
ENDBRANCH   6  15
BRANCH   4  35
HETATM   35  N3  UNL     1      11.531   7.366   8.437  1.00  0.00    -0.384 N 
ATOM     36  H32 UNL     1      12.329   7.798   8.902  1.00  0.00     0.157 HD
ATOM     37  H31 UNL     1      10.786   8.005   8.159  1.00  0.00     0.157 HD
ENDBRANCH   4  35
BRANCH   1  38
HETATM   38  N1  UNL     1      11.678   4.099   5.276  1.00  0.00    -0.234 N 
ATOM     39  H12 UNL     1      12.099   4.767   4.630  1.00  0.00     0.174 HD
ATOM     40  H11 UNL     1      11.408   3.173   4.947  1.00  0.00     0.174 HD
ENDBRANCH   1  38
TORSDOF 10
ENDMDL
MODEL 4
REMARK VINA RESULT: -7.852999766      2.347      8.101
REMARK  10 active torsions:
REMARK  status: ('A' for Active; 'I' for Inactive)
REMARK    1  A    between atoms: N1_1  and  C1_4 
REMARK    2  A    between atoms: C2_7  and  N3_8 
REMARK    3  A    between atoms: C4_12  and  N4_13 
REMARK    4  A    between atoms: N4_13  and  C5_15 
REMARK    5  A    between atoms: C6_20  and  C7_21 
REMARK    6  A    between atoms: C7_21  and  C8_22 
REMARK    7  A    between atoms: C8_22  and  C9_23 
REMARK    8  A    between atoms: C9_23  and  C10_24 
REMARK    9  A    between atoms: C10_24  and  N7_25 
REMARK   10  A    between atoms: N8_29  and  C11_30 
ROOT
HETATM    1  C1  UNL     1       9.165   9.372  15.028  1.00  0.00     0.679 A 
HETATM    2  N2  UNL     1       8.645   8.267  14.505  1.00  0.00    -0.176 N 
ATOM      3  H2  UNL     1       7.796   7.891  14.928  1.00  0.00     0.186 HD
HETATM    4  C2  UNL     1       9.179   7.595  13.426  1.00  0.00     0.132 A 
HETATM    5  C3  UNL     1      10.342   8.152  12.884  1.00  0.00     0.097 A 
HETATM    6  C4  UNL     1      10.943   7.548  11.807  1.00  0.00     0.139 A 
HETATM    7  N9  UNL     1      12.079   8.128  11.311  1.00  0.00    -0.337 N 
ATOM      8  H9  UNL     1      12.553   7.708  10.511  1.00  0.00     0.168 HD
HETATM    9  C12 UNL     1      12.575   9.243  11.864  1.00  0.00     0.183 A 
HETATM   10  N10 UNL     1      11.992   9.837  12.916  1.00  0.00    -0.337 N 
ATOM     11  H10 UNL     1      12.395  10.685  13.313  1.00  0.00     0.168 HD
HETATM   12  C13 UNL     1      10.871   9.307  13.445  1.00  0.00     0.139 A 
HETATM   13  N11 UNL     1      10.279   9.902  14.505  1.00  0.00    -0.176 N 
ATOM     14  H11 UNL     1      10.679  10.751  14.905  1.00  0.00     0.186 HD
ENDROOT
BRANCH   6  15
HETATM   15  N4  UNL     1      10.472   6.490  11.283  1.00  0.00    -0.174 N 
ATOM     16  H4  UNL     1       9.779   5.945  11.797  1.00  0.00     0.186 HD
BRANCH  15  17
HETATM   17  C5  UNL     1      10.888   6.052   9.997  1.00  0.00     0.706 A 
HETATM   18  N5  UNL     1      11.104   6.871   8.952  1.00  0.00    -0.130 N 
HETATM   19  N6  UNL     1      11.473   6.122   7.938  1.00  0.00    -0.274 N 
ATOM     20  H5  UNL     1      11.000   7.885   8.948  1.00  0.00     0.205 HD
HETATM   21  C6  UNL     1      11.507   4.821   8.288  1.00  0.00     0.120 A 
ATOM     22  H6  UNL     1      11.703   6.478   7.011  1.00  0.00     0.189 HD
HETATM   23  N8  UNL     1      11.135   4.803   9.585  1.00  0.00    -0.110 N 
BRANCH  21  24
HETATM   24  C7  UNL     1      11.876   3.681   7.412  1.00  0.00     0.079 C 
BRANCH  24  25
HETATM   25  C8  UNL     1      11.359   3.877   6.001  1.00  0.00     0.009 C 
BRANCH  25  26
HETATM   26  C9  UNL     1      11.662   2.630   5.197  1.00  0.00     0.027 C 
BRANCH  26  27
HETATM   27  C10 UNL     1      12.591   1.719   5.975  1.00  0.00     0.229 C 
BRANCH  27  28
HETATM   28  N7  UNL     1      12.424   0.339   5.565  1.00  0.00    -0.079 N 
ATOM     29  H73 UNL     1      11.501  -0.019   5.814  1.00  0.00     0.274 HD
ATOM     30  H72 UNL     1      12.353   0.252   4.552  1.00  0.00     0.274 HD
ATOM     31  H71 UNL     1      13.170  -0.246   5.943  1.00  0.00     0.274 HD
ENDBRANCH  27  28
ENDBRANCH  26  27
ENDBRANCH  25  26
ENDBRANCH  24  25
ENDBRANCH  21  24
BRANCH  23  32
HETATM   32  C11 UNL     1      11.030   3.597  10.382  1.00  0.00     0.481 C 
HETATM   33  F1  UNL     1       9.717   3.297  10.681  1.00  0.00    -0.190 F 
HETATM   34  F2  UNL     1      11.802   3.749  11.518  1.00  0.00    -0.190 F 
ENDBRANCH  23  32
ENDBRANCH  15  17
ENDBRANCH   6  15
BRANCH   4  35
HETATM   35  N3  UNL     1       8.614   6.570  13.014  1.00  0.00    -0.384 N 
ATOM     36  H32 UNL     1       7.624   6.353  13.129  1.00  0.00     0.157 HD
ATOM     37  H31 UNL     1       9.162   5.868  12.516  1.00  0.00     0.157 HD
ENDBRANCH   4  35
BRANCH   1  38
HETATM   38  N1  UNL     1       8.590   9.950  16.058  1.00  0.00    -0.234 N 
ATOM     39  H12 UNL     1       7.744   9.544  16.459  1.00  0.00     0.174 HD
ATOM     40  H11 UNL     1       8.986  10.800  16.456  1.00  0.00     0.174 HD
ENDBRANCH   1  38
TORSDOF 10
ENDMDL
MODEL 5
REMARK VINA RESULT: -7.732627275      1.820      7.820
REMARK  10 active torsions:
REMARK  status: ('A' for Active; 'I' for Inactive)
REMARK    1  A    between atoms: N1_1  and  C1_4 
REMARK    2  A    between atoms: C2_7  and  N3_8 
REMARK    3  A    between atoms: C4_12  and  N4_13 
REMARK    4  A    between atoms: N4_13  and  C5_15 
REMARK    5  A    between atoms: C6_20  and  C7_21 
REMARK    6  A    between atoms: C7_21  and  C8_22 
REMARK    7  A    between atoms: C8_22  and  C9_23 
REMARK    8  A    between atoms: C9_23  and  C10_24 
REMARK    9  A    between atoms: C10_24  and  N7_25 
REMARK   10  A    between atoms: N8_29  and  C11_30 
ROOT
HETATM    1  C1  UNL     1      10.755   9.389  17.104  1.00  0.00     0.679 A 
HETATM    2  N2  UNL     1       9.824   8.980  16.249  1.00  0.00    -0.176 N 
ATOM      3  H2  UNL     1       8.891   8.790  16.614  1.00  0.00     0.186 HD
HETATM    4  C2  UNL     1      10.039   8.796  14.899  1.00  0.00     0.132 A 
HETATM    5  C3  UNL     1      11.335   9.071  14.452  1.00  0.00     0.097 A 
HETATM    6  C4  UNL     1      11.638   8.914  13.121  1.00  0.00     0.139 A 
HETATM    7  N9  UNL     1      12.919   9.194  12.729  1.00  0.00    -0.337 N 
ATOM      8  H9  UNL     1      13.181   9.089  11.749  1.00  0.00     0.168 HD
HETATM    9  C12 UNL     1      13.832   9.604  13.619  1.00  0.00     0.183 A 
HETATM   10  N10 UNL     1      13.541   9.759  14.919  1.00  0.00    -0.337 N 
ATOM     11  H10 UNL     1      14.260  10.074  15.571  1.00  0.00     0.168 HD
HETATM   12  C13 UNL     1      12.296   9.497  15.360  1.00  0.00     0.139 A 
HETATM   13  N11 UNL     1      11.996   9.651  16.670  1.00  0.00    -0.176 N 
ATOM     14  H11 UNL     1      12.712   9.966  17.325  1.00  0.00     0.186 HD
ENDROOT
BRANCH   6  15
HETATM   15  N4  UNL     1      10.771   8.524  12.279  1.00  0.00    -0.174 N 
ATOM     16  H4  UNL     1       9.845   8.953  12.280  1.00  0.00     0.186 HD
BRANCH  15  17
HETATM   17  C5  UNL     1      11.064   7.504  11.334  1.00  0.00     0.706 A 
HETATM   18  N5  UNL     1      11.682   7.715  10.158  1.00  0.00    -0.130 N 
HETATM   19  N6  UNL     1      11.781   6.554   9.553  1.00  0.00    -0.274 N 
ATOM     20  H5  UNL     1      12.012   8.612   9.803  1.00  0.00     0.205 HD
HETATM   21  C6  UNL     1      11.240   5.573  10.304  1.00  0.00     0.120 A 
ATOM     22  H6  UNL     1      12.209   6.413   8.639  1.00  0.00     0.189 HD
HETATM   23  N8  UNL     1      10.796   6.194  11.415  1.00  0.00    -0.110 N 
BRANCH  21  24
HETATM   24  C7  UNL     1      11.165   4.132   9.952  1.00  0.00     0.079 C 
BRANCH  24  25
HETATM   25  C8  UNL     1      10.517   3.927   8.597  1.00  0.00     0.009 C 
BRANCH  25  26
HETATM   26  C9  UNL     1      11.599   3.613   7.586  1.00  0.00     0.027 C 
BRANCH  26  27
HETATM   27  C10 UNL     1      11.549   4.606   6.441  1.00  0.00     0.229 C 
BRANCH  27  28
HETATM   28  N7  UNL     1      11.036   3.982   5.238  1.00  0.00    -0.079 N 
ATOM     29  H73 UNL     1      11.525   3.113   5.026  1.00  0.00     0.274 HD
ATOM     30  H72 UNL     1      10.101   3.601   5.380  1.00  0.00     0.274 HD
ATOM     31  H71 UNL     1      11.063   4.632   4.452  1.00  0.00     0.274 HD
ENDBRANCH  27  28
ENDBRANCH  26  27
ENDBRANCH  25  26
ENDBRANCH  24  25
ENDBRANCH  21  24
BRANCH  23  32
HETATM   32  C11 UNL     1      10.135   5.518  12.514  1.00  0.00     0.481 C 
HETATM   33  F1  UNL     1       8.813   5.896  12.623  1.00  0.00    -0.190 F 
HETATM   34  F2  UNL     1      10.845   5.761  13.674  1.00  0.00    -0.190 F 
ENDBRANCH  23  32
ENDBRANCH  15  17
ENDBRANCH   6  15
BRANCH   4  35
HETATM   35  N3  UNL     1       9.099   8.410  14.187  1.00  0.00    -0.384 N 
ATOM     36  H32 UNL     1       9.150   7.665  13.492  1.00  0.00     0.157 HD
ATOM     37  H31 UNL     1       8.187   8.858  14.285  1.00  0.00     0.157 HD
ENDBRANCH   4  35
BRANCH   1  38
HETATM   38  N1  UNL     1      10.465   9.539  18.376  1.00  0.00    -0.234 N 
ATOM     39  H12 UNL     1      11.169   9.911  19.015  1.00  0.00     0.174 HD
ATOM     40  H11 UNL     1       9.541   9.287  18.725  1.00  0.00     0.174 HD
ENDBRANCH   1  38
TORSDOF 10
ENDMDL
