MODEL 1
REMARK VINA RESULT: -8.311215737      0.000      0.000
REMARK  10 active torsions:
REMARK  status: ('A' for Active; 'I' for Inactive)
REMARK    1  A    between atoms: N1_1  and  C1_4 
REMARK    2  A    between atoms: C3_8  and  N3_9 
REMARK    3  A    between atoms: N3_9  and  N4_10 
REMARK       I    between atoms: N3_9  and  C4_14 
REMARK    4  A    between atoms: N4_10  and  O1_12 
REMARK       I    between atoms: C4_14  and  N5_16 
REMARK    5  A    between atoms: N5_16  and  C5_18 
REMARK    6  A    between atoms: C5_18  and  C6_19 
REMARK    7  A    between atoms: C10_23  and  C11_24 
REMARK    8  A    between atoms: C11_24  and  N6_25 
REMARK    9  A    between atoms: C11_24  and  C12_29 
REMARK   10  A    between atoms: C13_33  and  N8_34 
ROOT
HETATM    1  N3  UNL     1      10.251   8.890  13.717  1.00  0.00    -0.181 N 
HETATM    2  C4  UNL     1       9.833   7.562  13.437  1.00  0.00     0.343 C 
HETATM    3  O2  UNL     1       8.624   7.320  13.187  1.00  0.00    -0.245 OA
HETATM    4  N5  UNL     1      10.749   6.481  13.433  1.00  0.00    -0.336 N 
ATOM      5  H5  UNL     1      11.737   6.644  13.629  1.00  0.00     0.164 HD
ENDROOT
BRANCH   1   6
HETATM    6  C3  UNL     1      11.592   9.234  14.017  1.00  0.00     0.123 A 
HETATM    7  C2  UNL     1      12.529   9.470  13.012  1.00  0.00     0.141 A 
HETATM    8  N2  UNL     1      13.791   9.783  13.350  1.00  0.00    -0.200 N 
HETATM    9  C1  UNL     1      14.173   9.873  14.634  1.00  0.00     0.677 A 
ATOM     10  H2  UNL     1      14.476   9.955  12.614  1.00  0.00     0.183 HD
HETATM   11  N9  UNL     1      13.303   9.653  15.636  1.00  0.00    -0.175 N 
HETATM   12  C13 UNL     1      12.015   9.335  15.318  1.00  0.00     0.145 A 
ATOM     13  H9  UNL     1      13.599   9.722  16.610  1.00  0.00     0.186 HD
BRANCH   9  14
HETATM   14  N1  UNL     1      15.394  10.175  14.893  1.00  0.00    -0.234 N 
ATOM     15  H12 UNL     1      16.038  10.401  14.136  1.00  0.00     0.174 HD
ATOM     16  H11 UNL     1      15.699  10.184  15.866  1.00  0.00     0.174 HD
ENDBRANCH   9  14
BRANCH  12  17
HETATM   17  N8  UNL     1      11.215   9.139  16.310  1.00  0.00    -0.383 N 
ATOM     18  H82 UNL     1      10.638   8.298  16.265  1.00  0.00     0.157 HD
ATOM     19  H81 UNL     1      11.165   9.786  17.097  1.00  0.00     0.157 HD
ENDBRANCH  12  17
ENDBRANCH   1   6
BRANCH   1  20
HETATM   20  N4  UNL     1       9.297   9.903  13.701  1.00  0.00    -0.199 N 
ATOM     21  H4  UNL     1       9.208  10.518  12.892  1.00  0.00     0.216 HD
BRANCH  20  22
HETATM   22  O1  UNL     1       8.554  10.048  14.687  1.00  0.00    -0.274 OA
ATOM     23  H1  UNL     1       7.921   9.370  14.891  1.00  0.00     0.246 HD
ENDBRANCH  20  22
ENDBRANCH   1  20
BRANCH   4  24
HETATM   24  C5  UNL     1      10.280   5.157  13.150  1.00  0.00     0.181 C 
BRANCH  24  25
HETATM   25  C6  UNL     1      10.504   4.752  11.739  1.00  0.00     0.027 A 
HETATM   26  C7  UNL     1      10.437   3.457  11.290  1.00  0.00     0.027 A 
HETATM   27  C8  UNL     1      10.665   3.134   9.970  1.00  0.00     0.004 A 
HETATM   28  C9  UNL     1      10.970   4.176   9.091  1.00  0.00     0.027 A 
HETATM   29  C10 UNL     1      11.038   5.483   9.545  1.00  0.00     0.042 A 
HETATM   30  N7  UNL     1      10.802   5.704  10.834  1.00  0.00    -0.360 N 
ATOM     31  H7  UNL     1      10.851   6.668  11.164  1.00  0.00     0.165 HD
BRANCH  29  32
HETATM   32  C11 UNL     1      11.377   6.614   8.609  1.00  0.00     0.261 C 
BRANCH  32  33
HETATM   33  N6  UNL     1      11.891   7.736   9.337  1.00  0.00    -0.067 N 
ATOM     34  H63 UNL     1      11.143   8.332   9.693  1.00  0.00     0.275 HD
ATOM     35  H62 UNL     1      12.298   7.454  10.229  1.00  0.00     0.275 HD
ATOM     36  H61 UNL     1      12.555   8.261   8.768  1.00  0.00     0.275 HD
ENDBRANCH  32  33
BRANCH  32  37
HETATM   37  C12 UNL     1      12.327   6.091   7.565  1.00  0.00     0.261 C 
HETATM   38  F1  UNL     1      12.392   6.968   6.501  1.00  0.00    -0.253 F 
ENDBRANCH  32  37
ENDBRANCH  29  32
ENDBRANCH  24  25
ENDBRANCH   4  24
TORSDOF 10
ENDMDL
MODEL 2
REMARK VINA RESULT: -8.022550377      2.119      2.881
REMARK  10 active torsions:
REMARK  status: ('A' for Active; 'I' for Inactive)
REMARK    1  A    between atoms: N1_1  and  C1_4 
REMARK    2  A    between atoms: C3_8  and  N3_9 
REMARK    3  A    between atoms: N3_9  and  N4_10 
REMARK       I    between atoms: N3_9  and  C4_14 
REMARK    4  A    between atoms: N4_10  and  O1_12 
REMARK       I    between atoms: C4_14  and  N5_16 
REMARK    5  A    between atoms: N5_16  and  C5_18 
REMARK    6  A    between atoms: C5_18  and  C6_19 
REMARK    7  A    between atoms: C10_23  and  C11_24 
REMARK    8  A    between atoms: C11_24  and  N6_25 
REMARK    9  A    between atoms: C11_24  and  C12_29 
REMARK   10  A    between atoms: C13_33  and  N8_34 
ROOT
HETATM    1  N3  UNL     1       9.577   7.436  13.541  1.00  0.00    -0.181 N 
HETATM    2  C4  UNL     1       9.602   6.371  12.601  1.00  0.00     0.343 C 
HETATM    3  O2  UNL     1       8.526   5.882  12.171  1.00  0.00    -0.245 OA
HETATM    4  N5  UNL     1      10.823   5.832  12.124  1.00  0.00    -0.336 N 
ATOM      5  H5  UNL     1      11.713   6.208  12.450  1.00  0.00     0.164 HD
ENDROOT
BRANCH   1   6
HETATM    6  C3  UNL     1      10.748   8.028  14.074  1.00  0.00     0.123 A 
HETATM    7  C2  UNL     1      11.445   7.446  15.133  1.00  0.00     0.141 A 
HETATM    8  N2  UNL     1      12.544   8.054  15.608  1.00  0.00    -0.200 N 
HETATM    9  C1  UNL     1      12.990   9.209  15.090  1.00  0.00     0.677 A 
ATOM     10  H2  UNL     1      13.052   7.627  16.383  1.00  0.00     0.183 HD
HETATM   11  N9  UNL     1      12.348   9.806  14.069  1.00  0.00    -0.175 N 
HETATM   12  C13 UNL     1      11.230   9.208  13.567  1.00  0.00     0.145 A 
ATOM     13  H9  UNL     1      12.690  10.685  13.679  1.00  0.00     0.186 HD
BRANCH   9  14
HETATM   14  N1  UNL     1      14.046   9.741  15.589  1.00  0.00    -0.234 N 
ATOM     15  H12 UNL     1      14.954   9.294  15.464  1.00  0.00     0.174 HD
ATOM     16  H11 UNL     1      13.954  10.615  16.108  1.00  0.00     0.174 HD
ENDBRANCH   9  14
BRANCH  12  17
HETATM   17  N8  UNL     1      10.652   9.813  12.585  1.00  0.00    -0.383 N 
ATOM     18  H82 UNL     1       9.848   9.338  12.174  1.00  0.00     0.157 HD
ATOM     19  H81 UNL     1      10.979  10.716  12.243  1.00  0.00     0.157 HD
ENDBRANCH  12  17
ENDBRANCH   1   6
BRANCH   1  20
HETATM   20  N4  UNL     1       8.341   7.918  13.963  1.00  0.00    -0.199 N 
ATOM     21  H4  UNL     1       8.140   8.918  13.939  1.00  0.00     0.216 HD
BRANCH  20  22
HETATM   22  O1  UNL     1       7.486   7.113  14.369  1.00  0.00    -0.274 OA
ATOM     23  H1  UNL     1       6.888   7.383  15.056  1.00  0.00     0.246 HD
ENDBRANCH  20  22
ENDBRANCH   1  20
BRANCH   4  24
HETATM   24  C5  UNL     1      10.799   4.754  11.180  1.00  0.00     0.181 C 
BRANCH  24  25
HETATM   25  C6  UNL     1      11.164   5.181   9.806  1.00  0.00     0.027 A 
HETATM   26  C7  UNL     1      11.454   6.475   9.452  1.00  0.00     0.027 A 
HETATM   27  C8  UNL     1      11.776   6.820   8.158  1.00  0.00     0.004 A 
HETATM   28  C9  UNL     1      11.797   5.801   7.203  1.00  0.00     0.027 A 
HETATM   29  C10 UNL     1      11.504   4.494   7.559  1.00  0.00     0.042 A 
HETATM   30  N7  UNL     1      11.205   4.252   8.831  1.00  0.00    -0.360 N 
ATOM     31  H7  UNL     1      10.992   3.288   9.090  1.00  0.00     0.165 HD
BRANCH  29  32
HETATM   32  C11 UNL     1      11.512   3.389   6.535  1.00  0.00     0.261 C 
BRANCH  32  33
HETATM   33  N6  UNL     1      11.042   3.867   5.269  1.00  0.00    -0.067 N 
ATOM     34  H63 UNL     1      10.066   3.616   5.109  1.00  0.00     0.275 HD
ATOM     35  H62 UNL     1      10.942   4.883   5.262  1.00  0.00     0.275 HD
ATOM     36  H61 UNL     1      11.646   3.542   4.514  1.00  0.00     0.275 HD
ENDBRANCH  32  33
BRANCH  32  37
HETATM   37  C12 UNL     1      12.902   2.812   6.479  1.00  0.00     0.261 C 
HETATM   38  F1  UNL     1      13.520   3.180   5.301  1.00  0.00    -0.253 F 
ENDBRANCH  32  37
ENDBRANCH  29  32
ENDBRANCH  24  25
ENDBRANCH   4  24
TORSDOF 10
ENDMDL
MODEL 3
REMARK VINA RESULT: -7.894483857      1.279      1.381
REMARK  10 active torsions:
REMARK  status: ('A' for Active; 'I' for Inactive)
REMARK    1  A    between atoms: N1_1  and  C1_4 
REMARK    2  A    between atoms: C3_8  and  N3_9 
REMARK    3  A    between atoms: N3_9  and  N4_10 
REMARK       I    between atoms: N3_9  and  C4_14 
REMARK    4  A    between atoms: N4_10  and  O1_12 
REMARK       I    between atoms: C4_14  and  N5_16 
REMARK    5  A    between atoms: N5_16  and  C5_18 
REMARK    6  A    between atoms: C5_18  and  C6_19 
REMARK    7  A    between atoms: C10_23  and  C11_24 
REMARK    8  A    between atoms: C11_24  and  N6_25 
REMARK    9  A    between atoms: C11_24  and  C12_29 
REMARK   10  A    between atoms: C13_33  and  N8_34 
ROOT
HETATM    1  N3  UNL     1       9.868   9.237  15.189  1.00  0.00    -0.181 N 
HETATM    2  C4  UNL     1       9.167   8.253  14.442  1.00  0.00     0.343 C 
HETATM    3  O2  UNL     1       7.934   8.085  14.619  1.00  0.00    -0.245 OA
HETATM    4  N5  UNL     1       9.826   7.441  13.485  1.00  0.00    -0.336 N 
ATOM      5  H5  UNL     1      10.825   7.555  13.314  1.00  0.00     0.164 HD
ENDROOT
BRANCH   1   6
HETATM    6  C3  UNL     1      11.257   9.475  15.049  1.00  0.00     0.123 A 
HETATM    7  C2  UNL     1      11.802   9.939  13.852  1.00  0.00     0.141 A 
HETATM    8  N2  UNL     1      13.128  10.138  13.768  1.00  0.00    -0.200 N 
HETATM    9  C1  UNL     1      13.942   9.902  14.808  1.00  0.00     0.677 A 
ATOM     10  H2  UNL     1      13.525  10.476  12.891  1.00  0.00     0.183 HD
HETATM   11  N9  UNL     1      13.460   9.453  15.982  1.00  0.00    -0.175 N 
HETATM   12  C13 UNL     1      12.116   9.244  16.093  1.00  0.00     0.145 A 
ATOM     13  H9  UNL     1      14.083   9.274  16.769  1.00  0.00     0.186 HD
BRANCH   9  14
HETATM   14  N1  UNL     1      15.201  10.110  14.665  1.00  0.00    -0.234 N 
ATOM     15  H12 UNL     1      15.869   9.363  14.848  1.00  0.00     0.174 HD
ATOM     16  H11 UNL     1      15.512  11.034  14.362  1.00  0.00     0.174 HD
ENDBRANCH   9  14
BRANCH  12  17
HETATM   17  N8  UNL     1      11.698   8.820  17.237  1.00  0.00    -0.383 N 
ATOM     18  H82 UNL     1      10.701   8.932  17.422  1.00  0.00     0.157 HD
ATOM     19  H81 UNL     1      12.329   8.394  17.916  1.00  0.00     0.157 HD
ENDBRANCH  12  17
ENDBRANCH   1   6
BRANCH   1  20
HETATM   20  N4  UNL     1       9.156  10.001  16.110  1.00  0.00    -0.199 N 
ATOM     21  H4  UNL     1       8.807  10.925  15.856  1.00  0.00     0.216 HD
BRANCH  20  22
HETATM   22  O1  UNL     1       8.952   9.541  17.246  1.00  0.00    -0.274 OA
ATOM     23  H1  UNL     1       9.107   8.618  17.404  1.00  0.00     0.246 HD
ENDBRANCH  20  22
ENDBRANCH   1  20
BRANCH   4  24
HETATM   24  C5  UNL     1       9.079   6.458  12.758  1.00  0.00     0.181 C 
BRANCH  24  25
HETATM   25  C6  UNL     1       9.936   5.588  11.913  1.00  0.00     0.027 A 
HETATM   26  C7  UNL     1      10.396   4.353  12.297  1.00  0.00     0.027 A 
HETATM   27  C8  UNL     1      11.199   3.590  11.478  1.00  0.00     0.004 A 
HETATM   28  C9  UNL     1      11.536   4.117  10.229  1.00  0.00     0.027 A 
HETATM   29  C10 UNL     1      11.072   5.363   9.841  1.00  0.00     0.042 A 
HETATM   30  N7  UNL     1      10.301   6.030  10.694  1.00  0.00    -0.360 N 
ATOM     31  H7  UNL     1       9.960   6.946  10.404  1.00  0.00     0.165 HD
BRANCH  29  32
HETATM   32  C11 UNL     1      11.438   5.946   8.501  1.00  0.00     0.261 C 
BRANCH  32  33
HETATM   33  N6  UNL     1      11.365   7.377   8.535  1.00  0.00    -0.067 N 
ATOM     34  H63 UNL     1      12.183   7.787   8.986  1.00  0.00     0.275 HD
ATOM     35  H62 UNL     1      11.483   7.784   7.606  1.00  0.00     0.275 HD
ATOM     36  H61 UNL     1      10.497   7.683   8.974  1.00  0.00     0.275 HD
ENDBRANCH  32  33
BRANCH  32  37
HETATM   37  C12 UNL     1      12.798   5.425   8.117  1.00  0.00     0.261 C 
HETATM   38  F1  UNL     1      12.681   4.504   7.096  1.00  0.00    -0.253 F 
ENDBRANCH  32  37
ENDBRANCH  29  32
ENDBRANCH  24  25
ENDBRANCH   4  24
TORSDOF 10
ENDMDL
MODEL 4
REMARK VINA RESULT: -7.879575581      0.669      1.405
REMARK  10 active torsions:
REMARK  status: ('A' for Active; 'I' for Inactive)
REMARK    1  A    between atoms: N1_1  and  C1_4 
REMARK    2  A    between atoms: C3_8  and  N3_9 
REMARK    3  A    between atoms: N3_9  and  N4_10 
REMARK       I    between atoms: N3_9  and  C4_14 
REMARK    4  A    between atoms: N4_10  and  O1_12 
REMARK       I    between atoms: C4_14  and  N5_16 
REMARK    5  A    between atoms: N5_16  and  C5_18 
REMARK    6  A    between atoms: C5_18  and  C6_19 
REMARK    7  A    between atoms: C10_23  and  C11_24 
REMARK    8  A    between atoms: C11_24  and  N6_25 
REMARK    9  A    between atoms: C11_24  and  C12_29 
REMARK   10  A    between atoms: C13_33  and  N8_34 
ROOT
HETATM    1  N3  UNL     1      10.254   8.582  13.614  1.00  0.00    -0.181 N 
HETATM    2  C4  UNL     1       9.866   7.255  13.286  1.00  0.00     0.343 C 
HETATM    3  O2  UNL     1       8.686   7.013  12.927  1.00  0.00    -0.245 OA
HETATM    4  N5  UNL     1      10.784   6.176  13.352  1.00  0.00    -0.336 N 
ATOM      5  H5  UNL     1      11.749   6.340  13.636  1.00  0.00     0.164 HD
ENDROOT
BRANCH   1   6
HETATM    6  C3  UNL     1      11.562   8.926  14.035  1.00  0.00     0.123 A 
HETATM    7  C2  UNL     1      11.932   8.885  15.379  1.00  0.00     0.141 A 
HETATM    8  N2  UNL     1      13.182   9.231  15.726  1.00  0.00    -0.200 N 
HETATM    9  C1  UNL     1      14.086   9.616  14.811  1.00  0.00     0.677 A 
ATOM     10  H2  UNL     1      13.452   9.201  16.710  1.00  0.00     0.183 HD
HETATM   11  N9  UNL     1      13.772   9.671  13.504  1.00  0.00    -0.175 N 
HETATM   12  C13 UNL     1      12.509   9.323  13.126  1.00  0.00     0.145 A 
ATOM     13  H9  UNL     1      14.462   9.966  12.813  1.00  0.00     0.186 HD
BRANCH   9  14
HETATM   14  N1  UNL     1      15.265   9.936  15.207  1.00  0.00    -0.234 N 
ATOM     15  H12 UNL     1      15.475  10.899  15.467  1.00  0.00     0.174 HD
ATOM     16  H11 UNL     1      15.978   9.209  15.256  1.00  0.00     0.174 HD
ENDBRANCH   9  14
BRANCH  12  17
HETATM   17  N8  UNL     1      12.255   9.385  11.863  1.00  0.00    -0.383 N 
ATOM     18  H82 UNL     1      11.336   9.745  11.604  1.00  0.00     0.157 HD
ATOM     19  H81 UNL     1      12.936   9.092  11.162  1.00  0.00     0.157 HD
ENDBRANCH  12  17
ENDBRANCH   1   6
BRANCH   1  20
HETATM   20  N4  UNL     1       9.301   9.592  13.524  1.00  0.00    -0.199 N 
ATOM     21  H4  UNL     1       8.370   9.462  13.918  1.00  0.00     0.216 HD
BRANCH  20  22
HETATM   22  O1  UNL     1       9.602  10.656  12.956  1.00  0.00    -0.274 OA
ATOM     23  H1  UNL     1       9.778  10.647  12.023  1.00  0.00     0.246 HD
ENDBRANCH  20  22
ENDBRANCH   1  20
BRANCH   4  24
HETATM   24  C5  UNL     1      10.346   4.854  13.016  1.00  0.00     0.181 C 
BRANCH  24  25
HETATM   25  C6  UNL     1      10.550   4.523  11.583  1.00  0.00     0.027 A 
HETATM   26  C7  UNL     1      10.491   3.251  11.070  1.00  0.00     0.027 A 
HETATM   27  C8  UNL     1      10.700   2.997   9.732  1.00  0.00     0.004 A 
HETATM   28  C9  UNL     1      10.978   4.085   8.902  1.00  0.00     0.027 A 
HETATM   29  C10 UNL     1      11.037   5.370   9.419  1.00  0.00     0.042 A 
HETATM   30  N7  UNL     1      10.822   5.523  10.722  1.00  0.00    -0.360 N 
ATOM     31  H7  UNL     1      10.864   6.470  11.099  1.00  0.00     0.165 HD
BRANCH  29  32
HETATM   32  C11 UNL     1      11.347   6.550   8.536  1.00  0.00     0.261 C 
BRANCH  32  33
HETATM   33  N6  UNL     1      11.820   7.655   9.316  1.00  0.00    -0.067 N 
ATOM     34  H63 UNL     1      11.396   8.536   9.021  1.00  0.00     0.275 HD
ATOM     35  H62 UNL     1      11.460   7.626  10.271  1.00  0.00     0.275 HD
ATOM     36  H61 UNL     1      12.839   7.700   9.297  1.00  0.00     0.275 HD
ENDBRANCH  32  33
BRANCH  32  37
HETATM   37  C12 UNL     1      12.321   6.103   7.479  1.00  0.00     0.261 C 
HETATM   38  F1  UNL     1      12.381   7.037   6.464  1.00  0.00    -0.253 F 
ENDBRANCH  32  37
ENDBRANCH  29  32
ENDBRANCH  24  25
ENDBRANCH   4  24
TORSDOF 10
ENDMDL
MODEL 5
REMARK VINA RESULT: -7.641958094      2.164      2.739
REMARK  10 active torsions:
REMARK  status: ('A' for Active; 'I' for Inactive)
REMARK    1  A    between atoms: N1_1  and  C1_4 
REMARK    2  A    between atoms: C3_8  and  N3_9 
REMARK    3  A    between atoms: N3_9  and  N4_10 
REMARK       I    between atoms: N3_9  and  C4_14 
REMARK    4  A    between atoms: N4_10  and  O1_12 
REMARK       I    between atoms: C4_14  and  N5_16 
REMARK    5  A    between atoms: N5_16  and  C5_18 
REMARK    6  A    between atoms: C5_18  and  C6_19 
REMARK    7  A    between atoms: C10_23  and  C11_24 
REMARK    8  A    between atoms: C11_24  and  N6_25 
REMARK    9  A    between atoms: C11_24  and  C12_29 
REMARK   10  A    between atoms: C13_33  and  N8_34 
ROOT
HETATM    1  N3  UNL     1       9.715   7.788  13.132  1.00  0.00    -0.181 N 
HETATM    2  C4  UNL     1       9.718   6.610  12.337  1.00  0.00     0.343 C 
HETATM    3  O2  UNL     1       8.644   5.996  12.114  1.00  0.00    -0.245 OA
HETATM    4  N5  UNL     1      10.915   6.096  11.778  1.00  0.00    -0.336 N 
ATOM      5  H5  UNL     1      11.802   6.572  11.937  1.00  0.00     0.164 HD
ENDROOT
BRANCH   1   6
HETATM    6  C3  UNL     1      10.887   8.524  13.432  1.00  0.00     0.123 A 
HETATM    7  C2  UNL     1      11.835   8.822  12.453  1.00  0.00     0.141 A 
HETATM    8  N2  UNL     1      12.934   9.514  12.792  1.00  0.00    -0.200 N 
HETATM    9  C1  UNL     1      13.145   9.927  14.052  1.00  0.00     0.677 A 
ATOM     10  H2  UNL     1      13.627   9.731  12.075  1.00  0.00     0.183 HD
HETATM   11  N9  UNL     1      12.258   9.662  15.029  1.00  0.00    -0.175 N 
HETATM   12  C13 UNL     1      11.133   8.961  14.709  1.00  0.00     0.145 A 
ATOM     13  H9  UNL     1      12.424   9.977  15.985  1.00  0.00     0.186 HD
BRANCH   9  14
HETATM   14  N1  UNL     1      14.217  10.584  14.313  1.00  0.00    -0.234 N 
ATOM     15  H12 UNL     1      14.323  11.544  13.987  1.00  0.00     0.174 HD
ATOM     16  H11 UNL     1      14.952  10.126  14.853  1.00  0.00     0.174 HD
ENDBRANCH   9  14
BRANCH  12  17
HETATM   17  N8  UNL     1      10.308   8.735  15.675  1.00  0.00    -0.383 N 
ATOM     18  H82 UNL     1       9.835   7.832  15.662  1.00  0.00     0.157 HD
ATOM     19  H81 UNL     1      10.142   9.421  16.411  1.00  0.00     0.157 HD
ENDBRANCH  12  17
ENDBRANCH   1   6
BRANCH   1  20
HETATM   20  N4  UNL     1       8.502   8.238  13.646  1.00  0.00    -0.199 N 
ATOM     21  H4  UNL     1       8.199   9.199  13.491  1.00  0.00     0.216 HD
BRANCH  20  22
HETATM   22  O1  UNL     1       7.794   7.451  14.297  1.00  0.00    -0.274 OA
ATOM     23  H1  UNL     1       6.886   7.676  14.462  1.00  0.00     0.246 HD
ENDBRANCH  20  22
ENDBRANCH   1  20
BRANCH   4  24
HETATM   24  C5  UNL     1      10.869   4.902  10.987  1.00  0.00     0.181 C 
BRANCH  24  25
HETATM   25  C6  UNL     1      11.285   5.124   9.580  1.00  0.00     0.027 A 
HETATM   26  C7  UNL     1      11.445   6.363   9.010  1.00  0.00     0.027 A 
HETATM   27  C8  UNL     1      11.822   6.514   7.693  1.00  0.00     0.004 A 
HETATM   28  C9  UNL     1      12.039   5.355   6.945  1.00  0.00     0.027 A 
HETATM   29  C10 UNL     1      11.878   4.104   7.519  1.00  0.00     0.042 A 
HETATM   30  N7  UNL     1      11.513   4.052   8.796  1.00  0.00    -0.360 N 
ATOM     31  H7  UNL     1      11.397   3.130   9.216  1.00  0.00     0.165 HD
BRANCH  29  32
HETATM   32  C11 UNL     1      12.098   2.847   6.719  1.00  0.00     0.261 C 
BRANCH  32  33
HETATM   33  N6  UNL     1      11.382   2.904   5.479  1.00  0.00    -0.067 N 
ATOM     34  H63 UNL     1      10.421   3.220   5.612  1.00  0.00     0.275 HD
ATOM     35  H62 UNL     1      11.713   3.666   4.886  1.00  0.00     0.275 HD
ATOM     36  H61 UNL     1      11.423   2.006   4.998  1.00  0.00     0.275 HD
ENDBRANCH  32  33
BRANCH  32  37
HETATM   37  C12 UNL     1      13.581   2.655   6.546  1.00  0.00     0.261 C 
HETATM   38  F1  UNL     1      13.948   2.945   5.247  1.00  0.00    -0.253 F 
ENDBRANCH  32  37
ENDBRANCH  29  32
ENDBRANCH  24  25
ENDBRANCH   4  24
TORSDOF 10
ENDMDL
