MODEL 1
REMARK VINA RESULT: -9.241161081      0.000      0.000
REMARK  8 active torsions:
REMARK  status: ('A' for Active; 'I' for Inactive)
REMARK       I    between atoms: C1_2  and  N2_4 
REMARK    1  A    between atoms: N2_4  and  N3_6 
REMARK    2  A    between atoms: N3_6  and  C2_7 
REMARK    3  A    between atoms: C2_7  and  C3_8 
REMARK    4  A    between atoms: C5_10  and  N4_11 
REMARK    5  A    between atoms: C5_10  and  N5_15 
REMARK    6  A    between atoms: C7_20  and  N6_21 
REMARK    7  A    between atoms: N6_21  and  C8_23 
REMARK    8  A    between atoms: C13_29  and  N7_30 
ROOT
HETATM    1  C3  UNL     1      11.203   7.620  14.612  1.00  0.00     0.144 C 
HETATM    2  C4  UNL     1       9.767   8.029  14.771  1.00  0.00     0.102 C 
HETATM    3  C5  UNL     1       8.919   7.730  13.567  1.00  0.00     0.288 C 
HETATM    4  C6  UNL     1       9.287   6.418  12.974  1.00  0.00     0.122 C 
HETATM    5  C7  UNL     1      10.770   6.445  12.632  1.00  0.00     0.225 C 
HETATM    6  O4  UNL     1      11.443   6.540  13.825  1.00  0.00    -0.360 OA
ENDROOT
BRANCH   5   7
HETATM    7  N6  UNL     1      11.084   5.127  12.078  1.00  0.00    -0.362 N 
ATOM      8  H6  UNL     1      11.353   4.356  12.688  1.00  0.00     0.162 HD
BRANCH   7   9
HETATM    9  C8  UNL     1      11.006   4.945  10.667  1.00  0.00     0.063 A 
HETATM   10  C9  UNL     1      11.293   6.023   9.819  1.00  0.00     0.035 A 
HETATM   11  C10 UNL     1      11.248   5.874   8.456  1.00  0.00     0.044 A 
HETATM   12  C11 UNL     1      10.921   4.655   7.929  1.00  0.00     0.118 A 
HETATM   13  F1  UNL     1      10.878   4.506   6.565  1.00  0.00    -0.206 F 
HETATM   14  C12 UNL     1      10.639   3.597   8.755  1.00  0.00     0.080 A 
HETATM   15  C13 UNL     1      10.674   3.717  10.150  1.00  0.00     0.132 A 
BRANCH  15  16
HETATM   16  N7  UNL     1      10.372   2.565  10.909  1.00  0.00    -0.113 N 
HETATM   17  O2  UNL     1      11.166   1.928  11.619  1.00  0.00    -0.532 OA
HETATM   18  O3  UNL     1       9.025   2.157  10.857  1.00  0.00    -0.532 OA
ENDBRANCH  15  16
ENDBRANCH   7   9
ENDBRANCH   5   7
BRANCH   3  19
HETATM   19  N4  UNL     1       7.535   7.622  14.065  1.00  0.00    -0.045 N 
ATOM     20  H43 UNL     1       7.433   7.881  15.045  1.00  0.00     0.277 HD
ATOM     21  H42 UNL     1       6.908   8.331  13.684  1.00  0.00     0.277 HD
ATOM     22  H41 UNL     1       7.240   6.666  13.863  1.00  0.00     0.277 HD
ENDBRANCH   3  19
BRANCH   3  23
HETATM   23  N5  UNL     1       8.884   8.772  12.584  1.00  0.00    -0.045 N 
ATOM     24  H53 UNL     1       8.022   8.718  12.041  1.00  0.00     0.277 HD
ATOM     25  H52 UNL     1       8.753   9.678  13.033  1.00  0.00     0.277 HD
ATOM     26  H51 UNL     1       9.692   8.799  11.962  1.00  0.00     0.277 HD
ENDBRANCH   3  23
BRANCH   1  27
HETATM   27  C2  UNL     1      12.096   8.812  14.293  1.00  0.00     0.167 C 
BRANCH  27  28
HETATM   28  N3  UNL     1      13.005   9.065  15.389  1.00  0.00    -0.135 NA
BRANCH  28  29
HETATM   29  N2  UNL     1      13.096   7.978  16.256  1.00  0.00    -0.258 N 
HETATM   30  C1  UNL     1      12.420   7.968  17.500  1.00  0.00     0.344 C 
HETATM   31  N1  UNL     1      12.479   6.897  18.412  1.00  0.00    -0.039 NA
HETATM   32  O1  UNL     1      11.729   8.971  17.813  1.00  0.00    -0.250 OA
ATOM     33  H2  UNL     1      13.662   7.173  15.989  1.00  0.00     0.186 HD
ENDBRANCH  28  29
ENDBRANCH  27  28
ENDBRANCH   1  27
TORSDOF 8
ENDMDL
MODEL 2
REMARK VINA RESULT: -9.001222287      1.014      1.014
REMARK  8 active torsions:
REMARK  status: ('A' for Active; 'I' for Inactive)
REMARK       I    between atoms: C1_2  and  N2_4 
REMARK    1  A    between atoms: N2_4  and  N3_6 
REMARK    2  A    between atoms: N3_6  and  C2_7 
REMARK    3  A    between atoms: C2_7  and  C3_8 
REMARK    4  A    between atoms: C5_10  and  N4_11 
REMARK    5  A    between atoms: C5_10  and  N5_15 
REMARK    6  A    between atoms: C7_20  and  N6_21 
REMARK    7  A    between atoms: N6_21  and  C8_23 
REMARK    8  A    between atoms: C13_29  and  N7_30 
ROOT
HETATM    1  C3  UNL     1      11.222   7.464  14.864  1.00  0.00     0.144 C 
HETATM    2  C4  UNL     1       9.871   8.119  14.911  1.00  0.00     0.102 C 
HETATM    3  C5  UNL     1       9.104   8.010  13.623  1.00  0.00     0.288 C 
HETATM    4  C6  UNL     1       9.291   6.670  13.008  1.00  0.00     0.122 C 
HETATM    5  C7  UNL     1      10.782   6.441  12.802  1.00  0.00     0.225 C 
HETATM    6  O4  UNL     1      11.343   6.381  14.054  1.00  0.00    -0.360 OA
ENDROOT
BRANCH   5   7
HETATM    7  N6  UNL     1      10.912   5.104  12.220  1.00  0.00    -0.362 N 
ATOM      8  H6  UNL     1      10.994   4.282  12.818  1.00  0.00     0.162 HD
BRANCH   7   9
HETATM    9  C8  UNL     1      10.921   4.977  10.801  1.00  0.00     0.063 A 
HETATM   10  C9  UNL     1      11.225   6.094  10.013  1.00  0.00     0.035 A 
HETATM   11  C10 UNL     1      11.264   5.999   8.646  1.00  0.00     0.044 A 
HETATM   12  C11 UNL     1      11.003   4.794   8.055  1.00  0.00     0.118 A 
HETATM   13  F1  UNL     1      11.044   4.698   6.685  1.00  0.00    -0.206 F 
HETATM   14  C12 UNL     1      10.706   3.696   8.821  1.00  0.00     0.080 A 
HETATM   15  C13 UNL     1      10.656   3.761  10.220  1.00  0.00     0.132 A 
BRANCH  15  16
HETATM   16  N7  UNL     1      10.345   2.572  10.915  1.00  0.00    -0.113 N 
HETATM   17  O2  UNL     1      11.130   1.899  11.600  1.00  0.00    -0.532 OA
HETATM   18  O3  UNL     1       8.998   2.169  10.826  1.00  0.00    -0.532 OA
ENDBRANCH  15  16
ENDBRANCH   7   9
ENDBRANCH   5   7
BRANCH   3  19
HETATM   19  N4  UNL     1       7.681   8.137  13.990  1.00  0.00    -0.045 N 
ATOM     20  H43 UNL     1       7.256   7.259  14.287  1.00  0.00     0.277 HD
ATOM     21  H42 UNL     1       7.528   8.648  14.859  1.00  0.00     0.277 HD
ATOM     22  H41 UNL     1       7.222   8.559  13.183  1.00  0.00     0.277 HD
ENDBRANCH   3  19
BRANCH   3  23
HETATM   23  N5  UNL     1       9.347   9.068  12.688  1.00  0.00    -0.045 N 
ATOM     24  H53 UNL     1       8.781   9.884  12.922  1.00  0.00     0.277 HD
ATOM     25  H52 UNL     1      10.281   9.455  12.826  1.00  0.00     0.277 HD
ATOM     26  H51 UNL     1       9.212   8.812  11.710  1.00  0.00     0.277 HD
ENDBRANCH   3  23
BRANCH   1  27
HETATM   27  C2  UNL     1      12.337   8.486  14.678  1.00  0.00     0.167 C 
BRANCH  27  28
HETATM   28  N3  UNL     1      13.395   8.253  15.637  1.00  0.00    -0.135 NA
BRANCH  28  29
HETATM   29  N2  UNL     1      12.918   7.680  16.814  1.00  0.00    -0.258 N 
HETATM   30  C1  UNL     1      13.166   6.321  17.127  1.00  0.00     0.344 C 
HETATM   31  N1  UNL     1      12.707   5.694  18.302  1.00  0.00    -0.039 NA
HETATM   32  O1  UNL     1      13.831   5.632  16.313  1.00  0.00    -0.250 OA
ATOM     33  H2  UNL     1      12.379   8.252  17.464  1.00  0.00     0.186 HD
ENDBRANCH  28  29
ENDBRANCH  27  28
ENDBRANCH   1  27
TORSDOF 8
ENDMDL
MODEL 3
REMARK VINA RESULT: -8.462237803      1.832      1.930
REMARK  8 active torsions:
REMARK  status: ('A' for Active; 'I' for Inactive)
REMARK       I    between atoms: C1_2  and  N2_4 
REMARK    1  A    between atoms: N2_4  and  N3_6 
REMARK    2  A    between atoms: N3_6  and  C2_7 
REMARK    3  A    between atoms: C2_7  and  C3_8 
REMARK    4  A    between atoms: C5_10  and  N4_11 
REMARK    5  A    between atoms: C5_10  and  N5_15 
REMARK    6  A    between atoms: C7_20  and  N6_21 
REMARK    7  A    between atoms: N6_21  and  C8_23 
REMARK    8  A    between atoms: C13_29  and  N7_30 
ROOT
HETATM    1  C3  UNL     1      11.038   8.262  13.538  1.00  0.00     0.144 C 
HETATM    2  C4  UNL     1       9.668   8.185  14.148  1.00  0.00     0.102 C 
HETATM    3  C5  UNL     1       8.721   7.295  13.394  1.00  0.00     0.288 C 
HETATM    4  C6  UNL     1       9.417   6.076  12.905  1.00  0.00     0.122 C 
HETATM    5  C7  UNL     1      10.597   6.510  12.045  1.00  0.00     0.225 C 
HETATM    6  O4  UNL     1      11.473   7.154  12.883  1.00  0.00    -0.360 OA
ENDROOT
BRANCH   5   7
HETATM    7  N6  UNL     1      11.259   5.279  11.613  1.00  0.00    -0.362 N 
ATOM      8  H6  UNL     1      11.754   4.690  12.283  1.00  0.00     0.162 HD
BRANCH   7   9
HETATM    9  C8  UNL     1      11.198   4.920  10.235  1.00  0.00     0.063 A 
HETATM   10  C9  UNL     1      11.563   5.860   9.264  1.00  0.00     0.035 A 
HETATM   11  C10 UNL     1      11.537   5.539   7.930  1.00  0.00     0.044 A 
HETATM   12  C11 UNL     1      11.149   4.282   7.557  1.00  0.00     0.118 A 
HETATM   13  F1  UNL     1      11.124   3.959   6.222  1.00  0.00    -0.206 F 
HETATM   14  C12 UNL     1      10.790   3.357   8.503  1.00  0.00     0.080 A 
HETATM   15  C13 UNL     1      10.805   3.655   9.872  1.00  0.00     0.132 A 
BRANCH  15  16
HETATM   16  N7  UNL     1      10.421   2.630  10.765  1.00  0.00    -0.113 N 
HETATM   17  O2  UNL     1      11.163   2.048  11.571  1.00  0.00    -0.532 OA
HETATM   18  O3  UNL     1       9.054   2.294  10.729  1.00  0.00    -0.532 OA
ENDBRANCH  15  16
ENDBRANCH   7   9
ENDBRANCH   5   7
BRANCH   3  19
HETATM   19  N4  UNL     1       7.705   6.865  14.373  1.00  0.00    -0.045 N 
ATOM     20  H43 UNL     1       7.749   5.871  14.597  1.00  0.00     0.277 HD
ATOM     21  H42 UNL     1       7.876   7.212  15.317  1.00  0.00     0.277 HD
ATOM     22  H41 UNL     1       6.807   7.157  13.988  1.00  0.00     0.277 HD
ENDBRANCH   3  19
BRANCH   3  23
HETATM   23  N5  UNL     1       7.986   7.947  12.351  1.00  0.00    -0.045 N 
ATOM     24  H53 UNL     1       7.444   8.723  12.732  1.00  0.00     0.277 HD
ATOM     25  H52 UNL     1       8.621   8.458  11.737  1.00  0.00     0.277 HD
ATOM     26  H51 UNL     1       7.385   7.331  11.803  1.00  0.00     0.277 HD
ENDBRANCH   3  23
BRANCH   1  27
HETATM   27  C2  UNL     1      11.230   9.548  12.744  1.00  0.00     0.167 C 
BRANCH  27  28
HETATM   28  N3  UNL     1      12.639   9.807  12.544  1.00  0.00    -0.135 NA
BRANCH  28  29
HETATM   29  N2  UNL     1      13.420   9.277  13.568  1.00  0.00    -0.258 N 
HETATM   30  C1  UNL     1      14.153  10.114  14.446  1.00  0.00     0.344 C 
HETATM   31  N1  UNL     1      14.957   9.629  15.496  1.00  0.00    -0.039 NA
HETATM   32  O1  UNL     1      14.087  11.358  14.280  1.00  0.00    -0.250 OA
ATOM     33  H2  UNL     1      13.465   8.266  13.689  1.00  0.00     0.186 HD
ENDBRANCH  28  29
ENDBRANCH  27  28
ENDBRANCH   1  27
TORSDOF 8
ENDMDL
MODEL 4
REMARK VINA RESULT: -8.151034453      1.717      1.918
REMARK  8 active torsions:
REMARK  status: ('A' for Active; 'I' for Inactive)
REMARK       I    between atoms: C1_2  and  N2_4 
REMARK    1  A    between atoms: N2_4  and  N3_6 
REMARK    2  A    between atoms: N3_6  and  C2_7 
REMARK    3  A    between atoms: C2_7  and  C3_8 
REMARK    4  A    between atoms: C5_10  and  N4_11 
REMARK    5  A    between atoms: C5_10  and  N5_15 
REMARK    6  A    between atoms: C7_20  and  N6_21 
REMARK    7  A    between atoms: N6_21  and  C8_23 
REMARK    8  A    between atoms: C13_29  and  N7_30 
ROOT
HETATM    1  C3  UNL     1      11.521   8.107  15.042  1.00  0.00     0.144 C 
HETATM    2  C4  UNL     1      10.858   9.405  14.683  1.00  0.00     0.102 C 
HETATM    3  C5  UNL     1      10.588   9.557  13.212  1.00  0.00     0.288 C 
HETATM    4  C6  UNL     1      10.137   8.271  12.622  1.00  0.00     0.122 C 
HETATM    5  C7  UNL     1      11.200   7.216  12.899  1.00  0.00     0.225 C 
HETATM    6  O4  UNL     1      11.225   7.037  14.260  1.00  0.00    -0.360 OA
ENDROOT
BRANCH   5   7
HETATM    7  N6  UNL     1      10.697   5.969  12.322  1.00  0.00    -0.362 N 
ATOM      8  H6  UNL     1      10.147   5.319  12.884  1.00  0.00     0.162 HD
BRANCH   7   9
HETATM    9  C8  UNL     1      10.990   5.683  10.957  1.00  0.00     0.063 A 
HETATM   10  C9  UNL     1      11.336   6.731  10.095  1.00  0.00     0.035 A 
HETATM   11  C10 UNL     1      11.647   6.486   8.781  1.00  0.00     0.044 A 
HETATM   12  C11 UNL     1      11.616   5.199   8.319  1.00  0.00     0.118 A 
HETATM   13  F1  UNL     1      11.928   4.953   7.004  1.00  0.00    -0.206 F 
HETATM   14  C12 UNL     1      11.278   4.169   9.159  1.00  0.00     0.080 A 
HETATM   15  C13 UNL     1      10.954   4.387  10.504  1.00  0.00     0.132 A 
BRANCH  15  16
HETATM   16  N7  UNL     1      10.625   3.257  11.285  1.00  0.00    -0.113 N 
HETATM   17  O2  UNL     1      11.428   2.452  11.781  1.00  0.00    -0.532 OA
HETATM   18  O3  UNL     1       9.248   3.086  11.527  1.00  0.00    -0.532 OA
ENDBRANCH  15  16
ENDBRANCH   7   9
ENDBRANCH   5   7
BRANCH   3  19
HETATM   19  N4  UNL     1       9.471  10.514  13.104  1.00  0.00    -0.045 N 
ATOM     20  H43 UNL     1       9.330  11.073  13.945  1.00  0.00     0.277 HD
ATOM     21  H42 UNL     1       9.659  11.291  12.470  1.00  0.00     0.277 HD
ATOM     22  H41 UNL     1       8.655   9.961  12.840  1.00  0.00     0.277 HD
ENDBRANCH   3  19
BRANCH   3  23
HETATM   23  N5  UNL     1      11.659  10.144  12.464  1.00  0.00    -0.045 N 
ATOM     24  H53 UNL     1      11.772  11.126  12.717  1.00  0.00     0.277 HD
ATOM     25  H52 UNL     1      12.556   9.776  12.781  1.00  0.00     0.277 HD
ATOM     26  H51 UNL     1      11.576  10.048  11.452  1.00  0.00     0.277 HD
ENDBRANCH   3  23
BRANCH   1  27
HETATM   27  C2  UNL     1      13.015   8.285  15.283  1.00  0.00     0.167 C 
BRANCH  27  28
HETATM   28  N3  UNL     1      13.440   7.486  16.411  1.00  0.00    -0.135 NA
BRANCH  28  29
HETATM   29  N2  UNL     1      13.507   6.130  16.098  1.00  0.00    -0.258 N 
HETATM   30  C1  UNL     1      13.178   5.135  17.051  1.00  0.00     0.344 C 
HETATM   31  N1  UNL     1      13.229   3.753  16.786  1.00  0.00    -0.039 NA
HETATM   32  O1  UNL     1      12.823   5.502  18.199  1.00  0.00    -0.250 OA
ATOM     33  H2  UNL     1      13.798   5.848  15.162  1.00  0.00     0.186 HD
ENDBRANCH  28  29
ENDBRANCH  27  28
ENDBRANCH   1  27
TORSDOF 8
ENDMDL
MODEL 5
REMARK VINA RESULT: -8.072521949      3.332      7.466
REMARK  8 active torsions:
REMARK  status: ('A' for Active; 'I' for Inactive)
REMARK       I    between atoms: C1_2  and  N2_4 
REMARK    1  A    between atoms: N2_4  and  N3_6 
REMARK    2  A    between atoms: N3_6  and  C2_7 
REMARK    3  A    between atoms: C2_7  and  C3_8 
REMARK    4  A    between atoms: C5_10  and  N4_11 
REMARK    5  A    between atoms: C5_10  and  N5_15 
REMARK    6  A    between atoms: C7_20  and  N6_21 
REMARK    7  A    between atoms: N6_21  and  C8_23 
REMARK    8  A    between atoms: C13_29  and  N7_30 
ROOT
HETATM    1  C3  UNL     1      11.161   4.150  11.469  1.00  0.00     0.144 C 
HETATM    2  C4  UNL     1      11.524   3.757  10.066  1.00  0.00     0.102 C 
HETATM    3  C5  UNL     1      11.351   4.866   9.067  1.00  0.00     0.288 C 
HETATM    4  C6  UNL     1      11.781   6.167   9.640  1.00  0.00     0.122 C 
HETATM    5  C7  UNL     1      10.983   6.419  10.912  1.00  0.00     0.225 C 
HETATM    6  O4  UNL     1      11.363   5.449  11.808  1.00  0.00    -0.360 OA
ENDROOT
BRANCH   5   7
HETATM    7  N6  UNL     1      11.462   7.694  11.448  1.00  0.00    -0.362 N 
ATOM      8  H6  UNL     1      12.203   8.212  10.976  1.00  0.00     0.162 HD
BRANCH   7   9
HETATM    9  C8  UNL     1      10.870   8.197  12.642  1.00  0.00     0.063 A 
HETATM   10  C9  UNL     1       9.544   7.861  12.945  1.00  0.00     0.035 A 
HETATM   11  C10 UNL     1       8.952   8.310  14.098  1.00  0.00     0.044 A 
HETATM   12  C11 UNL     1       9.674   9.093  14.955  1.00  0.00     0.118 A 
HETATM   13  F1  UNL     1       9.082   9.542  16.111  1.00  0.00    -0.206 F 
HETATM   14  C12 UNL     1      10.972   9.425  14.664  1.00  0.00     0.080 A 
HETATM   15  C13 UNL     1      11.605   8.984  13.494  1.00  0.00     0.132 A 
BRANCH  15  16
HETATM   16  N7  UNL     1      12.945   9.379  13.291  1.00  0.00    -0.113 N 
HETATM   17  O2  UNL     1      13.647   9.103  12.306  1.00  0.00    -0.532 OA
HETATM   18  O3  UNL     1      13.485  10.190  14.309  1.00  0.00    -0.532 OA
ENDBRANCH  15  16
ENDBRANCH   7   9
ENDBRANCH   5   7
BRANCH   3  19
HETATM   19  N4  UNL     1      12.260   4.548   7.950  1.00  0.00    -0.045 N 
ATOM     20  H43 UNL     1      13.232   4.797   8.132  1.00  0.00     0.277 HD
ATOM     21  H42 UNL     1      12.411   3.548   7.819  1.00  0.00     0.277 HD
ATOM     22  H41 UNL     1      11.868   5.012   7.130  1.00  0.00     0.277 HD
ENDBRANCH   3  19
BRANCH   3  23
HETATM   23  N5  UNL     1      10.046   4.945   8.478  1.00  0.00    -0.045 N 
ATOM     24  H53 UNL     1      10.120   5.133   7.478  1.00  0.00     0.277 HD
ATOM     25  H52 UNL     1       9.613   4.021   8.453  1.00  0.00     0.277 HD
ATOM     26  H51 UNL     1       9.419   5.617   8.920  1.00  0.00     0.277 HD
ENDBRANCH   3  23
BRANCH   1  27
HETATM   27  C2  UNL     1       9.783   3.630  11.861  1.00  0.00     0.167 C 
BRANCH  27  28
HETATM   28  N3  UNL     1       9.377   2.566  10.969  1.00  0.00    -0.135 NA
BRANCH  28  29
HETATM   29  N2  UNL     1       8.644   1.581  11.628  1.00  0.00    -0.258 N 
HETATM   30  C1  UNL     1       7.441   1.069  11.084  1.00  0.00     0.344 C 
HETATM   31  N1  UNL     1       6.663   0.075  11.709  1.00  0.00    -0.039 NA
HETATM   32  O1  UNL     1       7.040   1.525   9.984  1.00  0.00    -0.250 OA
ATOM     33  H2  UNL     1       8.981   1.221  12.521  1.00  0.00     0.186 HD
ENDBRANCH  28  29
ENDBRANCH  27  28
ENDBRANCH   1  27
TORSDOF 8
ENDMDL
