MODEL 1
REMARK VINA RESULT: -7.634823690      0.000      0.000
REMARK  10 active torsions:
REMARK  status: ('A' for Active; 'I' for Inactive)
REMARK    1  A    between atoms: N1_1  and  N2_4 
REMARK       I    between atoms: N2_4  and  C1_6 
REMARK       I    between atoms: C1_6  and  N3_8 
REMARK    2  A    between atoms: N3_8  and  N4_10 
REMARK    3  A    between atoms: C2_12  and  C3_13 
REMARK    4  A    between atoms: C2_12  and  C10_25 
REMARK    5  A    between atoms: C3_13  and  N5_14 
REMARK    6  A    between atoms: N6_16  and  C4_18 
REMARK       I    between atoms: C10_25  and  N7_27 
REMARK    7  A    between atoms: N7_27  and  C11_29 
REMARK    8  A    between atoms: C11_29  and  C12_30 
REMARK    9  A    between atoms: C12_30  and  N8_31 
REMARK   10  A    between atoms: C12_30  and  N9_35 
ROOT
HETATM    1  N4  UNL     1      11.022   4.618  12.930  1.00  0.00    -0.294 N 
ATOM      2  H4  UNL     1      10.523   4.397  13.792  1.00  0.00     0.187 HD
HETATM    3  C2  UNL     1      10.601   5.656  12.381  1.00  0.00     0.112 C 
ENDROOT
BRANCH   3   4
HETATM    4  C3  UNL     1       9.443   6.355  13.115  1.00  0.00     0.203 C 
BRANCH   4   5
HETATM    5  N5  UNL     1       9.049   7.439  12.265  1.00  0.00    -0.330 N 
HETATM    6  N6  UNL     1       9.132   8.625  12.678  1.00  0.00    -0.305 N 
ATOM      7  H6  UNL     1       8.853   9.402  12.079  1.00  0.00     0.186 HD
ATOM      8  H5  UNL     1       8.701   7.250  11.326  1.00  0.00     0.180 HD
BRANCH   6   9
HETATM    9  C4  UNL     1       9.629   8.871  14.014  1.00  0.00     0.047 A 
HETATM   10  C5  UNL     1      10.981   8.887  14.264  1.00  0.00     0.032 A 
HETATM   11  C6  UNL     1      11.412   9.125  15.547  1.00  0.00     0.026 A 
HETATM   12  C7  UNL     1      10.544   9.351  16.594  1.00  0.00     0.034 A 
HETATM   13 CL1  UNL     1      11.195   9.643  18.184  1.00  0.00    -0.084 Cl
HETATM   14  C8  UNL     1       9.193   9.334  16.339  1.00  0.00     0.026 A 
HETATM   15  C9  UNL     1       8.760   9.096  15.056  1.00  0.00     0.032 A 
ENDBRANCH   6   9
ENDBRANCH   4   5
ENDBRANCH   3   4
BRANCH   3  16
HETATM   16  C10 UNL     1      11.067   6.262  11.163  1.00  0.00     0.267 C 
HETATM   17  O2  UNL     1      11.697   7.367  11.240  1.00  0.00    -0.266 OA
HETATM   18  N7  UNL     1      10.875   5.715   9.891  1.00  0.00    -0.352 N 
ATOM     19  H7  UNL     1      10.378   4.832   9.774  1.00  0.00     0.162 HD
BRANCH  18  20
HETATM   20  C11 UNL     1      11.405   6.438   8.726  1.00  0.00     0.185 C 
BRANCH  20  21
HETATM   21  C12 UNL     1      11.598   5.450   7.605  1.00  0.00     0.395 C 
BRANCH  21  22
HETATM   22  N8  UNL     1      10.690   4.383   7.711  1.00  0.00    -0.049 N 
ATOM     23  H83 UNL     1      10.238   4.364   8.625  1.00  0.00     0.276 HD
ATOM     24  H82 UNL     1       9.863   4.534   7.133  1.00  0.00     0.276 HD
ATOM     25  H81 UNL     1      11.142   3.495   7.497  1.00  0.00     0.276 HD
ENDBRANCH  21  22
BRANCH  21  26
HETATM   26  N9  UNL     1      12.954   4.954   7.687  1.00  0.00    -0.049 N 
ATOM     27  H93 UNL     1      13.609   5.647   8.050  1.00  0.00     0.276 HD
ATOM     28  H92 UNL     1      13.077   4.256   8.420  1.00  0.00     0.276 HD
ATOM     29  H91 UNL     1      13.213   4.608   6.764  1.00  0.00     0.276 HD
ENDBRANCH  21  26
ENDBRANCH  20  21
ENDBRANCH  18  20
ENDBRANCH   3  16
BRANCH   1  30
HETATM   30  N3  UNL     1      11.984   3.728  12.641  1.00  0.00    -0.250 N 
HETATM   31  C1  UNL     1      12.942   3.259  13.614  1.00  0.00     0.352 C 
HETATM   32  N2  UNL     1      13.939   2.322  13.269  1.00  0.00    -0.257 N 
HETATM   33  O1  UNL     1      12.859   3.714  14.780  1.00  0.00    -0.244 OA
ATOM     34  H2  UNL     1      14.002   1.956  12.320  1.00  0.00     0.191 HD
ATOM     35  H3  UNL     1      12.040   3.366  11.689  1.00  0.00     0.192 HD
BRANCH  32  36
HETATM   36  N1  UNL     1      14.835   1.907  14.250  1.00  0.00    -0.341 N 
ATOM     37  H12 UNL     1      15.246   0.975  14.197  1.00  0.00     0.177 HD
ATOM     38  H11 UNL     1      15.064   2.550  15.007  1.00  0.00     0.177 HD
ENDBRANCH  32  36
ENDBRANCH   1  30
TORSDOF 10
ENDMDL
MODEL 2
REMARK VINA RESULT: -7.174783920      1.841      2.225
REMARK  10 active torsions:
REMARK  status: ('A' for Active; 'I' for Inactive)
REMARK    1  A    between atoms: N1_1  and  N2_4 
REMARK       I    between atoms: N2_4  and  C1_6 
REMARK       I    between atoms: C1_6  and  N3_8 
REMARK    2  A    between atoms: N3_8  and  N4_10 
REMARK    3  A    between atoms: C2_12  and  C3_13 
REMARK    4  A    between atoms: C2_12  and  C10_25 
REMARK    5  A    between atoms: C3_13  and  N5_14 
REMARK    6  A    between atoms: N6_16  and  C4_18 
REMARK       I    between atoms: C10_25  and  N7_27 
REMARK    7  A    between atoms: N7_27  and  C11_29 
REMARK    8  A    between atoms: C11_29  and  C12_30 
REMARK    9  A    between atoms: C12_30  and  N8_31 
REMARK   10  A    between atoms: C12_30  and  N9_35 
ROOT
HETATM    1  N4  UNL     1      11.487   4.871  13.973  1.00  0.00    -0.294 N 
ATOM      2  H4  UNL     1      11.261   5.627  14.619  1.00  0.00     0.187 HD
HETATM    3  C2  UNL     1      10.951   5.011  12.856  1.00  0.00     0.112 C 
ENDROOT
BRANCH   3   4
HETATM    4  C3  UNL     1      10.083   6.272  12.708  1.00  0.00     0.203 C 
BRANCH   4   5
HETATM    5  N5  UNL     1      10.795   7.124  11.803  1.00  0.00    -0.330 N 
HETATM    6  N6  UNL     1      11.255   8.224  12.205  1.00  0.00    -0.305 N 
ATOM      7  H6  UNL     1      11.763   8.836  11.566  1.00  0.00     0.186 HD
ATOM      8  H5  UNL     1      10.928   6.840  10.833  1.00  0.00     0.180 HD
BRANCH   6   9
HETATM    9  C4  UNL     1      11.056   8.609  13.584  1.00  0.00     0.047 A 
HETATM   10  C5  UNL     1       9.864   9.161  13.990  1.00  0.00     0.032 A 
HETATM   11  C6  UNL     1       9.715   9.512  15.311  1.00  0.00     0.026 A 
HETATM   12  C7  UNL     1      10.712   9.333  16.245  1.00  0.00     0.034 A 
HETATM   13 CL1  UNL     1      10.421   9.813  17.895  1.00  0.00    -0.084 Cl
HETATM   14  C8  UNL     1      11.902   8.781  15.835  1.00  0.00     0.026 A 
HETATM   15  C9  UNL     1      12.053   8.428  14.514  1.00  0.00     0.032 A 
ENDBRANCH   6   9
ENDBRANCH   4   5
ENDBRANCH   3   4
BRANCH   3  16
HETATM   16  C10 UNL     1      11.052   4.144  11.714  1.00  0.00     0.267 C 
HETATM   17  O2  UNL     1      11.545   2.981  11.879  1.00  0.00    -0.266 OA
HETATM   18  N7  UNL     1      10.642   4.495  10.424  1.00  0.00    -0.352 N 
ATOM     19  H7  UNL     1      10.241   5.414  10.238  1.00  0.00     0.162 HD
BRANCH  18  20
HETATM   20  C11 UNL     1      10.801   3.512   9.343  1.00  0.00     0.185 C 
BRANCH  20  21
HETATM   21  C12 UNL     1      10.763   4.246   8.027  1.00  0.00     0.395 C 
BRANCH  21  22
HETATM   22  N8  UNL     1      11.622   3.645   7.091  1.00  0.00    -0.049 N 
ATOM     23  H83 UNL     1      12.022   2.779   7.449  1.00  0.00     0.276 HD
ATOM     24  H82 UNL     1      11.105   3.262   6.299  1.00  0.00     0.276 HD
ATOM     25  H81 UNL     1      12.346   4.297   6.789  1.00  0.00     0.276 HD
ENDBRANCH  21  22
BRANCH  21  26
HETATM   26  N9  UNL     1      11.178   5.609   8.275  1.00  0.00    -0.049 N 
ATOM     27  H93 UNL     1      11.214   5.838   9.268  1.00  0.00     0.276 HD
ATOM     28  H92 UNL     1      12.163   5.768   8.064  1.00  0.00     0.276 HD
ATOM     29  H91 UNL     1      10.556   6.221   7.748  1.00  0.00     0.276 HD
ENDBRANCH  21  26
ENDBRANCH  20  21
ENDBRANCH  18  20
ENDBRANCH   3  16
BRANCH   1  30
HETATM   30  N3  UNL     1      12.296   3.947  14.517  1.00  0.00    -0.250 N 
HETATM   31  C1  UNL     1      12.968   4.133  15.782  1.00  0.00     0.352 C 
HETATM   32  N2  UNL     1      13.811   3.136  16.318  1.00  0.00    -0.257 N 
HETATM   33  O1  UNL     1      12.776   5.213  16.391  1.00  0.00    -0.244 OA
ATOM     34  H2  UNL     1      13.963   2.260  15.819  1.00  0.00     0.191 HD
ATOM     35  H3  UNL     1      12.444   3.073  14.011  1.00  0.00     0.192 HD
BRANCH  32  36
HETATM   36  N1  UNL     1      14.430   3.372  17.541  1.00  0.00    -0.341 N 
ATOM     37  H12 UNL     1      14.114   2.871  18.372  1.00  0.00     0.177 HD
ATOM     38  H11 UNL     1      15.194   4.046  17.581  1.00  0.00     0.177 HD
ENDBRANCH  32  36
ENDBRANCH   1  30
TORSDOF 10
ENDMDL
MODEL 3
REMARK VINA RESULT: -6.870650492      1.690      2.156
REMARK  10 active torsions:
REMARK  status: ('A' for Active; 'I' for Inactive)
REMARK    1  A    between atoms: N1_1  and  N2_4 
REMARK       I    between atoms: N2_4  and  C1_6 
REMARK       I    between atoms: C1_6  and  N3_8 
REMARK    2  A    between atoms: N3_8  and  N4_10 
REMARK    3  A    between atoms: C2_12  and  C3_13 
REMARK    4  A    between atoms: C2_12  and  C10_25 
REMARK    5  A    between atoms: C3_13  and  N5_14 
REMARK    6  A    between atoms: N6_16  and  C4_18 
REMARK       I    between atoms: C10_25  and  N7_27 
REMARK    7  A    between atoms: N7_27  and  C11_29 
REMARK    8  A    between atoms: C11_29  and  C12_30 
REMARK    9  A    between atoms: C12_30  and  N8_31 
REMARK   10  A    between atoms: C12_30  and  N9_35 
ROOT
HETATM    1  N4  UNL     1      12.134   4.108  12.596  1.00  0.00    -0.294 N 
ATOM      2  H4  UNL     1      12.155   4.707  13.422  1.00  0.00     0.187 HD
HETATM    3  C2  UNL     1      11.362   4.529  11.712  1.00  0.00     0.112 C 
ENDROOT
BRANCH   3   4
HETATM    4  C3  UNL     1      10.626   5.834  12.062  1.00  0.00     0.203 C 
BRANCH   4   5
HETATM    5  N5  UNL     1      11.142   6.819  11.158  1.00  0.00    -0.330 N 
HETATM    6  N6  UNL     1      11.305   8.005  11.547  1.00  0.00    -0.305 N 
ATOM      7  H6  UNL     1      11.671   8.712  10.909  1.00  0.00     0.186 HD
ATOM      8  H5  UNL     1      11.376   6.560  10.201  1.00  0.00     0.180 HD
BRANCH   6   9
HETATM    9  C4  UNL     1      10.967   8.352  12.909  1.00  0.00     0.047 A 
HETATM   10  C5  UNL     1       9.662   8.600  13.264  1.00  0.00     0.032 A 
HETATM   11  C6  UNL     1       9.383   8.927  14.569  1.00  0.00     0.026 A 
HETATM   12  C7  UNL     1      10.359   9.015  15.538  1.00  0.00     0.034 A 
HETATM   13 CL1  UNL     1       9.899   9.437  17.166  1.00  0.00    -0.084 Cl
HETATM   14  C8  UNL     1      11.662   8.766  15.180  1.00  0.00     0.026 A 
HETATM   15  C9  UNL     1      11.943   8.439  13.874  1.00  0.00     0.032 A 
ENDBRANCH   6   9
ENDBRANCH   4   5
ENDBRANCH   3   4
BRANCH   3  16
HETATM   16  C10 UNL     1      11.088   3.944  10.428  1.00  0.00     0.267 C 
HETATM   17  O2  UNL     1      10.780   2.708  10.380  1.00  0.00    -0.266 OA
HETATM   18  N7  UNL     1      11.137   4.645   9.220  1.00  0.00    -0.352 N 
ATOM     19  H7  UNL     1      11.378   5.636   9.202  1.00  0.00     0.162 HD
BRANCH  18  20
HETATM   20  C11 UNL     1      10.833   3.924   7.975  1.00  0.00     0.185 C 
BRANCH  20  21
HETATM   21  C12 UNL     1      11.758   4.432   6.898  1.00  0.00     0.395 C 
BRANCH  21  22
HETATM   22  N8  UNL     1      11.977   5.814   7.032  1.00  0.00    -0.049 N 
ATOM     23  H83 UNL     1      11.691   6.152   7.950  1.00  0.00     0.276 HD
ATOM     24  H82 UNL     1      12.971   6.033   7.088  1.00  0.00     0.276 HD
ATOM     25  H81 UNL     1      11.518   6.331   6.282  1.00  0.00     0.276 HD
ENDBRANCH  21  22
BRANCH  21  26
HETATM   26  N9  UNL     1      11.138   4.152   5.622  1.00  0.00    -0.049 N 
ATOM     27  H93 UNL     1      10.407   4.821   5.380  1.00  0.00     0.276 HD
ATOM     28  H92 UNL     1      11.755   4.336   4.831  1.00  0.00     0.276 HD
ATOM     29  H91 UNL     1      10.802   3.189   5.646  1.00  0.00     0.276 HD
ENDBRANCH  21  26
ENDBRANCH  20  21
ENDBRANCH  18  20
ENDBRANCH   3  16
BRANCH   1  30
HETATM   30  N3  UNL     1      12.945   3.044  12.705  1.00  0.00    -0.250 N 
HETATM   31  C1  UNL     1      13.749   2.781  13.875  1.00  0.00     0.352 C 
HETATM   32  N2  UNL     1      14.589   1.649  13.949  1.00  0.00    -0.257 N 
HETATM   33  O1  UNL     1      13.674   3.593  14.828  1.00  0.00    -0.244 OA
ATOM     34  H2  UNL     1      14.645   0.992  13.172  1.00  0.00     0.191 HD
ATOM     35  H3  UNL     1      12.996   2.390  11.923  1.00  0.00     0.192 HD
BRANCH  32  36
HETATM   36  N1  UNL     1      15.339   1.448  15.103  1.00  0.00    -0.341 N 
ATOM     37  H12 UNL     1      15.525   2.233  15.728  1.00  0.00     0.177 HD
ATOM     38  H11 UNL     1      15.692   0.512  15.301  1.00  0.00     0.177 HD
ENDBRANCH  32  36
ENDBRANCH   1  30
TORSDOF 10
ENDMDL
MODEL 4
REMARK VINA RESULT: -6.812023968      2.049      5.156
REMARK  10 active torsions:
REMARK  status: ('A' for Active; 'I' for Inactive)
REMARK    1  A    between atoms: N1_1  and  N2_4 
REMARK       I    between atoms: N2_4  and  C1_6 
REMARK       I    between atoms: C1_6  and  N3_8 
REMARK    2  A    between atoms: N3_8  and  N4_10 
REMARK    3  A    between atoms: C2_12  and  C3_13 
REMARK    4  A    between atoms: C2_12  and  C10_25 
REMARK    5  A    between atoms: C3_13  and  N5_14 
REMARK    6  A    between atoms: N6_16  and  C4_18 
REMARK       I    between atoms: C10_25  and  N7_27 
REMARK    7  A    between atoms: N7_27  and  C11_29 
REMARK    8  A    between atoms: C11_29  and  C12_30 
REMARK    9  A    between atoms: C12_30  and  N8_31 
REMARK   10  A    between atoms: C12_30  and  N9_35 
ROOT
HETATM    1  N4  UNL     1      10.560   4.552  10.791  1.00  0.00    -0.294 N 
ATOM      2  H4  UNL     1       9.944   5.365  10.748  1.00  0.00     0.187 HD
HETATM    3  C2  UNL     1      11.063   4.387  11.920  1.00  0.00     0.112 C 
ENDROOT
BRANCH   3   4
HETATM    4  C3  UNL     1      10.649   5.427  12.974  1.00  0.00     0.203 C 
BRANCH   4   5
HETATM    5  N5  UNL     1       9.480   6.064  12.446  1.00  0.00    -0.330 N 
HETATM    6  N6  UNL     1       9.422   7.320  12.378  1.00  0.00    -0.305 N 
ATOM      7  H6  UNL     1       8.593   7.780  12.003  1.00  0.00     0.186 HD
ATOM      8  H5  UNL     1       8.693   5.500  12.124  1.00  0.00     0.180 HD
BRANCH   6   9
HETATM    9  C4  UNL     1      10.549   8.101  12.838  1.00  0.00     0.047 A 
HETATM   10  C5  UNL     1      11.595   8.384  11.991  1.00  0.00     0.032 A 
HETATM   11  C6  UNL     1      12.647   9.130  12.468  1.00  0.00     0.026 A 
HETATM   12  C7  UNL     1      12.694   9.607  13.760  1.00  0.00     0.034 A 
HETATM   13 CL1  UNL     1      14.074  10.545  14.265  1.00  0.00    -0.084 Cl
HETATM   14  C8  UNL     1      11.646   9.323  14.603  1.00  0.00     0.026 A 
HETATM   15  C9  UNL     1      10.593   8.576  14.128  1.00  0.00     0.032 A 
ENDBRANCH   6   9
ENDBRANCH   4   5
ENDBRANCH   3   4
BRANCH   3  16
HETATM   16  C10 UNL     1      11.969   3.352  12.339  1.00  0.00     0.267 C 
HETATM   17  O2  UNL     1      11.744   2.158  11.952  1.00  0.00    -0.266 OA
HETATM   18  N7  UNL     1      13.088   3.568  13.148  1.00  0.00    -0.352 N 
ATOM     19  H7  UNL     1      13.313   4.504  13.485  1.00  0.00     0.162 HD
BRANCH  18  20
HETATM   20  C11 UNL     1      13.933   2.419  13.504  1.00  0.00     0.185 C 
BRANCH  20  21
HETATM   21  C12 UNL     1      14.725   2.778  14.735  1.00  0.00     0.395 C 
BRANCH  21  22
HETATM   22  N8  UNL     1      15.435   1.665  15.219  1.00  0.00    -0.049 N 
ATOM     23  H83 UNL     1      15.781   1.822  16.165  1.00  0.00     0.276 HD
ATOM     24  H82 UNL     1      14.815   0.878  15.409  1.00  0.00     0.276 HD
ATOM     25  H81 UNL     1      16.187   1.407  14.581  1.00  0.00     0.276 HD
ENDBRANCH  21  22
BRANCH  21  26
HETATM   26  N9  UNL     1      13.790   3.240  15.737  1.00  0.00    -0.049 N 
ATOM     27  H93 UNL     1      13.944   4.211  16.006  1.00  0.00     0.276 HD
ATOM     28  H92 UNL     1      12.843   3.350  15.375  1.00  0.00     0.276 HD
ATOM     29  H91 UNL     1      13.840   2.597  16.526  1.00  0.00     0.276 HD
ENDBRANCH  21  26
ENDBRANCH  20  21
ENDBRANCH  18  20
ENDBRANCH   3  16
BRANCH   1  30
HETATM   30  N3  UNL     1      10.647   3.902   9.620  1.00  0.00    -0.250 N 
HETATM   31  C1  UNL     1      10.932   4.564   8.369  1.00  0.00     0.352 C 
HETATM   32  N2  UNL     1      11.015   3.843   7.159  1.00  0.00    -0.257 N 
HETATM   33  O1  UNL     1      11.104   5.807   8.393  1.00  0.00    -0.244 OA
ATOM     34  H2  UNL     1      10.874   2.834   7.145  1.00  0.00     0.191 HD
ATOM     35  H3  UNL     1      10.505   2.891   9.614  1.00  0.00     0.192 HD
BRANCH  32  36
HETATM   36  N1  UNL     1      11.292   4.536   5.985  1.00  0.00    -0.341 N 
ATOM     37  H12 UNL     1      11.921   5.340   6.009  1.00  0.00     0.177 HD
ATOM     38  H11 UNL     1      10.857   4.224   5.117  1.00  0.00     0.177 HD
ENDBRANCH  32  36
ENDBRANCH   1  30
TORSDOF 10
ENDMDL
MODEL 5
REMARK VINA RESULT: -6.806925765      3.747      7.285
REMARK  10 active torsions:
REMARK  status: ('A' for Active; 'I' for Inactive)
REMARK    1  A    between atoms: N1_1  and  N2_4 
REMARK       I    between atoms: N2_4  and  C1_6 
REMARK       I    between atoms: C1_6  and  N3_8 
REMARK    2  A    between atoms: N3_8  and  N4_10 
REMARK    3  A    between atoms: C2_12  and  C3_13 
REMARK    4  A    between atoms: C2_12  and  C10_25 
REMARK    5  A    between atoms: C3_13  and  N5_14 
REMARK    6  A    between atoms: N6_16  and  C4_18 
REMARK       I    between atoms: C10_25  and  N7_27 
REMARK    7  A    between atoms: N7_27  and  C11_29 
REMARK    8  A    between atoms: C11_29  and  C12_30 
REMARK    9  A    between atoms: C12_30  and  N8_31 
REMARK   10  A    between atoms: C12_30  and  N9_35 
ROOT
HETATM    1  N4  UNL     1      11.099   7.715  11.990  1.00  0.00    -0.294 N 
ATOM      2  H4  UNL     1      11.484   7.049  11.320  1.00  0.00     0.187 HD
HETATM    3  C2  UNL     1      10.052   7.307  12.531  1.00  0.00     0.112 C 
ENDROOT
BRANCH   3   4
HETATM    4  C3  UNL     1       9.585   5.916  12.072  1.00  0.00     0.203 C 
BRANCH   4   5
HETATM    5  N5  UNL     1      10.419   4.982  12.767  1.00  0.00    -0.330 N 
HETATM    6  N6  UNL     1      11.193   4.227  12.122  1.00  0.00    -0.305 N 
ATOM      7  H6  UNL     1      11.790   3.560  12.611  1.00  0.00     0.186 HD
ATOM      8  H5  UNL     1      10.386   4.928  13.785  1.00  0.00     0.180 HD
BRANCH   6   9
HETATM    9  C4  UNL     1      11.225   4.320  10.680  1.00  0.00     0.047 A 
HETATM   10  C5  UNL     1      10.503   3.441   9.907  1.00  0.00     0.032 A 
HETATM   11  C6  UNL     1      10.561   3.564   8.539  1.00  0.00     0.026 A 
HETATM   12  C7  UNL     1      11.313   4.532   7.910  1.00  0.00     0.034 A 
HETATM   13 CL1  UNL     1      11.317   4.601   6.168  1.00  0.00    -0.084 Cl
HETATM   14  C8  UNL     1      12.033   5.409   8.687  1.00  0.00     0.026 A 
HETATM   15  C9  UNL     1      11.977   5.288  10.055  1.00  0.00     0.032 A 
ENDBRANCH   6   9
ENDBRANCH   4   5
ENDBRANCH   3   4
BRANCH   3  16
HETATM   16  C10 UNL     1       9.249   7.979  13.516  1.00  0.00     0.267 C 
HETATM   17  O2  UNL     1       8.238   7.365  13.992  1.00  0.00    -0.266 OA
HETATM   18  N7  UNL     1       9.503   9.269  13.990  1.00  0.00    -0.352 N 
ATOM     19  H7  UNL     1      10.299   9.803  13.641  1.00  0.00     0.162 HD
BRANCH  18  20
HETATM   20  C11 UNL     1       8.601   9.839  15.001  1.00  0.00     0.185 C 
BRANCH  20  21
HETATM   21  C12 UNL     1       9.246   9.679  16.354  1.00  0.00     0.395 C 
BRANCH  21  22
HETATM   22  N8  UNL     1      10.630   9.469  16.230  1.00  0.00    -0.049 N 
ATOM     23  H83 UNL     1      10.950   8.707  16.827  1.00  0.00     0.276 HD
ATOM     24  H82 UNL     1      10.870   9.067  15.323  1.00  0.00     0.276 HD
ATOM     25  H81 UNL     1      11.148  10.329  16.410  1.00  0.00     0.276 HD
ENDBRANCH  21  22
BRANCH  21  26
HETATM   26  N9  UNL     1       8.630   8.542  17.000  1.00  0.00    -0.049 N 
ATOM     27  H93 UNL     1       8.033   8.806  17.783  1.00  0.00     0.276 HD
ATOM     28  H92 UNL     1       7.912   8.100  16.426  1.00  0.00     0.276 HD
ATOM     29  H91 UNL     1       9.374   7.898  17.268  1.00  0.00     0.276 HD
ENDBRANCH  21  26
ENDBRANCH  20  21
ENDBRANCH  18  20
ENDBRANCH   3  16
BRANCH   1  30
HETATM   30  N3  UNL     1      11.834   8.834  12.092  1.00  0.00    -0.250 N 
HETATM   31  C1  UNL     1      12.630   9.152  13.254  1.00  0.00     0.352 C 
HETATM   32  N2  UNL     1      13.388  10.340  13.322  1.00  0.00    -0.257 N 
HETATM   33  O1  UNL     1      12.625   8.334  14.205  1.00  0.00    -0.244 OA
ATOM     34  H2  UNL     1      13.388  11.001  12.546  1.00  0.00     0.191 HD
ATOM     35  H3  UNL     1      11.829   9.491  11.311  1.00  0.00     0.192 HD
BRANCH  32  36
HETATM   36  N1  UNL     1      14.135  10.592  14.468  1.00  0.00    -0.341 N 
ATOM     37  H12 UNL     1      14.941  10.004  14.685  1.00  0.00     0.177 HD
ATOM     38  H11 UNL     1      13.860  11.366  15.072  1.00  0.00     0.177 HD
ENDBRANCH  32  36
ENDBRANCH   1  30
TORSDOF 10
ENDMDL
