MODEL 1
REMARK VINA RESULT: -6.910253609      0.000      0.000
REMARK  6 active torsions:
REMARK  status: ('A' for Active; 'I' for Inactive)
REMARK    1  A    between atoms: C4_4  and  N1_5 
REMARK    2  A    between atoms: C5_12  and  S1_13 
REMARK    3  A    between atoms: S1_13  and  C6_14 
REMARK    4  A    between atoms: C6_14  and  C7_15 
REMARK    5  A    between atoms: C7_15  and  N5_16 
REMARK    6  A    between atoms: N5_16  and  C8_19 
ROOT
HETATM    1  N1  UNL     1      21.287  28.913  11.760  1.00  0.00    -0.215 N 
HETATM    2  N2  UNL     1      21.963  29.994  12.141  1.00  0.00    -0.219 N 
ATOM      3  H2  UNL     1      22.981  30.063  12.161  1.00  0.00     0.210 HD
HETATM    4  N3  UNL     1      21.149  30.953  12.484  1.00  0.00    -0.226 N 
ATOM      5  H3  UNL     1      21.413  31.882  12.812  1.00  0.00     0.210 HD
HETATM    6  N4  UNL     1      19.932  30.504  12.329  1.00  0.00    -0.263 N 
ATOM      7  H4  UNL     1      19.076  31.027  12.517  1.00  0.00     0.190 HD
HETATM    8  C5  UNL     1      19.995  29.228  11.876  1.00  0.00     0.183 A 
ENDROOT
BRANCH   8   9
HETATM    9  S1  UNL     1      18.590  28.208  11.522  1.00  0.00    -0.089 SA
BRANCH   9  10
HETATM   10  C6  UNL     1      18.485  27.890   9.738  1.00  0.00     0.110 C 
BRANCH  10  11
HETATM   11  C7  UNL     1      18.818  26.446   9.510  1.00  0.00     0.243 C 
BRANCH  11  12
HETATM   12  N5  UNL     1      17.830  25.760   8.712  1.00  0.00    -0.070 N 
ATOM     13  H52 UNL     1      17.105  25.319   9.279  1.00  0.00     0.277 HD
ATOM     14  H51 UNL     1      17.230  26.401   8.194  1.00  0.00     0.277 HD
BRANCH  12  15
HETATM   15  C8  UNL     1      18.508  24.822   7.856  1.00  0.00     0.186 C 
HETATM   16  C9  UNL     1      19.987  24.717   8.192  1.00  0.00     0.033 C 
HETATM   17  C10 UNL     1      20.616  24.324   6.883  1.00  0.00     0.002 C 
HETATM   18  C11 UNL     1      19.580  24.437   5.820  1.00  0.00     0.002 C 
HETATM   19  C12 UNL     1      18.571  25.395   6.455  1.00  0.00     0.033 C 
ENDBRANCH  12  15
ENDBRANCH  11  12
ENDBRANCH  10  11
ENDBRANCH   9  10
ENDBRANCH   8   9
BRANCH   1  20
HETATM   20  C4  UNL     1      21.856  27.685  11.321  1.00  0.00     0.084 A 
HETATM   21  C3  UNL     1      22.468  27.386  10.127  1.00  0.00     0.058 A 
HETATM   22  C2  UNL     1      22.884  26.069  10.102  1.00  0.00     0.007 A 
HETATM   23  C1  UNL     1      23.587  25.351   8.994  1.00  0.00     0.068 C 
HETATM   24  N6  UNL     1      22.516  25.560  11.301  1.00  0.00    -0.362 N 
HETATM   25  C13 UNL     1      21.904  26.498  12.045  1.00  0.00     0.034 A 
ATOM     26  H6  UNL     1      22.681  24.598  11.600  1.00  0.00     0.165 HD
HETATM   27  C14 UNL     1      21.352  26.318  13.431  1.00  0.00     0.070 C 
ENDBRANCH   1  20
TORSDOF 6
ENDMDL
MODEL 2
REMARK VINA RESULT: -6.861929061      3.683      5.906
REMARK  6 active torsions:
REMARK  status: ('A' for Active; 'I' for Inactive)
REMARK    1  A    between atoms: C4_4  and  N1_5 
REMARK    2  A    between atoms: C5_12  and  S1_13 
REMARK    3  A    between atoms: S1_13  and  C6_14 
REMARK    4  A    between atoms: C6_14  and  C7_15 
REMARK    5  A    between atoms: C7_15  and  N5_16 
REMARK    6  A    between atoms: N5_16  and  C8_19 
ROOT
HETATM    1  N1  UNL     1      25.880  24.771  11.651  1.00  0.00    -0.215 N 
HETATM    2  N2  UNL     1      26.142  24.374  12.894  1.00  0.00    -0.219 N 
ATOM      3  H2  UNL     1      25.785  24.829  13.735  1.00  0.00     0.210 HD
HETATM    4  N3  UNL     1      26.916  23.325  12.893  1.00  0.00    -0.226 N 
ATOM      5  H3  UNL     1      27.263  22.828  13.714  1.00  0.00     0.210 HD
HETATM    6  N4  UNL     1      27.167  23.028  11.646  1.00  0.00    -0.263 N 
ATOM      7  H4  UNL     1      27.747  22.253  11.323  1.00  0.00     0.190 HD
HETATM    8  C5  UNL     1      26.527  23.921  10.851  1.00  0.00     0.183 A 
ENDROOT
BRANCH   8   9
HETATM    9  S1  UNL     1      26.577  23.917   9.080  1.00  0.00    -0.089 SA
BRANCH   9  10
HETATM   10  C6  UNL     1      25.345  22.757   8.425  1.00  0.00     0.110 C 
BRANCH  10  11
HETATM   11  C7  UNL     1      24.143  23.551   8.010  1.00  0.00     0.243 C 
BRANCH  11  12
HETATM   12  N5  UNL     1      23.364  22.901   6.983  1.00  0.00    -0.070 N 
ATOM     13  H52 UNL     1      23.625  23.202   6.044  1.00  0.00     0.277 HD
ATOM     14  H51 UNL     1      23.597  21.913   6.881  1.00  0.00     0.277 HD
BRANCH  12  15
HETATM   15  C8  UNL     1      21.970  23.114   7.265  1.00  0.00     0.186 C 
HETATM   16  C9  UNL     1      21.193  23.502   6.017  1.00  0.00     0.033 C 
HETATM   17  C10 UNL     1      20.055  24.326   6.555  1.00  0.00     0.002 C 
HETATM   18  C11 UNL     1      20.313  24.584   7.998  1.00  0.00     0.002 C 
HETATM   19  C12 UNL     1      21.825  24.371   8.097  1.00  0.00     0.033 C 
ENDBRANCH  12  15
ENDBRANCH  11  12
ENDBRANCH  10  11
ENDBRANCH   9  10
ENDBRANCH   8   9
BRANCH   1  20
HETATM   20  C4  UNL     1      25.069  25.880  11.283  1.00  0.00     0.084 A 
HETATM   21  C3  UNL     1      23.782  25.896  10.800  1.00  0.00     0.058 A 
HETATM   22  C2  UNL     1      23.359  27.189  10.565  1.00  0.00     0.007 A 
HETATM   23  C1  UNL     1      22.032  27.639  10.042  1.00  0.00     0.068 C 
HETATM   24  N6  UNL     1      24.408  27.973  10.911  1.00  0.00    -0.362 N 
HETATM   25  C13 UNL     1      25.437  27.221  11.340  1.00  0.00     0.034 A 
ATOM     26  H6  UNL     1      24.417  28.991  10.854  1.00  0.00     0.165 HD
HETATM   27  C14 UNL     1      26.774  27.721  11.808  1.00  0.00     0.070 C 
ENDBRANCH   1  20
TORSDOF 6
ENDMDL
MODEL 3
REMARK VINA RESULT: -6.816382740      1.750      3.549
REMARK  6 active torsions:
REMARK  status: ('A' for Active; 'I' for Inactive)
REMARK    1  A    between atoms: C4_4  and  N1_5 
REMARK    2  A    between atoms: C5_12  and  S1_13 
REMARK    3  A    between atoms: S1_13  and  C6_14 
REMARK    4  A    between atoms: C6_14  and  C7_15 
REMARK    5  A    between atoms: C7_15  and  N5_16 
REMARK    6  A    between atoms: N5_16  and  C8_19 
ROOT
HETATM    1  N1  UNL     1      20.963  28.716  11.351  1.00  0.00    -0.215 N 
HETATM    2  N2  UNL     1      21.265  29.983  11.625  1.00  0.00    -0.219 N 
ATOM      3  H2  UNL     1      20.607  30.761  11.564  1.00  0.00     0.210 HD
HETATM    4  N3  UNL     1      22.514  30.096  11.982  1.00  0.00    -0.226 N 
ATOM      5  H3  UNL     1      22.992  30.958  12.243  1.00  0.00     0.210 HD
HETATM    6  N4  UNL     1      23.039  28.900  11.944  1.00  0.00    -0.263 N 
ATOM      7  H4  UNL     1      24.006  28.667  12.171  1.00  0.00     0.190 HD
HETATM    8  C5  UNL     1      22.085  28.021  11.551  1.00  0.00     0.183 A 
ENDROOT
BRANCH   8   9
HETATM    9  S1  UNL     1      22.335  26.278  11.352  1.00  0.00    -0.089 SA
BRANCH   9  10
HETATM   10  C6  UNL     1      23.534  25.968  10.025  1.00  0.00     0.110 C 
BRANCH  10  11
HETATM   11  C7  UNL     1      22.866  25.107   8.996  1.00  0.00     0.243 C 
BRANCH  11  12
HETATM   12  N5  UNL     1      21.505  24.769   9.341  1.00  0.00    -0.070 N 
ATOM     13  H52 UNL     1      21.440  24.254  10.219  1.00  0.00     0.277 HD
ATOM     14  H51 UNL     1      20.957  25.583   9.616  1.00  0.00     0.277 HD
BRANCH  12  15
HETATM   15  C8  UNL     1      20.920  24.055   8.237  1.00  0.00     0.186 C 
HETATM   16  C9  UNL     1      21.976  23.394   7.366  1.00  0.00     0.033 C 
HETATM   17  C10 UNL     1      21.329  23.340   6.010  1.00  0.00     0.002 C 
HETATM   18  C11 UNL     1      20.076  24.142   6.064  1.00  0.00     0.002 C 
HETATM   19  C12 UNL     1      20.330  25.055   7.265  1.00  0.00     0.033 C 
ENDBRANCH  12  15
ENDBRANCH  11  12
ENDBRANCH  10  11
ENDBRANCH   9  10
ENDBRANCH   8   9
BRANCH   1  20
HETATM   20  C4  UNL     1      19.693  28.232  10.932  1.00  0.00     0.084 A 
HETATM   21  C3  UNL     1      19.326  27.673   9.731  1.00  0.00     0.058 A 
HETATM   22  C2  UNL     1      17.987  27.336   9.731  1.00  0.00     0.007 A 
HETATM   23  C1  UNL     1      17.199  26.708   8.626  1.00  0.00     0.068 C 
HETATM   24  N6  UNL     1      17.533  27.697  10.955  1.00  0.00    -0.362 N 
HETATM   25  C13 UNL     1      18.525  28.233  11.688  1.00  0.00     0.034 A 
ATOM     26  H6  UNL     1      16.571  27.580  11.276  1.00  0.00     0.165 HD
HETATM   27  C14 UNL     1      18.415  28.754  13.093  1.00  0.00     0.070 C 
ENDBRANCH   1  20
TORSDOF 6
ENDMDL
MODEL 4
REMARK VINA RESULT: -6.796500020      2.193      4.526
REMARK  6 active torsions:
REMARK  status: ('A' for Active; 'I' for Inactive)
REMARK    1  A    between atoms: C4_4  and  N1_5 
REMARK    2  A    between atoms: C5_12  and  S1_13 
REMARK    3  A    between atoms: S1_13  and  C6_14 
REMARK    4  A    between atoms: C6_14  and  C7_15 
REMARK    5  A    between atoms: C7_15  and  N5_16 
REMARK    6  A    between atoms: N5_16  and  C8_19 
ROOT
HETATM    1  N1  UNL     1      20.544  29.155  12.574  1.00  0.00    -0.215 N 
HETATM    2  N2  UNL     1      21.177  30.109  11.896  1.00  0.00    -0.219 N 
ATOM      3  H2  UNL     1      20.768  31.009  11.645  1.00  0.00     0.210 HD
HETATM    4  N3  UNL     1      22.391  29.738  11.597  1.00  0.00    -0.226 N 
ATOM      5  H3  UNL     1      23.081  30.285  11.082  1.00  0.00     0.210 HD
HETATM    6  N4  UNL     1      22.560  28.535  12.079  1.00  0.00    -0.263 N 
ATOM      7  H4  UNL     1      23.412  27.978  12.004  1.00  0.00     0.190 HD
HETATM    8  C5  UNL     1      21.415  28.151  12.695  1.00  0.00     0.183 A 
ENDROOT
BRANCH   8   9
HETATM    9  S1  UNL     1      21.173  26.589  13.496  1.00  0.00    -0.089 SA
BRANCH   9  10
HETATM   10  C6  UNL     1      21.678  25.239  12.394  1.00  0.00     0.110 C 
BRANCH  10  11
HETATM   11  C7  UNL     1      21.218  25.582  11.009  1.00  0.00     0.243 C 
BRANCH  11  12
HETATM   12  N5  UNL     1      22.291  25.581  10.043  1.00  0.00    -0.070 N 
ATOM     13  H52 UNL     1      22.886  26.406  10.117  1.00  0.00     0.277 HD
ATOM     14  H51 UNL     1      23.002  24.879  10.247  1.00  0.00     0.277 HD
BRANCH  12  15
HETATM   15  C8  UNL     1      21.722  25.425   8.730  1.00  0.00     0.186 C 
HETATM   16  C9  UNL     1      20.214  25.616   8.741  1.00  0.00     0.033 C 
HETATM   17  C10 UNL     1      19.746  24.775   7.585  1.00  0.00     0.002 C 
HETATM   18  C11 UNL     1      20.901  23.970   7.102  1.00  0.00     0.002 C 
HETATM   19  C12 UNL     1      21.825  23.971   8.321  1.00  0.00     0.033 C 
ENDBRANCH  12  15
ENDBRANCH  11  12
ENDBRANCH  10  11
ENDBRANCH   9  10
ENDBRANCH   8   9
BRANCH   1  20
HETATM   20  C4  UNL     1      19.208  29.222  13.059  1.00  0.00     0.084 A 
HETATM   21  C3  UNL     1      18.728  29.804  14.208  1.00  0.00     0.058 A 
HETATM   22  C2  UNL     1      17.359  29.644  14.307  1.00  0.00     0.007 A 
HETATM   23  C1  UNL     1      16.457  30.126  15.397  1.00  0.00     0.068 C 
HETATM   24  N6  UNL     1      17.004  28.951  13.199  1.00  0.00    -0.362 N 
HETATM   25  C13 UNL     1      18.083  28.688  12.441  1.00  0.00     0.034 A 
ATOM     26  H6  UNL     1      16.050  28.669  12.971  1.00  0.00     0.165 HD
HETATM   27  C14 UNL     1      18.097  27.940  11.138  1.00  0.00     0.070 C 
ENDBRANCH   1  20
TORSDOF 6
ENDMDL
MODEL 5
REMARK VINA RESULT: -6.759439696      2.021      3.596
REMARK  6 active torsions:
REMARK  status: ('A' for Active; 'I' for Inactive)
REMARK    1  A    between atoms: C4_4  and  N1_5 
REMARK    2  A    between atoms: C5_12  and  S1_13 
REMARK    3  A    between atoms: S1_13  and  C6_14 
REMARK    4  A    between atoms: C6_14  and  C7_15 
REMARK    5  A    between atoms: C7_15  and  N5_16 
REMARK    6  A    between atoms: N5_16  and  C8_19 
ROOT
HETATM    1  N1  UNL     1      20.307  29.062  12.295  1.00  0.00    -0.215 N 
HETATM    2  N2  UNL     1      21.173  30.032  12.578  1.00  0.00    -0.219 N 
ATOM      3  H2  UNL     1      21.154  30.595  13.429  1.00  0.00     0.210 HD
HETATM    4  N3  UNL     1      22.049  30.165  11.622  1.00  0.00    -0.226 N 
ATOM      5  H3  UNL     1      22.818  30.836  11.595  1.00  0.00     0.210 HD
HETATM    6  N4  UNL     1      21.761  29.281  10.704  1.00  0.00    -0.263 N 
ATOM      7  H4  UNL     1      22.270  29.141   9.831  1.00  0.00     0.190 HD
HETATM    8  C5  UNL     1      20.673  28.579  11.106  1.00  0.00     0.183 A 
ENDROOT
BRANCH   8   9
HETATM    9  S1  UNL     1      19.914  27.272  10.182  1.00  0.00    -0.089 SA
BRANCH   9  10
HETATM   10  C6  UNL     1      18.285  27.799   9.580  1.00  0.00     0.110 C 
BRANCH  10  11
HETATM   11  C7  UNL     1      17.871  26.854   8.492  1.00  0.00     0.243 C 
BRANCH  11  12
HETATM   12  N5  UNL     1      17.937  25.469   8.893  1.00  0.00    -0.070 N 
ATOM     13  H52 UNL     1      18.488  25.332   9.740  1.00  0.00     0.277 HD
ATOM     14  H51 UNL     1      17.046  25.121   9.249  1.00  0.00     0.277 HD
BRANCH  12  15
HETATM   15  C8  UNL     1      18.427  24.697   7.782  1.00  0.00     0.186 C 
HETATM   16  C9  UNL     1      19.900  24.352   7.939  1.00  0.00     0.033 C 
HETATM   17  C10 UNL     1      20.382  24.219   6.520  1.00  0.00     0.002 C 
HETATM   18  C11 UNL     1      19.299  24.697   5.618  1.00  0.00     0.002 C 
HETATM   19  C12 UNL     1      18.468  25.579   6.552  1.00  0.00     0.033 C 
ENDBRANCH  12  15
ENDBRANCH  11  12
ENDBRANCH  10  11
ENDBRANCH   9  10
ENDBRANCH   8   9
BRANCH   1  20
HETATM   20  C4  UNL     1      19.221  28.647  13.116  1.00  0.00     0.084 A 
HETATM   21  C3  UNL     1      17.976  29.212  13.263  1.00  0.00     0.058 A 
HETATM   22  C2  UNL     1      17.213  28.495  14.165  1.00  0.00     0.007 A 
HETATM   23  C1  UNL     1      15.811  28.773  14.603  1.00  0.00     0.068 C 
HETATM   24  N6  UNL     1      18.010  27.479  14.572  1.00  0.00    -0.362 N 
HETATM   25  C13 UNL     1      19.208  27.545  13.965  1.00  0.00     0.034 A 
ATOM     26  H6  UNL     1      17.739  26.762  15.246  1.00  0.00     0.165 HD
HETATM   27  C14 UNL     1      20.360  26.599  14.156  1.00  0.00     0.070 C 
ENDBRANCH   1  20
TORSDOF 6
ENDMDL
