MODEL 1
REMARK VINA RESULT: -6.512203787      0.000      0.000
REMARK  6 active torsions:
REMARK  status: ('A' for Active; 'I' for Inactive)
REMARK    1  A    between atoms: C3_4  and  N2_5 
REMARK    2  A    between atoms: C8_12  and  S1_13 
REMARK    3  A    between atoms: S1_13  and  C9_14 
REMARK    4  A    between atoms: C9_14  and  C10_15 
REMARK    5  A    between atoms: C10_15  and  O1_16 
REMARK    6  A    between atoms: C11_18  and  C12_19 
ROOT
HETATM    1  N1  UNL     1      18.029  27.357   9.310  1.00  0.00    -0.191 NA
HETATM    2  C1  UNL     1      18.948  26.681   9.062  1.00  0.00     0.105 C 
HETATM    3  C2  UNL     1      20.099  25.865   8.758  1.00  0.00     0.110 A 
HETATM    4  C3  UNL     1      21.251  25.917   9.513  1.00  0.00     0.127 A 
HETATM    5  N3  UNL     1      22.291  25.134   9.192  1.00  0.00    -0.335 N 
ATOM      6  H3  UNL     1      23.138  25.183   9.759  1.00  0.00     0.168 HD
HETATM    7  C8  UNL     1      22.258  24.277   8.138  1.00  0.00     0.086 A 
HETATM    8  C11 UNL     1      21.137  24.195   7.367  1.00  0.00     0.058 A 
HETATM    9  C13 UNL     1      20.040  24.999   7.679  1.00  0.00     0.071 A 
HETATM   10  S2  UNL     1      18.703  24.885   6.735  1.00  0.00    -0.077 SA
ENDROOT
BRANCH   4  11
HETATM   11  N2  UNL     1      21.298  26.801  10.618  1.00  0.00    -0.366 N 
HETATM   12  C4  UNL     1      20.973  26.387  11.991  1.00  0.00     0.124 C 
HETATM   13  C5  UNL     1      20.558  27.702  12.614  1.00  0.00     0.021 C 
HETATM   14  C6  UNL     1      21.626  28.633  12.045  1.00  0.00     0.021 C 
HETATM   15  C7  UNL     1      21.654  28.209  10.603  1.00  0.00     0.124 C 
ENDBRANCH   4  11
BRANCH   8  16
HETATM   16  C12 UNL     1      21.080  23.295   6.232  1.00  0.00     0.274 C 
HETATM   17  O2  UNL     1      21.685  23.498   5.151  1.00  0.00    -0.301 OA
ENDBRANCH   8  16
BRANCH   7  18
HETATM   18  S1  UNL     1      23.698  23.291   7.821  1.00  0.00    -0.109 SA
BRANCH  18  19
HETATM   19  C9  UNL     1      25.157  23.963   8.668  1.00  0.00     0.107 C 
BRANCH  19  20
HETATM   20  C10 UNL     1      26.117  22.792   8.886  1.00  0.00     0.174 C 
BRANCH  20  21
HETATM   21  O1  UNL     1      26.121  21.934   7.796  1.00  0.00    -0.400 OA
ATOM     22  H1  UNL     1      25.517  21.212   7.922  1.00  0.00     0.209 HD
ENDBRANCH  20  21
ENDBRANCH  19  20
ENDBRANCH  18  19
ENDBRANCH   7  18
TORSDOF 6
ENDMDL
MODEL 2
REMARK VINA RESULT: -6.341476390      2.182      2.871
REMARK  6 active torsions:
REMARK  status: ('A' for Active; 'I' for Inactive)
REMARK    1  A    between atoms: C3_4  and  N2_5 
REMARK    2  A    between atoms: C8_12  and  S1_13 
REMARK    3  A    between atoms: S1_13  and  C9_14 
REMARK    4  A    between atoms: C9_14  and  C10_15 
REMARK    5  A    between atoms: C10_15  and  O1_16 
REMARK    6  A    between atoms: C11_18  and  C12_19 
ROOT
HETATM    1  N1  UNL     1      17.486  28.516  12.076  1.00  0.00    -0.191 NA
HETATM    2  C1  UNL     1      18.243  27.915  11.420  1.00  0.00     0.105 C 
HETATM    3  C2  UNL     1      19.196  27.187  10.617  1.00  0.00     0.110 A 
HETATM    4  C3  UNL     1      20.460  26.884  11.078  1.00  0.00     0.127 A 
HETATM    5  N3  UNL     1      21.306  26.201  10.293  1.00  0.00    -0.335 N 
ATOM      6  H3  UNL     1      22.238  25.984  10.647  1.00  0.00     0.168 HD
HETATM    7  C8  UNL     1      20.967  25.789   9.044  1.00  0.00     0.086 A 
HETATM    8  C11 UNL     1      19.727  26.068   8.551  1.00  0.00     0.058 A 
HETATM    9  C13 UNL     1      18.827  26.777   9.347  1.00  0.00     0.071 A 
HETATM   10  S2  UNL     1      17.341  27.104   8.732  1.00  0.00    -0.077 SA
ENDROOT
BRANCH   4  11
HETATM   11  N2  UNL     1      20.825  27.303  12.380  1.00  0.00    -0.366 N 
HETATM   12  C4  UNL     1      20.774  26.416  13.552  1.00  0.00     0.124 C 
HETATM   13  C5  UNL     1      20.622  27.411  14.680  1.00  0.00     0.021 C 
HETATM   14  C6  UNL     1      21.616  28.485  14.244  1.00  0.00     0.021 C 
HETATM   15  C7  UNL     1      21.290  28.618  12.783  1.00  0.00     0.124 C 
ENDBRANCH   4  11
BRANCH   8  16
HETATM   16  C12 UNL     1      19.345  25.646   7.218  1.00  0.00     0.274 C 
HETATM   17  O2  UNL     1      18.759  24.564   6.971  1.00  0.00    -0.301 OA
ENDBRANCH   8  16
BRANCH   7  18
HETATM   18  S1  UNL     1      22.176  24.889   8.108  1.00  0.00    -0.109 SA
BRANCH  18  19
HETATM   19  C9  UNL     1      21.749  23.127   7.999  1.00  0.00     0.107 C 
BRANCH  19  20
HETATM   20  C10 UNL     1      21.751  22.766   6.513  1.00  0.00     0.174 C 
BRANCH  20  21
HETATM   21  O1  UNL     1      22.558  23.627   5.786  1.00  0.00    -0.400 OA
ATOM     22  H1  UNL     1      23.298  23.925   6.301  1.00  0.00     0.209 HD
ENDBRANCH  20  21
ENDBRANCH  19  20
ENDBRANCH  18  19
ENDBRANCH   7  18
TORSDOF 6
ENDMDL
MODEL 3
REMARK VINA RESULT: -6.290539397      1.957      2.245
REMARK  6 active torsions:
REMARK  status: ('A' for Active; 'I' for Inactive)
REMARK    1  A    between atoms: C3_4  and  N2_5 
REMARK    2  A    between atoms: C8_12  and  S1_13 
REMARK    3  A    between atoms: S1_13  and  C9_14 
REMARK    4  A    between atoms: C9_14  and  C10_15 
REMARK    5  A    between atoms: C10_15  and  O1_16 
REMARK    6  A    between atoms: C11_18  and  C12_19 
ROOT
HETATM    1  N1  UNL     1      18.195  28.355  11.627  1.00  0.00    -0.191 NA
HETATM    2  C1  UNL     1      18.729  27.643  10.871  1.00  0.00     0.105 C 
HETATM    3  C2  UNL     1      19.409  26.777   9.939  1.00  0.00     0.110 A 
HETATM    4  C3  UNL     1      20.701  26.346  10.151  1.00  0.00     0.127 A 
HETATM    5  N3  UNL     1      21.287  25.538   9.256  1.00  0.00    -0.335 N 
ATOM      6  H3  UNL     1      22.244  25.227   9.425  1.00  0.00     0.168 HD
HETATM    7  C8  UNL     1      20.651  25.118   8.131  1.00  0.00     0.086 A 
HETATM    8  C11 UNL     1      19.372  25.520   7.885  1.00  0.00     0.058 A 
HETATM    9  C13 UNL     1      18.740  26.361   8.800  1.00  0.00     0.071 A 
HETATM   10  S2  UNL     1      17.202  26.835   8.481  1.00  0.00    -0.077 SA
ENDROOT
BRANCH   4  11
HETATM   11  N2  UNL     1      21.374  26.772  11.321  1.00  0.00    -0.366 N 
HETATM   12  C4  UNL     1      21.365  26.004  12.576  1.00  0.00     0.124 C 
HETATM   13  C5  UNL     1      21.622  27.088  13.598  1.00  0.00     0.021 C 
HETATM   14  C6  UNL     1      22.710  27.891  12.890  1.00  0.00     0.021 C 
HETATM   15  C7  UNL     1      22.155  27.984  11.497  1.00  0.00     0.124 C 
ENDBRANCH   4  11
BRANCH   8  16
HETATM   16  C12 UNL     1      18.676  25.093   6.687  1.00  0.00     0.274 C 
HETATM   17  O2  UNL     1      18.714  25.717   5.599  1.00  0.00    -0.301 OA
ENDBRANCH   8  16
BRANCH   7  18
HETATM   18  S1  UNL     1      21.534  24.044   7.028  1.00  0.00    -0.109 SA
BRANCH  18  19
HETATM   19  C9  UNL     1      22.888  23.189   7.883  1.00  0.00     0.107 C 
BRANCH  19  20
HETATM   20  C10 UNL     1      24.118  24.090   7.770  1.00  0.00     0.174 C 
BRANCH  20  21
HETATM   21  O1  UNL     1      24.244  24.914   8.878  1.00  0.00    -0.400 OA
ATOM     22  H1  UNL     1      25.156  25.100   9.069  1.00  0.00     0.209 HD
ENDBRANCH  20  21
ENDBRANCH  19  20
ENDBRANCH  18  19
ENDBRANCH   7  18
TORSDOF 6
ENDMDL
MODEL 4
REMARK VINA RESULT: -6.283659870      3.706      6.003
REMARK  6 active torsions:
REMARK  status: ('A' for Active; 'I' for Inactive)
REMARK    1  A    between atoms: C3_4  and  N2_5 
REMARK    2  A    between atoms: C8_12  and  S1_13 
REMARK    3  A    between atoms: S1_13  and  C9_14 
REMARK    4  A    between atoms: C9_14  and  C10_15 
REMARK    5  A    between atoms: C10_15  and  O1_16 
REMARK    6  A    between atoms: C11_18  and  C12_19 
ROOT
HETATM    1  N1  UNL     1      23.019  24.215   8.227  1.00  0.00    -0.191 NA
HETATM    2  C1  UNL     1      22.185  24.860   8.729  1.00  0.00     0.105 C 
HETATM    3  C2  UNL     1      21.160  25.648   9.371  1.00  0.00     0.110 A 
HETATM    4  C3  UNL     1      21.394  26.335  10.544  1.00  0.00     0.127 A 
HETATM    5  N3  UNL     1      20.409  27.056  11.098  1.00  0.00    -0.335 N 
ATOM      6  H3  UNL     1      20.595  27.559  11.966  1.00  0.00     0.168 HD
HETATM    7  C8  UNL     1      19.171  27.142  10.544  1.00  0.00     0.086 A 
HETATM    8  C11 UNL     1      18.899  26.478   9.385  1.00  0.00     0.058 A 
HETATM    9  C13 UNL     1      19.906  25.721   8.788  1.00  0.00     0.071 A 
HETATM   10  S2  UNL     1      19.555  24.929   7.394  1.00  0.00    -0.077 SA
ENDROOT
BRANCH   4  11
HETATM   11  N2  UNL     1      22.680  26.258  11.129  1.00  0.00    -0.366 N 
HETATM   12  C4  UNL     1      23.842  26.997  10.611  1.00  0.00     0.124 C 
HETATM   13  C5  UNL     1      24.989  26.145  11.105  1.00  0.00     0.021 C 
HETATM   14  C6  UNL     1      24.517  25.832  12.523  1.00  0.00     0.021 C 
HETATM   15  C7  UNL     1      23.077  25.476  12.286  1.00  0.00     0.124 C 
ENDBRANCH   4  11
BRANCH   8  16
HETATM   16  C12 UNL     1      17.584  26.547   8.780  1.00  0.00     0.274 C 
HETATM   17  O2  UNL     1      17.233  27.445   7.976  1.00  0.00    -0.301 OA
ENDBRANCH   8  16
BRANCH   7  18
HETATM   18  S1  UNL     1      17.956  28.134  11.373  1.00  0.00    -0.109 SA
BRANCH  18  19
HETATM   19  C9  UNL     1      18.626  28.863  12.896  1.00  0.00     0.107 C 
BRANCH  19  20
HETATM   20  C10 UNL     1      17.435  29.123  13.819  1.00  0.00     0.174 C 
BRANCH  20  21
HETATM   21  O1  UNL     1      16.410  29.773  13.148  1.00  0.00    -0.400 OA
ATOM     22  H1  UNL     1      15.995  30.426  13.700  1.00  0.00     0.209 HD
ENDBRANCH  20  21
ENDBRANCH  19  20
ENDBRANCH  18  19
ENDBRANCH   7  18
TORSDOF 6
ENDMDL
MODEL 5
REMARK VINA RESULT: -6.282079621      2.839      5.268
REMARK  6 active torsions:
REMARK  status: ('A' for Active; 'I' for Inactive)
REMARK    1  A    between atoms: C3_4  and  N2_5 
REMARK    2  A    between atoms: C8_12  and  S1_13 
REMARK    3  A    between atoms: S1_13  and  C9_14 
REMARK    4  A    between atoms: C9_14  and  C10_15 
REMARK    5  A    between atoms: C10_15  and  O1_16 
REMARK    6  A    between atoms: C11_18  and  C12_19 
ROOT
HETATM    1  N1  UNL     1      21.660  23.180   5.498  1.00  0.00    -0.191 NA
HETATM    2  C1  UNL     1      21.427  23.824   6.444  1.00  0.00     0.105 C 
HETATM    3  C2  UNL     1      21.150  24.604   7.626  1.00  0.00     0.110 A 
HETATM    4  C3  UNL     1      22.085  24.777   8.623  1.00  0.00     0.127 A 
HETATM    5  N3  UNL     1      21.779  25.515   9.700  1.00  0.00    -0.335 N 
ATOM      6  H3  UNL     1      22.481  25.634  10.431  1.00  0.00     0.168 HD
HETATM    7  C8  UNL     1      20.567  26.109   9.852  1.00  0.00     0.086 A 
HETATM    8  C11 UNL     1      19.614  25.964   8.888  1.00  0.00     0.058 A 
HETATM    9  C13 UNL     1      19.907  25.201   7.758  1.00  0.00     0.071 A 
HETATM   10  S2  UNL     1      18.744  25.037   6.612  1.00  0.00    -0.077 SA
ENDROOT
BRANCH   4  11
HETATM   11  N2  UNL     1      23.354  24.167   8.475  1.00  0.00    -0.366 N 
HETATM   12  C4  UNL     1      24.620  24.901   8.630  1.00  0.00     0.124 C 
HETATM   13  C5  UNL     1      25.562  24.061   7.797  1.00  0.00     0.021 C 
HETATM   14  C6  UNL     1      25.128  22.657   8.211  1.00  0.00     0.021 C 
HETATM   15  C7  UNL     1      23.632  22.778   8.157  1.00  0.00     0.124 C 
ENDBRANCH   4  11
BRANCH   8  16
HETATM   16  C12 UNL     1      18.311  26.581   9.032  1.00  0.00     0.274 C 
HETATM   17  O2  UNL     1      18.049  27.750   8.657  1.00  0.00    -0.301 OA
ENDBRANCH   8  16
BRANCH   7  18
HETATM   18  S1  UNL     1      20.288  27.065  11.321  1.00  0.00    -0.109 SA
BRANCH  18  19
HETATM   19  C9  UNL     1      21.136  28.668  11.236  1.00  0.00     0.107 C 
BRANCH  19  20
HETATM   20  C10 UNL     1      22.572  28.431  11.707  1.00  0.00     0.174 C 
BRANCH  20  21
HETATM   21  O1  UNL     1      23.386  28.028  10.659  1.00  0.00    -0.400 OA
ATOM     22  H1  UNL     1      24.077  28.659  10.495  1.00  0.00     0.209 HD
ENDBRANCH  20  21
ENDBRANCH  19  20
ENDBRANCH  18  19
ENDBRANCH   7  18
TORSDOF 6
ENDMDL
