MODEL 1
REMARK VINA RESULT: -6.943751616      0.000      0.000
REMARK  6 active torsions:
REMARK  status: ('A' for Active; 'I' for Inactive)
REMARK    1  A    between atoms: C2_2  and  C3_3 
REMARK    2  A    between atoms: C3_3  and  C4_4 
REMARK    3  A    between atoms: C4_4  and  N1_5 
REMARK    4  A    between atoms: C5_10  and  N4_11 
REMARK    5  A    between atoms: N4_11  and  O1_13 
REMARK    6  A    between atoms: C6_15  and  C7_16 
ROOT
HETATM    1  N1  UNL     1      20.971  24.260   7.326  1.00  0.00    -0.274 N 
HETATM    2  N2  UNL     1      21.516  23.655   6.262  1.00  0.00    -0.239 N 
ATOM      3  H2  UNL     1      20.980  23.292   5.475  1.00  0.00     0.208 HD
HETATM    4  N3  UNL     1      22.810  23.587   6.354  1.00  0.00    -0.268 N 
ATOM      5  H3  UNL     1      23.437  23.169   5.666  1.00  0.00     0.190 HD
HETATM    6  C5  UNL     1      23.173  24.151   7.491  1.00  0.00     0.169 A 
HETATM    7  C6  UNL     1      21.991  24.586   8.117  1.00  0.00     0.127 A 
ENDROOT
BRANCH   7   8
HETATM    8  C7  UNL     1      22.039  25.231   9.424  1.00  0.00     0.344 C 
HETATM    9  N5  UNL     1      21.342  24.597  10.509  1.00  0.00    -0.326 N 
HETATM   10  C8  UNL     1      21.417  25.598  11.567  1.00  0.00     0.256 C 
ATOM     11  H5  UNL     1      20.904  23.675  10.533  1.00  0.00     0.165 HD
HETATM   12  O2  UNL     1      21.531  25.363  12.787  1.00  0.00    -0.271 OA
HETATM   13  C9  UNL     1      21.327  26.901  10.857  1.00  0.00     0.208 C 
HETATM   14  C10 UNL     1      22.289  27.900  11.404  1.00  0.00     0.049 C 
HETATM   15  C14 UNL     1      19.881  27.356  10.966  1.00  0.00     0.049 C 
HETATM   16  N6  UNL     1      21.559  26.598   9.453  1.00  0.00    -0.031 N 
HETATM   17  C11 UNL     1      21.763  29.299  11.453  1.00  0.00     0.003 C 
HETATM   18  C12 UNL     1      20.429  29.430  12.110  1.00  0.00     0.000 C 
HETATM   19  C13 UNL     1      19.742  28.080  12.289  1.00  0.00     0.003 C 
ATOM     20  H62 UNL     1      22.181  27.260   8.988  1.00  0.00     0.281 HD
ATOM     21  H61 UNL     1      20.745  26.760   8.859  1.00  0.00     0.281 HD
ENDBRANCH   7   8
BRANCH   1  22
HETATM   22  C4  UNL     1      19.582  24.472   7.579  1.00  0.00     0.150 C 
BRANCH  22  23
HETATM   23  C3  UNL     1      19.022  25.663   6.836  1.00  0.00     0.021 C 
BRANCH  23  24
HETATM   24  C2  UNL     1      17.974  26.397   7.616  1.00  0.00    -0.003 C 
HETATM   25  C1  UNL     1      17.654  25.578   8.848  1.00  0.00     0.005 C 
ENDBRANCH  23  24
ENDBRANCH  22  23
ENDBRANCH   1  22
BRANCH   6  26
HETATM   26  N4  UNL     1      24.512  24.266   7.939  1.00  0.00    -0.250 N 
ATOM     27  H4  UNL     1      24.698  24.435   8.928  1.00  0.00     0.196 HD
BRANCH  26  28
HETATM   28  O1  UNL     1      25.462  24.165   7.148  1.00  0.00    -0.288 OA
ATOM     29  H1  UNL     1      26.334  24.450   7.391  1.00  0.00     0.244 HD
ENDBRANCH  26  28
ENDBRANCH   6  26
TORSDOF 6
ENDMDL
MODEL 2
REMARK VINA RESULT: -6.943304401      1.497      2.041
REMARK  6 active torsions:
REMARK  status: ('A' for Active; 'I' for Inactive)
REMARK    1  A    between atoms: C2_2  and  C3_3 
REMARK    2  A    between atoms: C3_3  and  C4_4 
REMARK    3  A    between atoms: C4_4  and  N1_5 
REMARK    4  A    between atoms: C5_10  and  N4_11 
REMARK    5  A    between atoms: N4_11  and  O1_13 
REMARK    6  A    between atoms: C6_15  and  C7_16 
ROOT
HETATM    1  N1  UNL     1      20.502  24.731   7.244  1.00  0.00    -0.274 N 
HETATM    2  N2  UNL     1      20.588  24.052   6.093  1.00  0.00    -0.239 N 
ATOM      3  H2  UNL     1      19.898  24.109   5.344  1.00  0.00     0.208 HD
HETATM    4  N3  UNL     1      21.654  23.311   6.045  1.00  0.00    -0.268 N 
ATOM      5  H3  UNL     1      21.929  22.707   5.271  1.00  0.00     0.190 HD
HETATM    6  C5  UNL     1      22.321  23.476   7.172  1.00  0.00     0.169 A 
HETATM    7  C6  UNL     1      21.582  24.391   7.945  1.00  0.00     0.127 A 
ENDROOT
BRANCH   7   8
HETATM    8  C7  UNL     1      22.034  24.769   9.279  1.00  0.00     0.344 C 
HETATM    9  N5  UNL     1      21.040  25.194  10.226  1.00  0.00    -0.326 N 
HETATM   10  C8  UNL     1      21.847  25.689  11.335  1.00  0.00     0.256 C 
ATOM     11  H5  UNL     1      20.024  25.159  10.142  1.00  0.00     0.165 HD
HETATM   12  O2  UNL     1      21.558  25.596  12.547  1.00  0.00    -0.271 OA
HETATM   13  C9  UNL     1      23.038  26.302  10.690  1.00  0.00     0.208 C 
HETATM   14  C10 UNL     1      24.297  25.964  11.413  1.00  0.00     0.049 C 
HETATM   15  C14 UNL     1      22.777  27.798  10.629  1.00  0.00     0.049 C 
HETATM   16  N6  UNL     1      23.026  25.825   9.316  1.00  0.00    -0.031 N 
HETATM   17  C11 UNL     1      25.294  27.077  11.465  1.00  0.00     0.003 C 
HETATM   18  C12 UNL     1      24.738  28.377  11.943  1.00  0.00     0.000 C 
HETATM   19  C13 UNL     1      23.213  28.379  11.958  1.00  0.00     0.003 C 
ATOM     20  H62 UNL     1      23.943  25.537   8.974  1.00  0.00     0.281 HD
ATOM     21  H61 UNL     1      22.866  26.561   8.628  1.00  0.00     0.281 HD
ENDBRANCH   7   8
BRANCH   1  22
HETATM   22  C4  UNL     1      19.449  25.604   7.654  1.00  0.00     0.150 C 
BRANCH  22  23
HETATM   23  C3  UNL     1      18.193  24.865   8.056  1.00  0.00     0.021 C 
BRANCH  23  24
HETATM   24  C2  UNL     1      17.368  25.618   9.053  1.00  0.00    -0.003 C 
HETATM   25  C1  UNL     1      17.608  27.097   8.834  1.00  0.00     0.005 C 
ENDBRANCH  23  24
ENDBRANCH  22  23
ENDBRANCH   1  22
BRANCH   6  26
HETATM   26  N4  UNL     1      23.542  22.829   7.486  1.00  0.00    -0.250 N 
ATOM     27  H4  UNL     1      23.549  21.823   7.652  1.00  0.00     0.196 HD
BRANCH  26  28
HETATM   28  O1  UNL     1      24.603  23.467   7.560  1.00  0.00    -0.288 OA
ATOM     29  H1  UNL     1      24.749  24.092   8.261  1.00  0.00     0.244 HD
ENDBRANCH  26  28
ENDBRANCH   6  26
TORSDOF 6
ENDMDL
MODEL 3
REMARK VINA RESULT: -6.924198175      1.377      1.934
REMARK  6 active torsions:
REMARK  status: ('A' for Active; 'I' for Inactive)
REMARK    1  A    between atoms: C2_2  and  C3_3 
REMARK    2  A    between atoms: C3_3  and  C4_4 
REMARK    3  A    between atoms: C4_4  and  N1_5 
REMARK    4  A    between atoms: C5_10  and  N4_11 
REMARK    5  A    between atoms: N4_11  and  O1_13 
REMARK    6  A    between atoms: C6_15  and  C7_16 
ROOT
HETATM    1  N1  UNL     1      20.281  24.598   6.803  1.00  0.00    -0.274 N 
HETATM    2  N2  UNL     1      20.556  23.572   5.987  1.00  0.00    -0.239 N 
ATOM      3  H2  UNL     1      19.903  23.197   5.300  1.00  0.00     0.208 HD
HETATM    4  N3  UNL     1      21.756  23.112   6.177  1.00  0.00    -0.268 N 
ATOM      5  H3  UNL     1      22.185  22.334   5.674  1.00  0.00     0.190 HD
HETATM    6  C5  UNL     1      22.325  23.823   7.131  1.00  0.00     0.169 A 
HETATM    7  C6  UNL     1      21.377  24.782   7.536  1.00  0.00     0.127 A 
ENDROOT
BRANCH   7   8
HETATM    8  C7  UNL     1      21.682  25.718   8.611  1.00  0.00     0.344 C 
HETATM    9  N5  UNL     1      23.026  25.740   9.118  1.00  0.00    -0.326 N 
HETATM   10  C8  UNL     1      22.912  26.600  10.290  1.00  0.00     0.256 C 
ATOM     11  H5  UNL     1      23.854  25.270   8.750  1.00  0.00     0.165 HD
HETATM   12  O2  UNL     1      23.782  27.398  10.698  1.00  0.00    -0.271 OA
HETATM   13  C9  UNL     1      21.567  26.301  10.847  1.00  0.00     0.208 C 
HETATM   14  C10 UNL     1      20.855  27.539  11.277  1.00  0.00     0.049 C 
HETATM   15  C14 UNL     1      21.776  25.316  11.985  1.00  0.00     0.049 C 
HETATM   16  N6  UNL     1      20.863  25.577   9.799  1.00  0.00    -0.031 N 
HETATM   17  C11 UNL     1      20.041  27.379  12.521  1.00  0.00     0.003 C 
HETATM   18  C12 UNL     1      20.779  26.764  13.663  1.00  0.00     0.000 C 
HETATM   19  C13 UNL     1      22.094  26.130  13.222  1.00  0.00     0.003 C 
ATOM     20  H62 UNL     1      19.897  25.879   9.669  1.00  0.00     0.281 HD
ATOM     21  H61 UNL     1      20.654  24.608  10.040  1.00  0.00     0.281 HD
ENDBRANCH   7   8
BRANCH   1  22
HETATM   22  C4  UNL     1      19.051  25.316   6.899  1.00  0.00     0.150 C 
BRANCH  22  23
HETATM   23  C3  UNL     1      18.064  24.674   7.848  1.00  0.00     0.021 C 
BRANCH  23  24
HETATM   24  C2  UNL     1      17.551  25.624   8.886  1.00  0.00    -0.003 C 
HETATM   25  C1  UNL     1      17.798  27.033   8.390  1.00  0.00     0.005 C 
ENDBRANCH  23  24
ENDBRANCH  22  23
ENDBRANCH   1  22
BRANCH   6  26
HETATM   26  N4  UNL     1      23.641  23.615   7.614  1.00  0.00    -0.250 N 
ATOM     27  H4  UNL     1      23.793  22.985   8.401  1.00  0.00     0.196 HD
BRANCH  26  28
HETATM   28  O1  UNL     1      24.610  24.186   7.093  1.00  0.00    -0.288 OA
ATOM     29  H1  UNL     1      25.363  23.694   6.789  1.00  0.00     0.244 HD
ENDBRANCH  26  28
ENDBRANCH   6  26
TORSDOF 6
ENDMDL
MODEL 4
REMARK VINA RESULT: -6.833549661      3.397      6.516
REMARK  6 active torsions:
REMARK  status: ('A' for Active; 'I' for Inactive)
REMARK    1  A    between atoms: C2_2  and  C3_3 
REMARK    2  A    between atoms: C3_3  and  C4_4 
REMARK    3  A    between atoms: C4_4  and  N1_5 
REMARK    4  A    between atoms: C5_10  and  N4_11 
REMARK    5  A    between atoms: N4_11  and  O1_13 
REMARK    6  A    between atoms: C6_15  and  C7_16 
ROOT
HETATM    1  N1  UNL     1      19.055  29.672  13.383  1.00  0.00    -0.274 N 
HETATM    2  N2  UNL     1      19.338  30.975  13.508  1.00  0.00    -0.239 N 
ATOM      3  H2  UNL     1      18.743  31.645  13.994  1.00  0.00     0.208 HD
HETATM    4  N3  UNL     1      20.462  31.283  12.935  1.00  0.00    -0.268 N 
ATOM      5  H3  UNL     1      20.880  32.213  12.899  1.00  0.00     0.190 HD
HETATM    6  C5  UNL     1      20.970  30.185  12.407  1.00  0.00     0.169 A 
HETATM    7  C6  UNL     1      20.066  29.146  12.695  1.00  0.00     0.127 A 
ENDROOT
BRANCH   7   8
HETATM    8  C7  UNL     1      20.317  27.791  12.219  1.00  0.00     0.344 C 
HETATM    9  N5  UNL     1      21.322  27.020  12.897  1.00  0.00    -0.326 N 
HETATM   10  C8  UNL     1      21.454  25.845  12.042  1.00  0.00     0.256 C 
ATOM     11  H5  UNL     1      21.818  27.238  13.762  1.00  0.00     0.165 HD
HETATM   12  O2  UNL     1      21.685  24.681  12.431  1.00  0.00    -0.271 OA
HETATM   13  C9  UNL     1      21.256  26.361  10.662  1.00  0.00     0.208 C 
HETATM   14  C10 UNL     1      20.400  25.453   9.847  1.00  0.00     0.049 C 
HETATM   15  C14 UNL     1      22.642  26.557  10.068  1.00  0.00     0.049 C 
HETATM   16  N6  UNL     1      20.684  27.690  10.821  1.00  0.00    -0.031 N 
HETATM   17  C11 UNL     1      20.815  25.339   8.415  1.00  0.00     0.003 C 
HETATM   18  C12 UNL     1      22.261  25.028   8.217  1.00  0.00     0.000 C 
HETATM   19  C13 UNL     1      23.070  25.222   9.495  1.00  0.00     0.003 C 
ATOM     20  H62 UNL     1      19.914  27.883  10.180  1.00  0.00     0.281 HD
ATOM     21  H61 UNL     1      21.297  28.440  10.502  1.00  0.00     0.281 HD
ENDBRANCH   7   8
BRANCH   1  22
HETATM   22  C4  UNL     1      17.888  28.995  13.852  1.00  0.00     0.150 C 
BRANCH  22  23
HETATM   23  C3  UNL     1      17.028  29.855  14.751  1.00  0.00     0.021 C 
BRANCH  23  24
HETATM   24  C2  UNL     1      15.627  30.006  14.246  1.00  0.00    -0.003 C 
HETATM   25  C1  UNL     1      15.308  31.485  14.193  1.00  0.00     0.005 C 
ENDBRANCH  23  24
ENDBRANCH  22  23
ENDBRANCH   1  22
BRANCH   6  26
HETATM   26  N4  UNL     1      22.195  30.127  11.697  1.00  0.00    -0.250 N 
ATOM     27  H4  UNL     1      22.329  30.718  10.876  1.00  0.00     0.196 HD
BRANCH  26  28
HETATM   28  O1  UNL     1      23.108  29.370  12.058  1.00  0.00    -0.288 OA
ATOM     29  H1  UNL     1      23.534  29.484  12.899  1.00  0.00     0.244 HD
ENDBRANCH  26  28
ENDBRANCH   6  26
TORSDOF 6
ENDMDL
MODEL 5
REMARK VINA RESULT: -6.704707851      1.926      2.586
REMARK  6 active torsions:
REMARK  status: ('A' for Active; 'I' for Inactive)
REMARK    1  A    between atoms: C2_2  and  C3_3 
REMARK    2  A    between atoms: C3_3  and  C4_4 
REMARK    3  A    between atoms: C4_4  and  N1_5 
REMARK    4  A    between atoms: C5_10  and  N4_11 
REMARK    5  A    between atoms: N4_11  and  O1_13 
REMARK    6  A    between atoms: C6_15  and  C7_16 
ROOT
HETATM    1  N1  UNL     1      21.300  24.705   7.626  1.00  0.00    -0.274 N 
HETATM    2  N2  UNL     1      21.343  24.017   6.477  1.00  0.00    -0.239 N 
ATOM      3  H2  UNL     1      20.617  24.054   5.762  1.00  0.00     0.208 HD
HETATM    4  N3  UNL     1      22.421  23.299   6.383  1.00  0.00    -0.268 N 
ATOM      5  H3  UNL     1      22.670  22.693   5.601  1.00  0.00     0.190 HD
HETATM    6  C5  UNL     1      23.139  23.487   7.475  1.00  0.00     0.169 A 
HETATM    7  C6  UNL     1      22.420  24.394   8.276  1.00  0.00     0.127 A 
ENDROOT
BRANCH   7   8
HETATM    8  C7  UNL     1      22.928  24.793   9.583  1.00  0.00     0.344 C 
HETATM    9  N5  UNL     1      22.013  25.424  10.492  1.00  0.00    -0.326 N 
HETATM   10  C8  UNL     1      22.888  25.871  11.569  1.00  0.00     0.256 C 
ATOM     11  H5  UNL     1      21.002  25.532  10.406  1.00  0.00     0.165 HD
HETATM   12  O2  UNL     1      22.595  25.904  12.783  1.00  0.00    -0.271 OA
HETATM   13  C9  UNL     1      24.153  26.256  10.890  1.00  0.00     0.208 C 
HETATM   14  C10 UNL     1      25.353  25.787  11.641  1.00  0.00     0.049 C 
HETATM   15  C14 UNL     1      24.115  27.766  10.724  1.00  0.00     0.049 C 
HETATM   16  N6  UNL     1      24.065  25.691   9.552  1.00  0.00    -0.031 N 
HETATM   17  C11 UNL     1      26.503  26.743  11.622  1.00  0.00     0.003 C 
HETATM   18  C12 UNL     1      26.146  28.140  12.006  1.00  0.00     0.000 C 
HETATM   19  C13 UNL     1      24.638  28.367  12.012  1.00  0.00     0.003 C 
ATOM     20  H62 UNL     1      24.928  25.249   9.236  1.00  0.00     0.281 HD
ATOM     21  H61 UNL     1      24.012  26.394   8.814  1.00  0.00     0.281 HD
ENDBRANCH   7   8
BRANCH   1  22
HETATM   22  C4  UNL     1      20.251  25.560   8.080  1.00  0.00     0.150 C 
BRANCH  22  23
HETATM   23  C3  UNL     1      19.078  25.611   7.127  1.00  0.00     0.021 C 
BRANCH  23  24
HETATM   24  C2  UNL     1      17.923  26.398   7.665  1.00  0.00    -0.003 C 
HETATM   25  C1  UNL     1      17.498  25.765   8.973  1.00  0.00     0.005 C 
ENDBRANCH  23  24
ENDBRANCH  22  23
ENDBRANCH   1  22
BRANCH   6  26
HETATM   26  N4  UNL     1      24.387  22.868   7.732  1.00  0.00    -0.250 N 
ATOM     27  H4  UNL     1      24.412  21.896   8.039  1.00  0.00     0.196 HD
BRANCH  26  28
HETATM   28  O1  UNL     1      25.450  23.490   7.591  1.00  0.00    -0.288 OA
ATOM     29  H1  UNL     1      26.289  23.054   7.686  1.00  0.00     0.244 HD
ENDBRANCH  26  28
ENDBRANCH   6  26
TORSDOF 6
ENDMDL
