MODEL 1
REMARK VINA RESULT: -6.523447732      0.000      0.000
REMARK  7 active torsions:
REMARK  status: ('A' for Active; 'I' for Inactive)
REMARK    1  A    between atoms: C2_4  and  C3_6 
REMARK    2  A    between atoms: C3_6  and  N3_8 
REMARK    3  A    between atoms: C3_6  and  C8_13 
REMARK    4  A    between atoms: N3_8  and  C5_10 
REMARK    5  A    between atoms: N4_15  and  C10_16 
REMARK    6  A    between atoms: C15_23  and  N6_24 
REMARK    7  A    between atoms: N6_24  and  O1_26 
ROOT
HETATM    1  C8  UNL     1      20.961  28.362  12.731  1.00  0.00     0.041 A 
HETATM    2  C9  UNL     1      21.240  27.311  11.880  1.00  0.00     0.124 A 
HETATM    3  N4  UNL     1      21.850  27.749  10.780  1.00  0.00    -0.296 N 
HETATM    4  N5  UNL     1      21.964  29.032  10.907  1.00  0.00    -0.281 N 
ATOM      5  H5  UNL     1      22.396  29.640  10.211  1.00  0.00     0.189 HD
HETATM    6  C15 UNL     1      21.446  29.465  12.066  1.00  0.00     0.150 A 
ENDROOT
BRANCH   1   7
HETATM    7  C3  UNL     1      20.310  28.282  14.056  1.00  0.00     0.111 C 
HETATM    8  C4  UNL     1      20.212  26.768  14.354  1.00  0.00     0.052 C 
BRANCH   7   9
HETATM    9  C2  UNL     1      21.275  28.784  15.084  1.00  0.00     0.121 C 
HETATM   10  N1  UNL     1      22.141  28.004  15.639  1.00  0.00    -0.384 N 
HETATM   11  C1  UNL     1      23.054  28.506  16.616  1.00  0.00     0.147 C 
ATOM     12  H1  UNL     1      22.173  27.019  15.377  1.00  0.00     0.160 HD
HETATM   13  N2  UNL     1      21.321  30.134  15.525  1.00  0.00    -0.085 NA
ENDBRANCH   7   9
BRANCH   7  14
HETATM   14  N3  UNL     1      19.117  28.956  14.241  1.00  0.00    -0.400 N 
ATOM     15  H3  UNL     1      19.183  29.831  14.761  1.00  0.00     0.155 HD
BRANCH  14  16
HETATM   16  C5  UNL     1      17.865  28.612  13.825  1.00  0.00     0.070 C 
HETATM   17  C6  UNL     1      16.695  29.461  14.353  1.00  0.00     0.031 C 
HETATM   18  C7  UNL     1      17.596  28.440  12.355  1.00  0.00     0.031 C 
ENDBRANCH  14  16
ENDBRANCH   7  14
ENDBRANCH   1   7
BRANCH   6  19
HETATM   19  N6  UNL     1      21.414  30.836  12.475  1.00  0.00    -0.251 N 
ATOM     20  H6  UNL     1      22.265  31.384  12.603  1.00  0.00     0.196 HD
BRANCH  19  21
HETATM   21  O1  UNL     1      20.269  31.326  12.667  1.00  0.00    -0.288 OA
ATOM     22  H1  UNL     1      20.225  32.273  12.708  1.00  0.00     0.244 HD
ENDBRANCH  19  21
ENDBRANCH   6  19
BRANCH   3  23
HETATM   23  C10 UNL     1      22.280  26.880   9.674  1.00  0.00     0.107 C 
HETATM   24  C11 UNL     1      21.372  25.660   9.601  1.00  0.00     0.027 C 
HETATM   25  C12 UNL     1      22.175  24.731   8.711  1.00  0.00     0.002 C 
HETATM   26  C13 UNL     1      23.622  25.096   8.938  1.00  0.00     0.002 C 
HETATM   27  C14 UNL     1      23.615  26.262   9.924  1.00  0.00     0.027 C 
ENDBRANCH   3  23
TORSDOF 7
ENDMDL
MODEL 2
REMARK VINA RESULT: -6.491258362      1.919      2.481
REMARK  7 active torsions:
REMARK  status: ('A' for Active; 'I' for Inactive)
REMARK    1  A    between atoms: C2_4  and  C3_6 
REMARK    2  A    between atoms: C3_6  and  N3_8 
REMARK    3  A    between atoms: C3_6  and  C8_13 
REMARK    4  A    between atoms: N3_8  and  C5_10 
REMARK    5  A    between atoms: N4_15  and  C10_16 
REMARK    6  A    between atoms: C15_23  and  N6_24 
REMARK    7  A    between atoms: N6_24  and  O1_26 
ROOT
HETATM    1  C8  UNL     1      19.333  28.724  12.566  1.00  0.00     0.041 A 
HETATM    2  C9  UNL     1      18.797  27.833  11.656  1.00  0.00     0.124 A 
HETATM    3  N4  UNL     1      19.327  28.022  10.449  1.00  0.00    -0.296 N 
HETATM    4  N5  UNL     1      20.173  28.995  10.565  1.00  0.00    -0.281 N 
ATOM      5  H5  UNL     1      20.733  29.361   9.795  1.00  0.00     0.189 HD
HETATM    6  C15 UNL     1      20.223  29.463  11.821  1.00  0.00     0.150 A 
ENDROOT
BRANCH   1   7
HETATM    7  C3  UNL     1      19.016  28.819  14.007  1.00  0.00     0.111 C 
HETATM    8  C4  UNL     1      18.257  27.510  14.328  1.00  0.00     0.052 C 
BRANCH   7   9
HETATM    9  C2  UNL     1      20.292  28.688  14.777  1.00  0.00     0.121 C 
HETATM   10  N1  UNL     1      20.878  27.548  14.928  1.00  0.00    -0.384 N 
HETATM   11  C1  UNL     1      22.098  27.447  15.666  1.00  0.00     0.147 C 
ATOM     12  H1  UNL     1      20.467  26.710  14.518  1.00  0.00     0.160 HD
HETATM   13  N2  UNL     1      20.955  29.784  15.391  1.00  0.00    -0.085 NA
ENDBRANCH   7   9
BRANCH   7  14
HETATM   14  N3  UNL     1      18.370  29.953  14.462  1.00  0.00    -0.400 N 
ATOM     15  H3  UNL     1      18.929  30.807  14.461  1.00  0.00     0.155 HD
BRANCH  14  16
HETATM   16  C5  UNL     1      17.090  30.088  14.911  1.00  0.00     0.070 C 
HETATM   17  C6  UNL     1      16.791  31.295  15.818  1.00  0.00     0.031 C 
HETATM   18  C7  UNL     1      15.952  30.043  13.927  1.00  0.00     0.031 C 
ENDBRANCH  14  16
ENDBRANCH   7  14
ENDBRANCH   1   7
BRANCH   6  19
HETATM   19  N6  UNL     1      21.055  30.547  12.247  1.00  0.00    -0.251 N 
ATOM     20  H6  UNL     1      22.073  30.504  12.191  1.00  0.00     0.196 HD
BRANCH  19  21
HETATM   21  O1  UNL     1      20.453  31.559  12.694  1.00  0.00    -0.288 OA
ATOM     22  H1  UNL     1      20.826  31.952  13.474  1.00  0.00     0.244 HD
ENDBRANCH  19  21
ENDBRANCH   6  19
BRANCH   3  23
HETATM   23  C10 UNL     1      18.969  27.235   9.259  1.00  0.00     0.107 C 
HETATM   24  C11 UNL     1      17.650  26.513   9.503  1.00  0.00     0.027 C 
HETATM   25  C12 UNL     1      17.648  25.489   8.384  1.00  0.00     0.002 C 
HETATM   26  C13 UNL     1      19.100  25.199   8.093  1.00  0.00     0.002 C 
HETATM   27  C14 UNL     1      19.908  26.101   9.024  1.00  0.00     0.027 C 
ENDBRANCH   3  23
TORSDOF 7
ENDMDL
MODEL 3
REMARK VINA RESULT: -6.441402575      2.654      4.306
REMARK  7 active torsions:
REMARK  status: ('A' for Active; 'I' for Inactive)
REMARK    1  A    between atoms: C2_4  and  C3_6 
REMARK    2  A    between atoms: C3_6  and  N3_8 
REMARK    3  A    between atoms: C3_6  and  C8_13 
REMARK    4  A    between atoms: N3_8  and  C5_10 
REMARK    5  A    between atoms: N4_15  and  C10_16 
REMARK    6  A    between atoms: C15_23  and  N6_24 
REMARK    7  A    between atoms: N6_24  and  O1_26 
ROOT
HETATM    1  C8  UNL     1      20.708  27.056  11.443  1.00  0.00     0.041 A 
HETATM    2  C9  UNL     1      20.300  27.171  10.128  1.00  0.00     0.124 A 
HETATM    3  N4  UNL     1      20.574  26.054   9.455  1.00  0.00    -0.296 N 
HETATM    4  N5  UNL     1      21.136  25.245  10.294  1.00  0.00    -0.281 N 
ATOM      5  H5  UNL     1      21.457  24.306  10.056  1.00  0.00     0.189 HD
HETATM    6  C15 UNL     1      21.247  25.791  11.514  1.00  0.00     0.150 A 
ENDROOT
BRANCH   1   7
HETATM    7  C3  UNL     1      20.563  28.070  12.509  1.00  0.00     0.111 C 
HETATM    8  C4  UNL     1      19.929  29.292  11.804  1.00  0.00     0.052 C 
BRANCH   7   9
HETATM    9  C2  UNL     1      19.496  27.611  13.451  1.00  0.00     0.121 C 
HETATM   10  N1  UNL     1      18.265  27.972  13.309  1.00  0.00    -0.384 N 
HETATM   11  C1  UNL     1      17.262  27.518  14.220  1.00  0.00     0.147 C 
ATOM     12  H1  UNL     1      18.005  28.587  12.538  1.00  0.00     0.160 HD
HETATM   13  N2  UNL     1      19.741  26.755  14.558  1.00  0.00    -0.085 NA
ENDBRANCH   7   9
BRANCH   7  14
HETATM   14  N3  UNL     1      21.676  28.390  13.264  1.00  0.00    -0.400 N 
ATOM     15  H3  UNL     1      21.743  27.922  14.169  1.00  0.00     0.155 HD
BRANCH  14  16
HETATM   16  C5  UNL     1      22.697  29.244  12.968  1.00  0.00     0.070 C 
HETATM   17  C6  UNL     1      23.220  30.132  14.110  1.00  0.00     0.031 C 
HETATM   18  C7  UNL     1      23.928  28.715  12.284  1.00  0.00     0.031 C 
ENDBRANCH  14  16
ENDBRANCH   7  14
ENDBRANCH   1   7
BRANCH   6  19
HETATM   19  N6  UNL     1      21.842  25.139  12.641  1.00  0.00    -0.251 N 
ATOM     20  H6  UNL     1      21.346  24.432  13.183  1.00  0.00     0.196 HD
BRANCH  19  21
HETATM   21  O1  UNL     1      23.019  25.493  12.922  1.00  0.00    -0.288 OA
ATOM     22  H1  UNL     1      23.708  24.912  12.624  1.00  0.00     0.244 HD
ENDBRANCH  19  21
ENDBRANCH   6  19
BRANCH   3  23
HETATM   23  C10 UNL     1      20.265  25.854   8.031  1.00  0.00     0.107 C 
HETATM   24  C11 UNL     1      18.761  25.951   7.816  1.00  0.00     0.027 C 
HETATM   25  C12 UNL     1      18.607  25.348   6.434  1.00  0.00     0.002 C 
HETATM   26  C13 UNL     1      19.745  24.369   6.286  1.00  0.00     0.002 C 
HETATM   27  C14 UNL     1      20.558  24.464   7.576  1.00  0.00     0.027 C 
ENDBRANCH   3  23
TORSDOF 7
ENDMDL
MODEL 4
REMARK VINA RESULT: -6.428212750      1.733      2.376
REMARK  7 active torsions:
REMARK  status: ('A' for Active; 'I' for Inactive)
REMARK    1  A    between atoms: C2_4  and  C3_6 
REMARK    2  A    between atoms: C3_6  and  N3_8 
REMARK    3  A    between atoms: C3_6  and  C8_13 
REMARK    4  A    between atoms: N3_8  and  C5_10 
REMARK    5  A    between atoms: N4_15  and  C10_16 
REMARK    6  A    between atoms: C15_23  and  N6_24 
REMARK    7  A    between atoms: N6_24  and  O1_26 
ROOT
HETATM    1  C8  UNL     1      20.316  28.113  11.460  1.00  0.00     0.041 A 
HETATM    2  C9  UNL     1      20.158  27.025  10.622  1.00  0.00     0.124 A 
HETATM    3  N4  UNL     1      21.106  27.015   9.687  1.00  0.00    -0.296 N 
HETATM    4  N5  UNL     1      21.851  28.050   9.903  1.00  0.00    -0.281 N 
ATOM      5  H5  UNL     1      22.663  28.300   9.337  1.00  0.00     0.189 HD
HETATM    6  C15 UNL     1      21.426  28.756  10.962  1.00  0.00     0.150 A 
ENDROOT
BRANCH   1   7
HETATM    7  C3  UNL     1      19.479  28.463  12.627  1.00  0.00     0.111 C 
HETATM    8  C4  UNL     1      18.113  27.796  12.343  1.00  0.00     0.052 C 
BRANCH   7   9
HETATM    9  C2  UNL     1      19.998  27.717  13.816  1.00  0.00     0.121 C 
HETATM   10  N1  UNL     1      21.228  27.818  14.195  1.00  0.00    -0.384 N 
HETATM   11  C1  UNL     1      21.701  27.098  15.335  1.00  0.00     0.147 C 
ATOM     12  H1  UNL     1      21.869  28.417  13.676  1.00  0.00     0.160 HD
HETATM   13  N2  UNL     1      19.198  26.855  14.613  1.00  0.00    -0.085 NA
ENDBRANCH   7   9
BRANCH   7  14
HETATM   14  N3  UNL     1      19.376  29.794  12.983  1.00  0.00    -0.400 N 
ATOM     15  H3  UNL     1      19.441  30.462  12.215  1.00  0.00     0.155 HD
BRANCH  14  16
HETATM   16  C5  UNL     1      19.199  30.339  14.221  1.00  0.00     0.070 C 
HETATM   17  C6  UNL     1      20.060  31.564  14.576  1.00  0.00     0.031 C 
HETATM   18  C7  UNL     1      17.810  30.685  14.685  1.00  0.00     0.031 C 
ENDBRANCH  14  16
ENDBRANCH   7  14
ENDBRANCH   1   7
BRANCH   6  19
HETATM   19  N6  UNL     1      22.042  29.961  11.430  1.00  0.00    -0.251 N 
ATOM     20  H6  UNL     1      22.071  30.810  10.865  1.00  0.00     0.196 HD
BRANCH  19  21
HETATM   21  O1  UNL     1      22.546  29.907  12.584  1.00  0.00    -0.288 OA
ATOM     22  H1  UNL     1      23.059  30.662  12.847  1.00  0.00     0.244 HD
ENDBRANCH  19  21
ENDBRANCH   6  19
BRANCH   3  23
HETATM   23  C10 UNL     1      21.219  25.987   8.640  1.00  0.00     0.107 C 
HETATM   24  C11 UNL     1      19.835  25.657   8.098  1.00  0.00     0.027 C 
HETATM   25  C12 UNL     1      20.096  24.360   7.357  1.00  0.00     0.002 C 
HETATM   26  C13 UNL     1      21.255  23.708   8.070  1.00  0.00     0.002 C 
HETATM   27  C14 UNL     1      21.666  24.671   9.182  1.00  0.00     0.027 C 
ENDBRANCH   3  23
TORSDOF 7
ENDMDL
MODEL 5
REMARK VINA RESULT: -6.406537517      1.799      2.529
REMARK  7 active torsions:
REMARK  status: ('A' for Active; 'I' for Inactive)
REMARK    1  A    between atoms: C2_4  and  C3_6 
REMARK    2  A    between atoms: C3_6  and  N3_8 
REMARK    3  A    between atoms: C3_6  and  C8_13 
REMARK    4  A    between atoms: N3_8  and  C5_10 
REMARK    5  A    between atoms: N4_15  and  C10_16 
REMARK    6  A    between atoms: C15_23  and  N6_24 
REMARK    7  A    between atoms: N6_24  and  O1_26 
ROOT
HETATM    1  C8  UNL     1      21.291  26.831  11.291  1.00  0.00     0.041 A 
HETATM    2  C9  UNL     1      21.267  25.534  10.817  1.00  0.00     0.124 A 
HETATM    3  N4  UNL     1      21.533  25.509   9.513  1.00  0.00    -0.296 N 
HETATM    4  N5  UNL     1      21.723  26.736   9.150  1.00  0.00    -0.281 N 
ATOM      5  H5  UNL     1      21.946  27.024   8.197  1.00  0.00     0.189 HD
HETATM    6  C15 UNL     1      21.591  27.585  10.180  1.00  0.00     0.150 A 
ENDROOT
BRANCH   1   7
HETATM    7  C3  UNL     1      21.064  27.271  12.685  1.00  0.00     0.111 C 
HETATM    8  C4  UNL     1      20.937  25.959  13.494  1.00  0.00     0.052 C 
BRANCH   7   9
HETATM    9  C2  UNL     1      22.331  27.882  13.195  1.00  0.00     0.121 C 
HETATM   10  N1  UNL     1      23.268  27.164  13.718  1.00  0.00    -0.384 N 
HETATM   11  C1  UNL     1      24.470  27.769  14.196  1.00  0.00     0.147 C 
ATOM     12  H1  UNL     1      23.148  26.154  13.790  1.00  0.00     0.160 HD
HETATM   13  N2  UNL     1      22.606  29.275  13.147  1.00  0.00    -0.085 NA
ENDBRANCH   7   9
BRANCH   7  14
HETATM   14  N3  UNL     1      20.041  28.168  12.930  1.00  0.00    -0.400 N 
ATOM     15  H3  UNL     1      20.332  29.131  13.101  1.00  0.00     0.155 HD
BRANCH  14  16
HETATM   16  C5  UNL     1      18.697  27.943  12.975  1.00  0.00     0.070 C 
HETATM   17  C6  UNL     1      17.905  28.658  14.085  1.00  0.00     0.031 C 
HETATM   18  C7  UNL     1      17.875  28.121  11.728  1.00  0.00     0.031 C 
ENDBRANCH  14  16
ENDBRANCH   7  14
ENDBRANCH   1   7
BRANCH   6  19
HETATM   19  N6  UNL     1      21.728  29.007  10.079  1.00  0.00    -0.251 N 
ATOM     20  H6  UNL     1      22.551  29.444   9.663  1.00  0.00     0.196 HD
BRANCH  19  21
HETATM   21  O1  UNL     1      20.769  29.685  10.534  1.00  0.00    -0.288 OA
ATOM     22  H1  UNL     1      20.957  30.598  10.716  1.00  0.00     0.244 HD
ENDBRANCH  19  21
ENDBRANCH   6  19
BRANCH   3  23
HETATM   23  C10 UNL     1      21.584  24.280   8.706  1.00  0.00     0.107 C 
HETATM   24  C11 UNL     1      23.013  24.032   8.243  1.00  0.00     0.027 C 
HETATM   25  C12 UNL     1      22.809  23.003   7.148  1.00  0.00     0.002 C 
HETATM   26  C13 UNL     1      21.432  23.268   6.590  1.00  0.00     0.002 C 
HETATM   27  C14 UNL     1      20.856  24.419   7.412  1.00  0.00     0.027 C 
ENDBRANCH   3  23
TORSDOF 7
ENDMDL
