MODEL 1
REMARK VINA RESULT: -7.035944422      0.000      0.000
REMARK  7 active torsions:
REMARK  status: ('A' for Active; 'I' for Inactive)
REMARK    1  A    between atoms: C3_3  and  O1_4 
REMARK    2  A    between atoms: C3_3  and  N1_6 
REMARK    3  A    between atoms: C6_9  and  N2_10 
REMARK       I    between atoms: N2_10  and  C7_12 
REMARK       I    between atoms: C7_12  and  N3_14 
REMARK    4  A    between atoms: C8_16  and  C9_17 
REMARK    5  A    between atoms: C9_17  and  C10_18 
REMARK    6  A    between atoms: C10_18  and  N4_19 
REMARK    7  A    between atoms: C10_18  and  C11_23 
ROOT
HETATM    1  C1  UNL     1      18.188  17.374  23.110  1.00  0.00     0.016 C 
HETATM    2  C2  UNL     1      18.647  17.328  21.987  1.00  0.00    -0.054 C 
HETATM    3  C3  UNL     1      19.184  17.284  20.618  1.00  0.00     0.437 C 
ENDROOT
BRANCH   3   4
HETATM    4  O1  UNL     1      20.224  18.231  20.589  1.00  0.00    -0.359 OA
ATOM      5  H1  UNL     1      20.114  18.707  19.774  1.00  0.00     0.213 HD
ENDBRANCH   3   4
BRANCH   3   6
HETATM    6  N1  UNL     1      18.139  17.700  19.718  1.00  0.00     0.129 N 
HETATM    7  C4  UNL     1      16.880  17.105  19.998  1.00  0.00     0.279 C 
HETATM    8  C5  UNL     1      15.810  17.279  18.996  1.00  0.00     0.055 C 
HETATM    9  C6  UNL     1      16.279  17.422  17.574  1.00  0.00     0.089 C 
HETATM   10  C12 UNL     1      17.432  18.385  17.547  1.00  0.00     0.055 C 
HETATM   11  C13 UNL     1      18.535  17.723  18.349  1.00  0.00     0.279 C 
BRANCH   9  12
HETATM   12  N2  UNL     1      15.161  17.872  16.759  1.00  0.00    -0.338 N 
HETATM   13  C7  UNL     1      14.104  17.025  16.337  1.00  0.00     0.320 C 
HETATM   14  O2  UNL     1      14.157  15.834  16.695  1.00  0.00    -0.247 OA
HETATM   15  N3  UNL     1      13.069  17.520  15.563  1.00  0.00    -0.323 N 
HETATM   16  C8  UNL     1      12.087  16.868  15.144  1.00  0.00     0.068 C 
ATOM     17  H3  UNL     1      13.110  18.507  15.311  1.00  0.00     0.169 HD
ATOM     18  H2  UNL     1      15.136  18.851  16.475  1.00  0.00     0.164 HD
BRANCH  16  19
HETATM   19  C9  UNL     1      11.865  15.453  15.408  1.00  0.00     0.088 C 
BRANCH  19  20
HETATM   20  C10 UNL     1      10.535  15.142  16.073  1.00  0.00     0.288 C 
BRANCH  20  21
HETATM   21  N4  UNL     1       9.590  16.164  15.579  1.00  0.00    -0.065 N 
ATOM     22  H43 UNL     1       9.693  17.070  16.036  1.00  0.00     0.275 HD
ATOM     23  H42 UNL     1       9.792  16.481  14.630  1.00  0.00     0.275 HD
ATOM     24  H41 UNL     1       8.661  15.756  15.685  1.00  0.00     0.275 HD
ENDBRANCH  20  21
BRANCH  20  25
HETATM   25  C11 UNL     1      10.554  15.209  17.528  1.00  0.00     0.204 C 
HETATM   26  O3  UNL     1      11.613  15.231  18.188  1.00  0.00    -0.646 OA
HETATM   27  O4  UNL     1       9.363  15.251  18.236  1.00  0.00    -0.646 OA
ENDBRANCH  20  25
ENDBRANCH  19  20
ENDBRANCH  16  19
ENDBRANCH   9  12
ENDBRANCH   3   6
TORSDOF 7
ENDMDL
MODEL 2
REMARK VINA RESULT: -6.833793837      2.217      8.555
REMARK  7 active torsions:
REMARK  status: ('A' for Active; 'I' for Inactive)
REMARK    1  A    between atoms: C3_3  and  O1_4 
REMARK    2  A    between atoms: C3_3  and  N1_6 
REMARK    3  A    between atoms: C6_9  and  N2_10 
REMARK       I    between atoms: N2_10  and  C7_12 
REMARK       I    between atoms: C7_12  and  N3_14 
REMARK    4  A    between atoms: C8_16  and  C9_17 
REMARK    5  A    between atoms: C9_17  and  C10_18 
REMARK    6  A    between atoms: C10_18  and  N4_19 
REMARK    7  A    between atoms: C10_18  and  C11_23 
ROOT
HETATM    1  C1  UNL     1       8.505  19.394  14.152  1.00  0.00     0.016 C 
HETATM    2  C2  UNL     1       9.013  18.292  14.209  1.00  0.00    -0.054 C 
HETATM    3  C3  UNL     1       9.634  16.962  14.302  1.00  0.00     0.437 C 
ENDROOT
BRANCH   3   4
HETATM    4  O1  UNL     1       8.566  16.046  14.324  1.00  0.00    -0.359 OA
ATOM      5  H1  UNL     1       8.541  15.703  15.209  1.00  0.00     0.213 HD
ENDBRANCH   3   4
BRANCH   3   6
HETATM    6  N1  UNL     1      10.346  16.890  15.552  1.00  0.00     0.129 N 
HETATM    7  C4  UNL     1      11.464  17.763  15.618  1.00  0.00     0.279 C 
HETATM    8  C5  UNL     1      12.392  17.591  16.753  1.00  0.00     0.055 C 
HETATM    9  C6  UNL     1      12.492  16.192  17.295  1.00  0.00     0.089 C 
HETATM   10  C12 UNL     1      11.103  15.633  17.429  1.00  0.00     0.055 C 
HETATM   11  C13 UNL     1      10.555  15.559  16.018  1.00  0.00     0.279 C 
BRANCH   9  12
HETATM   12  N2  UNL     1      13.198  16.235  18.566  1.00  0.00    -0.338 N 
HETATM   13  C7  UNL     1      14.595  16.453  18.683  1.00  0.00     0.320 C 
HETATM   14  O2  UNL     1      15.232  16.614  17.626  1.00  0.00    -0.247 OA
HETATM   15  N3  UNL     1      15.203  16.484  19.926  1.00  0.00    -0.323 N 
HETATM   16  C8  UNL     1      16.420  16.676  20.145  1.00  0.00     0.068 C 
ATOM     17  H3  UNL     1      14.604  16.337  20.738  1.00  0.00     0.169 HD
ATOM     18  H2  UNL     1      12.659  16.101  19.421  1.00  0.00     0.164 HD
BRANCH  16  19
HETATM   19  C9  UNL     1      17.416  16.906  19.109  1.00  0.00     0.088 C 
BRANCH  19  20
HETATM   20  C10 UNL     1      18.494  17.909  19.487  1.00  0.00     0.288 C 
BRANCH  20  21
HETATM   21  N4  UNL     1      19.357  18.039  18.297  1.00  0.00    -0.065 N 
ATOM     22  H43 UNL     1      19.902  17.201  18.093  1.00  0.00     0.275 HD
ATOM     23  H42 UNL     1      18.839  18.064  17.418  1.00  0.00     0.275 HD
ATOM     24  H41 UNL     1      19.928  18.869  18.458  1.00  0.00     0.275 HD
ENDBRANCH  20  21
BRANCH  20  25
HETATM   25  C11 UNL     1      19.329  17.505  20.610  1.00  0.00     0.204 C 
HETATM   26  O3  UNL     1      20.384  16.852  20.466  1.00  0.00    -0.646 OA
HETATM   27  O4  UNL     1      18.965  17.846  21.904  1.00  0.00    -0.646 OA
ENDBRANCH  20  25
ENDBRANCH  19  20
ENDBRANCH  16  19
ENDBRANCH   9  12
ENDBRANCH   3   6
TORSDOF 7
ENDMDL
MODEL 3
REMARK VINA RESULT: -6.737167884      1.984      8.181
REMARK  7 active torsions:
REMARK  status: ('A' for Active; 'I' for Inactive)
REMARK    1  A    between atoms: C3_3  and  O1_4 
REMARK    2  A    between atoms: C3_3  and  N1_6 
REMARK    3  A    between atoms: C6_9  and  N2_10 
REMARK       I    between atoms: N2_10  and  C7_12 
REMARK       I    between atoms: C7_12  and  N3_14 
REMARK    4  A    between atoms: C8_16  and  C9_17 
REMARK    5  A    between atoms: C9_17  and  C10_18 
REMARK    6  A    between atoms: C10_18  and  N4_19 
REMARK    7  A    between atoms: C10_18  and  C11_23 
ROOT
HETATM    1  C1  UNL     1       8.717  17.745  13.841  1.00  0.00     0.016 C 
HETATM    2  C2  UNL     1       9.458  17.053  14.510  1.00  0.00    -0.054 C 
HETATM    3  C3  UNL     1      10.367  16.235  15.329  1.00  0.00     0.437 C 
ENDROOT
BRANCH   3   4
HETATM    4  O1  UNL     1       9.607  15.818  16.436  1.00  0.00    -0.359 OA
ATOM      5  H1  UNL     1       9.823  16.421  17.137  1.00  0.00     0.213 HD
ENDBRANCH   3   4
BRANCH   3   6
HETATM    6  N1  UNL     1      11.439  17.083  15.782  1.00  0.00     0.129 N 
HETATM    7  C4  UNL     1      12.288  17.532  14.735  1.00  0.00     0.279 C 
HETATM    8  C5  UNL     1      13.546  18.202  15.122  1.00  0.00     0.055 C 
HETATM    9  C6  UNL     1      14.132  17.759  16.434  1.00  0.00     0.089 C 
HETATM   10  C12 UNL     1      13.028  17.690  17.452  1.00  0.00     0.055 C 
HETATM   11  C13 UNL     1      12.088  16.609  16.960  1.00  0.00     0.279 C 
BRANCH   9  12
HETATM   12  N2  UNL     1      15.180  18.693  16.814  1.00  0.00    -0.338 N 
HETATM   13  C7  UNL     1      16.368  18.312  17.490  1.00  0.00     0.320 C 
HETATM   14  O2  UNL     1      16.499  17.105  17.764  1.00  0.00    -0.247 OA
HETATM   15  N3  UNL     1      17.326  19.254  17.820  1.00  0.00    -0.323 N 
HETATM   16  C8  UNL     1      18.409  19.028  18.406  1.00  0.00     0.068 C 
ATOM     17  H3  UNL     1      17.133  20.221  17.562  1.00  0.00     0.169 HD
ATOM     18  H2  UNL     1      15.055  19.678  16.581  1.00  0.00     0.164 HD
BRANCH  16  19
HETATM   19  C9  UNL     1      18.849  17.712  18.844  1.00  0.00     0.088 C 
BRANCH  19  20
HETATM   20  C10 UNL     1      19.429  17.680  20.248  1.00  0.00     0.288 C 
BRANCH  20  21
HETATM   21  N4  UNL     1      20.388  16.557  20.261  1.00  0.00    -0.065 N 
ATOM     22  H43 UNL     1      19.976  15.666  19.983  1.00  0.00     0.275 HD
ATOM     23  H42 UNL     1      21.084  16.607  19.517  1.00  0.00     0.275 HD
ATOM     24  H41 UNL     1      20.790  16.548  21.198  1.00  0.00     0.275 HD
ENDBRANCH  20  21
BRANCH  20  25
HETATM   25  C11 UNL     1      18.450  17.452  21.303  1.00  0.00     0.204 C 
HETATM   26  O3  UNL     1      17.302  17.017  21.076  1.00  0.00    -0.646 OA
HETATM   27  O4  UNL     1      18.778  17.721  22.623  1.00  0.00    -0.646 OA
ENDBRANCH  20  25
ENDBRANCH  19  20
ENDBRANCH  16  19
ENDBRANCH   9  12
ENDBRANCH   3   6
TORSDOF 7
ENDMDL
MODEL 4
REMARK VINA RESULT: -6.687414483      1.073      1.534
REMARK  7 active torsions:
REMARK  status: ('A' for Active; 'I' for Inactive)
REMARK    1  A    between atoms: C3_3  and  O1_4 
REMARK    2  A    between atoms: C3_3  and  N1_6 
REMARK    3  A    between atoms: C6_9  and  N2_10 
REMARK       I    between atoms: N2_10  and  C7_12 
REMARK       I    between atoms: C7_12  and  N3_14 
REMARK    4  A    between atoms: C8_16  and  C9_17 
REMARK    5  A    between atoms: C9_17  and  C10_18 
REMARK    6  A    between atoms: C10_18  and  N4_19 
REMARK    7  A    between atoms: C10_18  and  C11_23 
ROOT
HETATM    1  C1  UNL     1      17.631  17.410  22.495  1.00  0.00     0.016 C 
HETATM    2  C2  UNL     1      18.405  17.453  21.561  1.00  0.00    -0.054 C 
HETATM    3  C3  UNL     1      19.324  17.512  20.414  1.00  0.00     0.437 C 
ENDROOT
BRANCH   3   4
HETATM    4  O1  UNL     1      20.064  18.696  20.582  1.00  0.00    -0.359 OA
ATOM      5  H1  UNL     1      19.436  19.354  20.856  1.00  0.00     0.213 HD
ENDBRANCH   3   4
BRANCH   3   6
HETATM    6  N1  UNL     1      18.532  17.614  19.215  1.00  0.00     0.129 N 
HETATM    7  C4  UNL     1      18.592  18.895  18.603  1.00  0.00     0.279 C 
HETATM    8  C5  UNL     1      17.634  19.172  17.514  1.00  0.00     0.055 C 
HETATM    9  C6  UNL     1      16.324  18.440  17.610  1.00  0.00     0.089 C 
HETATM   10  C12 UNL     1      16.603  17.004  17.955  1.00  0.00     0.055 C 
HETATM   11  C13 UNL     1      17.236  17.031  19.331  1.00  0.00     0.279 C 
BRANCH   9  12
HETATM   12  N2  UNL     1      15.619  18.581  16.345  1.00  0.00    -0.338 N 
HETATM   13  C7  UNL     1      14.243  18.282  16.173  1.00  0.00     0.320 C 
HETATM   14  O2  UNL     1      13.624  17.878  17.174  1.00  0.00    -0.247 OA
HETATM   15  N3  UNL     1      13.635  18.441  14.941  1.00  0.00    -0.323 N 
HETATM   16  C8  UNL     1      12.432  18.217  14.679  1.00  0.00     0.068 C 
ATOM     17  H3  UNL     1      14.221  18.772  14.174  1.00  0.00     0.169 HD
ATOM     18  H2  UNL     1      16.144  18.913  15.536  1.00  0.00     0.164 HD
BRANCH  16  19
HETATM   19  C9  UNL     1      11.454  17.744  15.648  1.00  0.00     0.088 C 
BRANCH  19  20
HETATM   20  C10 UNL     1      10.909  16.355  15.361  1.00  0.00     0.288 C 
BRANCH  20  21
HETATM   21  N4  UNL     1       9.524  16.557  14.889  1.00  0.00    -0.065 N 
ATOM     22  H43 UNL     1       8.970  15.701  14.872  1.00  0.00     0.275 HD
ATOM     23  H42 UNL     1       8.938  17.069  15.548  1.00  0.00     0.275 HD
ATOM     24  H41 UNL     1       9.606  17.009  13.978  1.00  0.00     0.275 HD
ENDBRANCH  20  21
BRANCH  20  25
HETATM   25  C11 UNL     1      10.867  15.470  16.517  1.00  0.00     0.204 C 
HETATM   26  O3  UNL     1      11.800  14.689  16.803  1.00  0.00    -0.646 OA
HETATM   27  O4  UNL     1       9.761  15.470  17.353  1.00  0.00    -0.646 OA
ENDBRANCH  20  25
ENDBRANCH  19  20
ENDBRANCH  16  19
ENDBRANCH   9  12
ENDBRANCH   3   6
TORSDOF 7
ENDMDL
MODEL 5
REMARK VINA RESULT: -6.539799731      1.126      1.294
REMARK  7 active torsions:
REMARK  status: ('A' for Active; 'I' for Inactive)
REMARK    1  A    between atoms: C3_3  and  O1_4 
REMARK    2  A    between atoms: C3_3  and  N1_6 
REMARK    3  A    between atoms: C6_9  and  N2_10 
REMARK       I    between atoms: N2_10  and  C7_12 
REMARK       I    between atoms: C7_12  and  N3_14 
REMARK    4  A    between atoms: C8_16  and  C9_17 
REMARK    5  A    between atoms: C9_17  and  C10_18 
REMARK    6  A    between atoms: C10_18  and  N4_19 
REMARK    7  A    between atoms: C10_18  and  C11_23 
ROOT
HETATM    1  C1  UNL     1      18.230  17.399  23.173  1.00  0.00     0.016 C 
HETATM    2  C2  UNL     1      18.636  17.280  22.034  1.00  0.00    -0.054 C 
HETATM    3  C3  UNL     1      19.110  17.152  20.648  1.00  0.00     0.437 C 
ENDROOT
BRANCH   3   4
HETATM    4  O1  UNL     1      20.289  17.916  20.578  1.00  0.00    -0.359 OA
ATOM      5  H1  UNL     1      20.150  18.538  19.874  1.00  0.00     0.213 HD
ENDBRANCH   3   4
BRANCH   3   6
HETATM    6  N1  UNL     1      18.116  17.733  19.783  1.00  0.00     0.129 N 
HETATM    7  C4  UNL     1      16.834  17.135  19.910  1.00  0.00     0.279 C 
HETATM    8  C5  UNL     1      15.815  17.494  18.904  1.00  0.00     0.055 C 
HETATM    9  C6  UNL     1      16.352  17.850  17.545  1.00  0.00     0.089 C 
HETATM   10  C12 UNL     1      17.524  18.774  17.722  1.00  0.00     0.055 C 
HETATM   11  C13 UNL     1      18.575  17.964  18.453  1.00  0.00     0.279 C 
BRANCH   9  12
HETATM   12  N2  UNL     1      15.282  18.453  16.766  1.00  0.00    -0.338 N 
HETATM   13  C7  UNL     1      14.262  17.708  16.120  1.00  0.00     0.320 C 
HETATM   14  O2  UNL     1      14.306  16.470  16.240  1.00  0.00    -0.247 OA
HETATM   15  N3  UNL     1      13.272  18.347  15.396  1.00  0.00    -0.323 N 
HETATM   16  C8  UNL     1      12.324  17.792  14.796  1.00  0.00     0.068 C 
ATOM     17  H3  UNL     1      13.318  19.365  15.346  1.00  0.00     0.169 HD
ATOM     18  H2  UNL     1      15.264  19.469  16.679  1.00  0.00     0.164 HD
BRANCH  16  19
HETATM   19  C9  UNL     1      12.101  16.354  14.763  1.00  0.00     0.088 C 
BRANCH  19  20
HETATM   20  C10 UNL     1      11.520  15.781  16.044  1.00  0.00     0.288 C 
BRANCH  20  21
HETATM   21  N4  UNL     1      12.062  14.412  16.153  1.00  0.00    -0.065 N 
ATOM     22  H43 UNL     1      12.359  14.018  15.260  1.00  0.00     0.275 HD
ATOM     23  H42 UNL     1      12.972  14.368  16.613  1.00  0.00     0.275 HD
ATOM     24  H41 UNL     1      11.340  13.865  16.622  1.00  0.00     0.275 HD
ENDBRANCH  20  21
BRANCH  20  25
HETATM   25  C11 UNL     1      10.066  15.695  16.066  1.00  0.00     0.204 C 
HETATM   26  O3  UNL     1       9.357  16.016  15.089  1.00  0.00    -0.646 OA
HETATM   27  O4  UNL     1       9.414  15.242  17.203  1.00  0.00    -0.646 OA
ENDBRANCH  20  25
ENDBRANCH  19  20
ENDBRANCH  16  19
ENDBRANCH   9  12
ENDBRANCH   3   6
TORSDOF 7
ENDMDL
