MODEL 1
REMARK VINA RESULT: -6.661242454      0.000      0.000
REMARK  6 active torsions:
REMARK  status: ('A' for Active; 'I' for Inactive)
REMARK    1  A    between atoms: C1_4  and  C2_5 
REMARK    2  A    between atoms: C2_5  and  C3_6 
REMARK       I    between atoms: C3_6  and  N2_8 
REMARK    3  A    between atoms: N2_8  and  C4_10 
REMARK    4  A    between atoms: C5_11  and  O2_12 
REMARK    5  A    between atoms: C6_14  and  C7_15 
REMARK    6  A    between atoms: C7_15  and  C8_16 
ROOT
HETATM    1  C4  UNL     1      15.504  16.669  18.099  1.00  0.00     0.137 C 
HETATM    2  C5  UNL     1      15.889  17.075  19.512  1.00  0.00     0.152 C 
HETATM    3  C6  UNL     1      17.234  17.713  19.587  1.00  0.00     0.065 C 
HETATM    4  C9  UNL     1      18.023  17.356  18.340  1.00  0.00     0.071 C 
HETATM    5  N3  UNL     1      17.363  17.883  17.213  1.00  0.00    -0.367 N 
HETATM    6  C10 UNL     1      18.027  18.764  16.357  1.00  0.00     0.063 C 
HETATM    7  C11 UNL     1      17.439  18.914  14.983  1.00  0.00     0.045 C 
HETATM    8  C12 UNL     1      15.937  18.770  14.972  1.00  0.00     0.007 C 
HETATM    9  C13 UNL     1      15.541  17.522  15.742  1.00  0.00     0.028 C 
HETATM   10  C14 UNL     1      15.960  17.775  17.174  1.00  0.00     0.113 C 
ENDROOT
BRANCH   1  11
HETATM   11  N2  UNL     1      14.049  16.640  18.058  1.00  0.00    -0.352 N 
HETATM   12  C3  UNL     1      13.299  15.461  18.257  1.00  0.00     0.222 C 
HETATM   13  O1  UNL     1      13.846  14.352  18.483  1.00  0.00    -0.273 OA
ATOM     14  H2  UNL     1      13.549  17.511  17.878  1.00  0.00     0.163 HD
BRANCH  12  15
HETATM   15  C2  UNL     1      11.817  15.480  18.207  1.00  0.00     0.146 C 
BRANCH  15  16
HETATM   16  C1  UNL     1      11.313  15.140  16.862  1.00  0.00     0.062 C 
HETATM   17  N1  UNL     1      12.052  14.380  16.117  1.00  0.00    -0.411 N 
ATOM     18  H12 UNL     1      12.949  14.037  16.462  1.00  0.00     0.155 HD
ATOM     19  H11 UNL     1      11.704  14.145  15.187  1.00  0.00     0.155 HD
ENDBRANCH  15  16
ENDBRANCH  12  15
ENDBRANCH   1  11
BRANCH   2  20
HETATM   20  O2  UNL     1      15.748  16.005  20.395  1.00  0.00    -0.393 OA
ATOM     21  H2  UNL     1      16.485  15.410  20.329  1.00  0.00     0.210 HD
ENDBRANCH   2  20
BRANCH   3  22
HETATM   22  C7  UNL     1      18.005  17.385  20.845  1.00  0.00     0.125 C 
BRANCH  22  23
HETATM   23  C8  UNL     1      19.432  17.740  20.661  1.00  0.00     0.173 C 
HETATM   24  O3  UNL     1      19.875  18.911  20.591  1.00  0.00    -0.648 OA
HETATM   25  O4  UNL     1      20.356  16.710  20.559  1.00  0.00    -0.648 OA
ENDBRANCH  22  23
ENDBRANCH   3  22
TORSDOF 6
ENDMDL
MODEL 2
REMARK VINA RESULT: -6.455802575      2.245      5.867
REMARK  6 active torsions:
REMARK  status: ('A' for Active; 'I' for Inactive)
REMARK    1  A    between atoms: C1_4  and  C2_5 
REMARK    2  A    between atoms: C2_5  and  C3_6 
REMARK       I    between atoms: C3_6  and  N2_8 
REMARK    3  A    between atoms: N2_8  and  C4_10 
REMARK    4  A    between atoms: C5_11  and  O2_12 
REMARK    5  A    between atoms: C6_14  and  C7_15 
REMARK    6  A    between atoms: C7_15  and  C8_16 
ROOT
HETATM    1  C4  UNL     1      15.404  17.413  19.044  1.00  0.00     0.137 C 
HETATM    2  C5  UNL     1      14.937  15.998  18.742  1.00  0.00     0.152 C 
HETATM    3  C6  UNL     1      13.854  15.950  17.719  1.00  0.00     0.065 C 
HETATM    4  C9  UNL     1      13.206  17.318  17.617  1.00  0.00     0.071 C 
HETATM    5  N3  UNL     1      14.166  18.250  17.177  1.00  0.00    -0.367 N 
HETATM    6  C10 UNL     1      13.946  18.992  16.015  1.00  0.00     0.063 C 
HETATM    7  C11 UNL     1      14.766  20.243  15.869  1.00  0.00     0.045 C 
HETATM    8  C12 UNL     1      16.136  20.119  16.491  1.00  0.00     0.007 C 
HETATM    9  C13 UNL     1      16.007  19.558  17.896  1.00  0.00     0.028 C 
HETATM   10  C14 UNL     1      15.459  18.158  17.728  1.00  0.00     0.113 C 
ENDROOT
BRANCH   1  11
HETATM   11  N2  UNL     1      16.769  17.302  19.537  1.00  0.00    -0.352 N 
HETATM   12  C3  UNL     1      17.080  17.157  20.907  1.00  0.00     0.222 C 
HETATM   13  O1  UNL     1      16.190  17.115  21.793  1.00  0.00    -0.273 OA
ATOM     14  H2  UNL     1      17.535  17.330  18.864  1.00  0.00     0.163 HD
BRANCH  12  15
HETATM   15  C2  UNL     1      18.486  17.047  21.364  1.00  0.00     0.146 C 
BRANCH  15  16
HETATM   16  C1  UNL     1      19.436  17.449  20.307  1.00  0.00     0.062 C 
HETATM   17  N1  UNL     1      20.384  16.620  20.004  1.00  0.00    -0.411 N 
ATOM     18  H12 UNL     1      20.458  15.725  20.488  1.00  0.00     0.155 HD
ATOM     19  H11 UNL     1      21.040  16.897  19.274  1.00  0.00     0.155 HD
ENDBRANCH  15  16
ENDBRANCH  12  15
ENDBRANCH   1  11
BRANCH   2  20
HETATM   20  O2  UNL     1      14.605  15.321  19.914  1.00  0.00    -0.393 OA
ATOM     21  H2  UNL     1      14.897  14.418  19.879  1.00  0.00     0.210 HD
ENDBRANCH   2  20
BRANCH   3  22
HETATM   22  C7  UNL     1      12.828  14.865  17.955  1.00  0.00     0.125 C 
BRANCH  22  23
HETATM   23  C8  UNL     1      11.734  14.991  16.963  1.00  0.00     0.173 C 
HETATM   24  O3  UNL     1      11.841  14.730  15.742  1.00  0.00    -0.648 OA
HETATM   25  O4  UNL     1      10.494  15.427  17.408  1.00  0.00    -0.648 OA
ENDBRANCH  22  23
ENDBRANCH   3  22
TORSDOF 6
ENDMDL
MODEL 3
REMARK VINA RESULT: -6.431691815      2.161      2.327
REMARK  6 active torsions:
REMARK  status: ('A' for Active; 'I' for Inactive)
REMARK    1  A    between atoms: C1_4  and  C2_5 
REMARK    2  A    between atoms: C2_5  and  C3_6 
REMARK       I    between atoms: C3_6  and  N2_8 
REMARK    3  A    between atoms: N2_8  and  C4_10 
REMARK    4  A    between atoms: C5_11  and  O2_12 
REMARK    5  A    between atoms: C6_14  and  C7_15 
REMARK    6  A    between atoms: C7_15  and  C8_16 
ROOT
HETATM    1  C4  UNL     1      15.250  18.127  17.720  1.00  0.00     0.137 C 
HETATM    2  C5  UNL     1      16.245  17.539  18.706  1.00  0.00     0.152 C 
HETATM    3  C6  UNL     1      17.478  18.364  18.850  1.00  0.00     0.065 C 
HETATM    4  C9  UNL     1      17.602  19.284  17.649  1.00  0.00     0.071 C 
HETATM    5  N3  UNL     1      16.501  20.163  17.628  1.00  0.00    -0.367 N 
HETATM    6  C10 UNL     1      16.703  21.544  17.644  1.00  0.00     0.063 C 
HETATM    7  C11 UNL     1      15.549  22.382  17.172  1.00  0.00     0.045 C 
HETATM    8  C12 UNL     1      14.210  21.766  17.495  1.00  0.00     0.007 C 
HETATM    9  C13 UNL     1      14.204  20.309  17.066  1.00  0.00     0.028 C 
HETATM   10  C14 UNL     1      15.237  19.625  17.935  1.00  0.00     0.113 C 
ENDROOT
BRANCH   1  11
HETATM   11  N2  UNL     1      13.940  17.622  18.102  1.00  0.00    -0.352 N 
HETATM   12  C3  UNL     1      13.357  16.478  17.514  1.00  0.00     0.222 C 
HETATM   13  O1  UNL     1      13.939  15.820  16.616  1.00  0.00    -0.273 OA
ATOM     14  H2  UNL     1      13.419  18.116  18.827  1.00  0.00     0.163 HD
BRANCH  12  15
HETATM   15  C2  UNL     1      12.019  15.999  17.936  1.00  0.00     0.146 C 
BRANCH  15  16
HETATM   16  C1  UNL     1      12.079  14.635  18.496  1.00  0.00     0.062 C 
HETATM   17  N1  UNL     1      13.186  14.264  19.058  1.00  0.00    -0.411 N 
ATOM     18  H12 UNL     1      13.979  14.905  19.105  1.00  0.00     0.155 HD
ATOM     19  H11 UNL     1      13.228  13.321  19.445  1.00  0.00     0.155 HD
ENDBRANCH  15  16
ENDBRANCH  12  15
ENDBRANCH   1  11
BRANCH   2  20
HETATM   20  O2  UNL     1      16.518  16.206  18.404  1.00  0.00    -0.393 OA
ATOM     21  H2  UNL     1      17.442  16.013  18.519  1.00  0.00     0.210 HD
ENDBRANCH   2  20
BRANCH   3  22
HETATM   22  C7  UNL     1      18.740  17.560  19.065  1.00  0.00     0.125 C 
BRANCH  22  23
HETATM   23  C8  UNL     1      19.333  17.907  20.378  1.00  0.00     0.173 C 
HETATM   24  O3  UNL     1      20.068  18.899  20.591  1.00  0.00    -0.648 OA
HETATM   25  O4  UNL     1      19.060  17.081  21.459  1.00  0.00    -0.648 OA
ENDBRANCH  22  23
ENDBRANCH   3  22
TORSDOF 6
ENDMDL
MODEL 4
REMARK VINA RESULT: -6.345823236      3.637      6.220
REMARK  6 active torsions:
REMARK  status: ('A' for Active; 'I' for Inactive)
REMARK    1  A    between atoms: C1_4  and  C2_5 
REMARK    2  A    between atoms: C2_5  and  C3_6 
REMARK       I    between atoms: C3_6  and  N2_8 
REMARK    3  A    between atoms: N2_8  and  C4_10 
REMARK    4  A    between atoms: C5_11  and  O2_12 
REMARK    5  A    between atoms: C6_14  and  C7_15 
REMARK    6  A    between atoms: C7_15  and  C8_16 
ROOT
HETATM    1  C4  UNL     1      14.770  16.270  16.236  1.00  0.00     0.137 C 
HETATM    2  C5  UNL     1      13.274  16.018  16.322  1.00  0.00     0.152 C 
HETATM    3  C6  UNL     1      12.839  15.557  17.671  1.00  0.00     0.065 C 
HETATM    4  C9  UNL     1      14.043  15.024  18.425  1.00  0.00     0.071 C 
HETATM    5  N3  UNL     1      14.969  16.069  18.610  1.00  0.00    -0.367 N 
HETATM    6  C10 UNL     1      15.382  16.424  19.895  1.00  0.00     0.063 C 
HETATM    7  C11 UNL     1      16.664  17.203  19.983  1.00  0.00     0.045 C 
HETATM    8  C12 UNL     1      16.878  18.109  18.795  1.00  0.00     0.007 C 
HETATM    9  C13 UNL     1      16.650  17.328  17.512  1.00  0.00     0.028 C 
HETATM   10  C14 UNL     1      15.187  16.941  17.526  1.00  0.00     0.113 C 
ENDROOT
BRANCH   1  11
HETATM   11  N2  UNL     1      14.966  17.234  15.162  1.00  0.00    -0.352 N 
HETATM   12  C3  UNL     1      15.202  16.852  13.824  1.00  0.00     0.222 C 
HETATM   13  O1  UNL     1      15.259  15.648  13.472  1.00  0.00    -0.273 OA
ATOM     14  H2  UNL     1      14.932  18.228  15.387  1.00  0.00     0.163 HD
BRANCH  12  15
HETATM   15  C2  UNL     1      15.396  17.870  12.762  1.00  0.00     0.146 C 
BRANCH  15  16
HETATM   16  C1  UNL     1      16.645  17.641  12.009  1.00  0.00     0.062 C 
HETATM   17  N1  UNL     1      17.692  17.275  12.678  1.00  0.00    -0.411 N 
ATOM     18  H12 UNL     1      17.639  17.154  13.690  1.00  0.00     0.155 HD
ATOM     19  H11 UNL     1      18.555  17.116  12.158  1.00  0.00     0.155 HD
ENDBRANCH  15  16
ENDBRANCH  12  15
ENDBRANCH   1  11
BRANCH   2  20
HETATM   20  O2  UNL     1      12.850  15.172  15.299  1.00  0.00    -0.393 OA
ATOM     21  H2  UNL     1      11.904  15.190  15.212  1.00  0.00     0.210 HD
ENDBRANCH   2  20
BRANCH   3  22
HETATM   22  C7  UNL     1      11.709  14.553  17.648  1.00  0.00     0.125 C 
BRANCH  22  23
HETATM   23  C8  UNL     1      10.410  15.265  17.625  1.00  0.00     0.173 C 
HETATM   24  O3  UNL     1       9.984  15.947  16.664  1.00  0.00    -0.648 OA
HETATM   25  O4  UNL     1       9.595  15.177  18.744  1.00  0.00    -0.648 OA
ENDBRANCH  22  23
ENDBRANCH   3  22
TORSDOF 6
ENDMDL
MODEL 5
REMARK VINA RESULT: -6.319054971      2.083      2.246
REMARK  6 active torsions:
REMARK  status: ('A' for Active; 'I' for Inactive)
REMARK    1  A    between atoms: C1_4  and  C2_5 
REMARK    2  A    between atoms: C2_5  and  C3_6 
REMARK       I    between atoms: C3_6  and  N2_8 
REMARK    3  A    between atoms: N2_8  and  C4_10 
REMARK    4  A    between atoms: C5_11  and  O2_12 
REMARK    5  A    between atoms: C6_14  and  C7_15 
REMARK    6  A    between atoms: C7_15  and  C8_16 
ROOT
HETATM    1  C4  UNL     1      14.834  17.754  17.931  1.00  0.00     0.137 C 
HETATM    2  C5  UNL     1      15.874  17.222  18.903  1.00  0.00     0.152 C 
HETATM    3  C6  UNL     1      17.076  18.098  19.004  1.00  0.00     0.065 C 
HETATM    4  C9  UNL     1      17.136  19.000  17.785  1.00  0.00     0.071 C 
HETATM    5  N3  UNL     1      16.001  19.835  17.775  1.00  0.00    -0.367 N 
HETATM    6  C10 UNL     1      16.148  21.223  17.763  1.00  0.00     0.063 C 
HETATM    7  C11 UNL     1      14.951  22.007  17.304  1.00  0.00     0.045 C 
HETATM    8  C12 UNL     1      13.645  21.345  17.669  1.00  0.00     0.007 C 
HETATM    9  C13 UNL     1      13.687  19.881  17.266  1.00  0.00     0.028 C 
HETATM   10  C14 UNL     1      14.766  19.253  18.121  1.00  0.00     0.113 C 
ENDROOT
BRANCH   1  11
HETATM   11  N2  UNL     1      13.553  17.204  18.353  1.00  0.00    -0.352 N 
HETATM   12  C3  UNL     1      12.991  16.043  17.780  1.00  0.00     0.222 C 
HETATM   13  O1  UNL     1      13.565  15.406  16.862  1.00  0.00    -0.273 OA
ATOM     14  H2  UNL     1      13.040  17.679  19.096  1.00  0.00     0.163 HD
BRANCH  12  15
HETATM   15  C2  UNL     1      11.683  15.519  18.243  1.00  0.00     0.146 C 
BRANCH  15  16
HETATM   16  C1  UNL     1      10.786  15.215  17.111  1.00  0.00     0.062 C 
HETATM   17  N1  UNL     1      10.806  16.020  16.096  1.00  0.00    -0.411 N 
ATOM     18  H12 UNL     1      11.426  16.830  16.094  1.00  0.00     0.155 HD
ATOM     19  H11 UNL     1      10.186  15.810  15.313  1.00  0.00     0.155 HD
ENDBRANCH  15  16
ENDBRANCH  12  15
ENDBRANCH   1  11
BRANCH   2  20
HETATM   20  O2  UNL     1      16.193  15.896  18.618  1.00  0.00    -0.393 OA
ATOM     21  H2  UNL     1      16.333  15.773  17.687  1.00  0.00     0.210 HD
ENDBRANCH   2  20
BRANCH   3  22
HETATM   22  C7  UNL     1      18.373  17.347  19.203  1.00  0.00     0.125 C 
BRANCH  22  23
HETATM   23  C8  UNL     1      18.933  17.667  20.537  1.00  0.00     0.173 C 
HETATM   24  O3  UNL     1      18.569  17.137  21.612  1.00  0.00    -0.648 OA
HETATM   25  O4  UNL     1      19.938  18.620  20.614  1.00  0.00    -0.648 OA
ENDBRANCH  22  23
ENDBRANCH   3  22
TORSDOF 6
ENDMDL
