MODEL 1
REMARK VINA RESULT: -6.634517520      0.000      0.000
REMARK  7 active torsions:
REMARK  status: ('A' for Active; 'I' for Inactive)
REMARK    1  A    between atoms: C2_2  and  O1_3 
REMARK    2  A    between atoms: C2_2  and  C3_5 
REMARK    3  A    between atoms: C3_5  and  N1_6 
REMARK    4  A    between atoms: C3_5  and  C12_20 
REMARK       I    between atoms: N1_6  and  C4_7 
REMARK    5  A    between atoms: C4_7  and  O3_9 
REMARK    6  A    between atoms: O3_9  and  C5_10 
REMARK    7  A    between atoms: C9_14  and  C10_15 
ROOT
HETATM    1  N1  UNL     1      15.682  17.205  19.320  1.00  0.00    -0.371 NA
HETATM    2  C4  UNL     1      14.499  17.530  19.098  1.00  0.00     0.436 C 
HETATM    3  O2  UNL     1      13.773  18.444  19.621  1.00  0.00    -0.221 OA
ENDROOT
BRANCH   2   4
HETATM    4  O3  UNL     1      13.611  16.921  18.139  1.00  0.00    -0.283 OA
BRANCH   4   5
HETATM    5  C5  UNL     1      13.396  16.152  17.204  1.00  0.00     0.186 C 
HETATM    6  C6  UNL     1      13.604  16.735  15.805  1.00  0.00     0.043 C 
HETATM    7  C7  UNL     1      13.199  15.606  14.925  1.00  0.00     0.013 C 
HETATM    8  C11 UNL     1      12.453  17.729  15.754  1.00  0.00     0.177 C 
HETATM    9  C8  UNL     1      12.020  15.044  15.693  1.00  0.00     0.053 C 
HETATM   10  C9  UNL     1      11.829  15.931  16.882  1.00  0.00     0.175 C 
HETATM   11  O6  UNL     1      11.427  17.157  16.489  1.00  0.00    -0.366 OA
BRANCH  10  12
HETATM   12  C10 UNL     1      11.170  15.241  17.952  1.00  0.00     0.212 C 
HETATM   13  O4  UNL     1      11.892  14.469  18.678  1.00  0.00    -0.646 OA
HETATM   14  O5  UNL     1       9.832  15.323  18.280  1.00  0.00    -0.646 OA
ENDBRANCH  10  12
ENDBRANCH   4   5
ENDBRANCH   2   4
BRANCH   1  15
HETATM   15  C3  UNL     1      17.091  16.862  19.622  1.00  0.00     0.297 C 
BRANCH  15  16
HETATM   16  C2  UNL     1      18.015  17.874  19.016  1.00  0.00     0.160 C 
HETATM   17  C1  UNL     1      17.638  18.418  17.682  1.00  0.00     0.043 C 
BRANCH  16  18
HETATM   18  O1  UNL     1      19.321  17.315  18.937  1.00  0.00    -0.392 OA
ATOM     19  H1  UNL     1      19.861  17.690  19.624  1.00  0.00     0.210 HD
ENDBRANCH  16  18
ENDBRANCH  15  16
BRANCH  15  20
HETATM   20  C12 UNL     1      17.149  17.176  21.171  1.00  0.00     0.213 C 
HETATM   21  O7  UNL     1      18.229  17.601  21.592  1.00  0.00    -0.646 OA
HETATM   22  O8  UNL     1      16.027  16.942  21.892  1.00  0.00    -0.646 OA
ENDBRANCH  15  20
ENDBRANCH   1  15
TORSDOF 7
ENDMDL
MODEL 2
REMARK VINA RESULT: -6.409441841      1.508      1.889
REMARK  7 active torsions:
REMARK  status: ('A' for Active; 'I' for Inactive)
REMARK    1  A    between atoms: C2_2  and  O1_3 
REMARK    2  A    between atoms: C2_2  and  C3_5 
REMARK    3  A    between atoms: C3_5  and  N1_6 
REMARK    4  A    between atoms: C3_5  and  C12_20 
REMARK       I    between atoms: N1_6  and  C4_7 
REMARK    5  A    between atoms: C4_7  and  O3_9 
REMARK    6  A    between atoms: O3_9  and  C5_10 
REMARK    7  A    between atoms: C9_14  and  C10_15 
ROOT
HETATM    1  N1  UNL     1      17.330  16.960  19.074  1.00  0.00    -0.371 NA
HETATM    2  C4  UNL     1      16.158  16.548  19.165  1.00  0.00     0.436 C 
HETATM    3  O2  UNL     1      15.524  16.045  20.157  1.00  0.00    -0.221 OA
ENDROOT
BRANCH   2   4
HETATM    4  O3  UNL     1      15.170  16.539  18.115  1.00  0.00    -0.283 OA
BRANCH   4   5
HETATM    5  C5  UNL     1      14.643  16.019  17.133  1.00  0.00     0.186 C 
HETATM    6  C6  UNL     1      14.602  16.879  15.869  1.00  0.00     0.043 C 
HETATM    7  C7  UNL     1      13.856  16.011  14.917  1.00  0.00     0.013 C 
HETATM    8  C11 UNL     1      13.616  17.952  16.306  1.00  0.00     0.177 C 
HETATM    9  C8  UNL     1      12.819  15.394  15.834  1.00  0.00     0.053 C 
HETATM   10  C9  UNL     1      13.029  16.007  17.182  1.00  0.00     0.175 C 
HETATM   11  O6  UNL     1      12.719  17.319  17.150  1.00  0.00    -0.366 OA
BRANCH  10  12
HETATM   12  C10 UNL     1      12.546  15.154  18.228  1.00  0.00     0.212 C 
HETATM   13  O4  UNL     1      11.353  15.370  18.649  1.00  0.00    -0.646 OA
HETATM   14  O5  UNL     1      13.235  14.123  18.831  1.00  0.00    -0.646 OA
ENDBRANCH  10  12
ENDBRANCH   4   5
ENDBRANCH   2   4
BRANCH   1  15
HETATM   15  C3  UNL     1      18.730  17.439  19.022  1.00  0.00     0.297 C 
BRANCH  15  16
HETATM   16  C2  UNL     1      18.770  18.937  19.026  1.00  0.00     0.160 C 
HETATM   17  C1  UNL     1      18.829  19.612  17.699  1.00  0.00     0.043 C 
BRANCH  16  18
HETATM   18  O1  UNL     1      19.875  19.365  19.814  1.00  0.00    -0.392 OA
ATOM     19  H1  UNL     1      20.261  18.611  20.243  1.00  0.00     0.210 HD
ENDBRANCH  16  18
ENDBRANCH  15  16
BRANCH  15  20
HETATM   20  C12 UNL     1      19.235  17.044  20.468  1.00  0.00     0.213 C 
HETATM   21  O7  UNL     1      20.336  16.486  20.519  1.00  0.00    -0.646 OA
HETATM   22  O8  UNL     1      18.419  17.337  21.508  1.00  0.00    -0.646 OA
ENDBRANCH  15  20
ENDBRANCH   1  15
TORSDOF 7
ENDMDL
MODEL 3
REMARK VINA RESULT: -6.353982112      2.153      3.331
REMARK  7 active torsions:
REMARK  status: ('A' for Active; 'I' for Inactive)
REMARK    1  A    between atoms: C2_2  and  O1_3 
REMARK    2  A    between atoms: C2_2  and  C3_5 
REMARK    3  A    between atoms: C3_5  and  N1_6 
REMARK    4  A    between atoms: C3_5  and  C12_20 
REMARK       I    between atoms: N1_6  and  C4_7 
REMARK    5  A    between atoms: C4_7  and  O3_9 
REMARK    6  A    between atoms: O3_9  and  C5_10 
REMARK    7  A    between atoms: C9_14  and  C10_15 
ROOT
HETATM    1  N1  UNL     1      17.289  17.175  19.834  1.00  0.00    -0.371 NA
HETATM    2  C4  UNL     1      16.151  16.944  20.285  1.00  0.00     0.436 C 
HETATM    3  O2  UNL     1      15.718  16.926  21.490  1.00  0.00    -0.221 OA
ENDROOT
BRANCH   2   4
HETATM    4  O3  UNL     1      14.974  16.625  19.516  1.00  0.00    -0.283 OA
BRANCH   4   5
HETATM    5  C5  UNL     1      14.068  16.944  18.748  1.00  0.00     0.186 C 
HETATM    6  C6  UNL     1      13.060  15.841  18.419  1.00  0.00     0.043 C 
HETATM    7  C7  UNL     1      12.164  16.510  17.437  1.00  0.00     0.013 C 
HETATM    8  C11 UNL     1      13.941  14.907  17.602  1.00  0.00     0.177 C 
HETATM    9  C8  UNL     1      13.161  17.331  16.643  1.00  0.00     0.053 C 
HETATM   10  C9  UNL     1      14.511  17.006  17.197  1.00  0.00     0.175 C 
HETATM   11  O6  UNL     1      14.831  15.724  16.924  1.00  0.00    -0.366 OA
BRANCH  10  12
HETATM   12  C10 UNL     1      15.444  18.069  16.964  1.00  0.00     0.212 C 
HETATM   13  O4  UNL     1      16.342  17.869  16.069  1.00  0.00    -0.646 OA
HETATM   14  O5  UNL     1      15.476  19.289  17.607  1.00  0.00    -0.646 OA
ENDBRANCH  10  12
ENDBRANCH   4   5
ENDBRANCH   2   4
BRANCH   1  15
HETATM   15  C3  UNL     1      18.660  17.459  19.351  1.00  0.00     0.297 C 
BRANCH  15  16
HETATM   16  C2  UNL     1      18.856  18.934  19.177  1.00  0.00     0.160 C 
HETATM   17  C1  UNL     1      18.962  19.440  17.780  1.00  0.00     0.043 C 
BRANCH  16  18
HETATM   18  O1  UNL     1      20.013  19.333  19.904  1.00  0.00    -0.392 OA
ATOM     19  H1  UNL     1      20.105  18.778  20.669  1.00  0.00     0.210 HD
ENDBRANCH  16  18
ENDBRANCH  15  16
BRANCH  15  20
HETATM   20  C12 UNL     1      19.508  17.114  20.640  1.00  0.00     0.213 C 
HETATM   21  O7  UNL     1      20.577  16.529  20.439  1.00  0.00    -0.646 OA
HETATM   22  O8  UNL     1      18.988  17.474  21.837  1.00  0.00    -0.646 OA
ENDBRANCH  15  20
ENDBRANCH   1  15
TORSDOF 7
ENDMDL
MODEL 4
REMARK VINA RESULT: -6.319908826      1.328      2.322
REMARK  7 active torsions:
REMARK  status: ('A' for Active; 'I' for Inactive)
REMARK    1  A    between atoms: C2_2  and  O1_3 
REMARK    2  A    between atoms: C2_2  and  C3_5 
REMARK    3  A    between atoms: C3_5  and  N1_6 
REMARK    4  A    between atoms: C3_5  and  C12_20 
REMARK       I    between atoms: N1_6  and  C4_7 
REMARK    5  A    between atoms: C4_7  and  O3_9 
REMARK    6  A    between atoms: O3_9  and  C5_10 
REMARK    7  A    between atoms: C9_14  and  C10_15 
ROOT
HETATM    1  N1  UNL     1      15.525  18.311  18.558  1.00  0.00    -0.371 NA
HETATM    2  C4  UNL     1      14.323  18.054  18.761  1.00  0.00     0.436 C 
HETATM    3  O2  UNL     1      13.530  18.447  19.686  1.00  0.00    -0.221 OA
ENDROOT
BRANCH   2   4
HETATM    4  O3  UNL     1      13.482  17.204  17.956  1.00  0.00    -0.283 OA
BRANCH   4   5
HETATM    5  C5  UNL     1      13.331  16.334  17.100  1.00  0.00     0.186 C 
HETATM    6  C6  UNL     1      13.419  16.809  15.649  1.00  0.00     0.043 C 
HETATM    7  C7  UNL     1      13.127  15.564  14.887  1.00  0.00     0.013 C 
HETATM    8  C11 UNL     1      12.153  17.649  15.564  1.00  0.00     0.177 C 
HETATM    9  C8  UNL     1      12.051  14.937  15.752  1.00  0.00     0.053 C 
HETATM   10  C9  UNL     1      11.794  15.899  16.868  1.00  0.00     0.175 C 
HETATM   11  O6  UNL     1      11.231  17.028  16.390  1.00  0.00    -0.366 OA
BRANCH  10  12
HETATM   12  C10 UNL     1      11.260  15.235  18.021  1.00  0.00     0.212 C 
HETATM   13  O4  UNL     1      12.062  14.480  18.680  1.00  0.00    -0.646 OA
HETATM   14  O5  UNL     1       9.968  15.324  18.496  1.00  0.00    -0.646 OA
ENDBRANCH  10  12
ENDBRANCH   4   5
ENDBRANCH   2   4
BRANCH   1  15
HETATM   15  C3  UNL     1      16.953  18.652  18.362  1.00  0.00     0.297 C 
BRANCH  15  16
HETATM   16  C2  UNL     1      17.822  17.487  18.725  1.00  0.00     0.160 C 
HETATM   17  C1  UNL     1      18.201  17.350  20.159  1.00  0.00     0.043 C 
BRANCH  16  18
HETATM   18  O1  UNL     1      19.005  17.531  17.935  1.00  0.00    -0.392 OA
ATOM     19  H1  UNL     1      19.022  16.775  17.360  1.00  0.00     0.210 HD
ENDBRANCH  16  18
ENDBRANCH  15  16
BRANCH  15  20
HETATM   20  C12 UNL     1      17.031  18.704  16.783  1.00  0.00     0.213 C 
HETATM   21  O7  UNL     1      16.499  17.762  16.187  1.00  0.00    -0.646 OA
HETATM   22  O8  UNL     1      17.678  19.758  16.231  1.00  0.00    -0.646 OA
ENDBRANCH  15  20
ENDBRANCH   1  15
TORSDOF 7
ENDMDL
MODEL 5
REMARK VINA RESULT: -6.293169423      1.323      2.376
REMARK  7 active torsions:
REMARK  status: ('A' for Active; 'I' for Inactive)
REMARK    1  A    between atoms: C2_2  and  O1_3 
REMARK    2  A    between atoms: C2_2  and  C3_5 
REMARK    3  A    between atoms: C3_5  and  N1_6 
REMARK    4  A    between atoms: C3_5  and  C12_20 
REMARK       I    between atoms: N1_6  and  C4_7 
REMARK    5  A    between atoms: C4_7  and  O3_9 
REMARK    6  A    between atoms: O3_9  and  C5_10 
REMARK    7  A    between atoms: C9_14  and  C10_15 
ROOT
HETATM    1  N1  UNL     1      16.444  17.295  18.861  1.00  0.00    -0.371 NA
HETATM    2  C4  UNL     1      15.528  16.455  18.948  1.00  0.00     0.436 C 
HETATM    3  O2  UNL     1      15.325  15.527  19.806  1.00  0.00    -0.221 OA
ENDROOT
BRANCH   2   4
HETATM    4  O3  UNL     1      14.406  16.317  18.052  1.00  0.00    -0.283 OA
BRANCH   4   5
HETATM    5  C5  UNL     1      13.873  15.829  17.058  1.00  0.00     0.186 C 
HETATM    6  C6  UNL     1      13.949  16.672  15.784  1.00  0.00     0.043 C 
HETATM    7  C7  UNL     1      13.168  15.856  14.814  1.00  0.00     0.013 C 
HETATM    8  C11 UNL     1      13.041  17.829  16.173  1.00  0.00     0.177 C 
HETATM    9  C8  UNL     1      12.051  15.340  15.699  1.00  0.00     0.053 C 
HETATM   10  C9  UNL     1      12.263  15.952  17.047  1.00  0.00     0.175 C 
HETATM   11  O6  UNL     1      12.064  17.284  16.990  1.00  0.00    -0.366 OA
BRANCH  10  12
HETATM   12  C10 UNL     1      11.673  15.157  18.084  1.00  0.00     0.212 C 
HETATM   13  O4  UNL     1      10.431  15.359  18.336  1.00  0.00    -0.646 OA
HETATM   14  O5  UNL     1      12.307  14.194  18.842  1.00  0.00    -0.646 OA
ENDBRANCH  10  12
ENDBRANCH   4   5
ENDBRANCH   2   4
BRANCH   1  15
HETATM   15  C3  UNL     1      17.554  18.274  18.807  1.00  0.00     0.297 C 
BRANCH  15  16
HETATM   16  C2  UNL     1      18.704  17.806  19.646  1.00  0.00     0.160 C 
HETATM   17  C1  UNL     1      18.383  17.329  21.021  1.00  0.00     0.043 C 
BRANCH  16  18
HETATM   18  O1  UNL     1      19.667  18.851  19.731  1.00  0.00    -0.392 OA
ATOM     19  H1  UNL     1      20.104  18.937  18.892  1.00  0.00     0.210 HD
ENDBRANCH  16  18
ENDBRANCH  15  16
BRANCH  15  20
HETATM   20  C12 UNL     1      18.061  18.066  17.323  1.00  0.00     0.213 C 
HETATM   21  O7  UNL     1      19.254  17.771  17.200  1.00  0.00    -0.646 OA
HETATM   22  O8  UNL     1      17.156  18.240  16.331  1.00  0.00    -0.646 OA
ENDBRANCH  15  20
ENDBRANCH   1  15
TORSDOF 7
ENDMDL
