MODEL 1
REMARK VINA RESULT: -6.193825537      0.000      0.000
REMARK  11 active torsions:
REMARK  status: ('A' for Active; 'I' for Inactive)
REMARK    1  A    between atoms: C2_2  and  C3_3 
REMARK    2  A    between atoms: C3_3  and  C4_4 
REMARK    3  A    between atoms: C5_5  and  C6_6 
REMARK    4  A    between atoms: C8_8  and  C9_9 
REMARK    5  A    between atoms: C9_9  and  O1_10 
REMARK    6  A    between atoms: C9_9  and  C10_12 
REMARK    7  A    between atoms: C10_12  and  O2_13 
REMARK    8  A    between atoms: C14_19  and  C15_20 
REMARK    9  A    between atoms: C15_20  and  O4_21 
REMARK   10  A    between atoms: C15_20  and  C16_23 
REMARK   11  A    between atoms: C16_23  and  O5_24 
ROOT
HETATM    1  C6  UNL     1      16.768  18.736  17.745  1.00  0.00     0.077 C 
HETATM    2  C7  UNL     1      15.271  18.859  18.078  1.00  0.00     0.058 C 
HETATM    3  C8  UNL     1      14.847  17.458  18.552  1.00  0.00     0.090 C 
HETATM    4  C11 UNL     1      14.814  17.419  20.044  1.00  0.00     0.043 C 
HETATM    5  C12 UNL     1      16.032  16.557  20.397  1.00  0.00     0.035 C 
HETATM    6  C13 UNL     1      16.846  16.753  19.114  1.00  0.00     0.130 C 
HETATM    7  O3  UNL     1      15.801  16.516  18.184  1.00  0.00    -0.372 OA
HETATM    8  C14 UNL     1      17.379  18.153  19.014  1.00  0.00     0.061 C 
ENDROOT
BRANCH   3   9
HETATM    9  C9  UNL     1      13.519  17.196  17.890  1.00  0.00     0.176 C 
BRANCH   9  10
HETATM   10  O1  UNL     1      12.574  16.792  18.799  1.00  0.00    -0.390 OA
ATOM     11  H1  UNL     1      11.714  17.132  18.582  1.00  0.00     0.210 HD
ENDBRANCH   9  10
BRANCH   9  12
HETATM   12  C10 UNL     1      13.592  16.342  16.664  1.00  0.00     0.198 C 
BRANCH  12  13
HETATM   13  O2  UNL     1      13.694  14.989  16.898  1.00  0.00    -0.398 OA
ATOM     14  H2  UNL     1      13.307  14.433  16.231  1.00  0.00     0.209 HD
ENDBRANCH  12  13
ENDBRANCH   9  12
ENDBRANCH   3   9
BRANCH   1  15
HETATM   15  C5  UNL     1      17.375  20.033  17.532  1.00  0.00    -0.101 C 
HETATM   16  C4  UNL     1      17.873  21.120  17.373  1.00  0.00    -0.106 C 
BRANCH  16  17
HETATM   17  C3  UNL     1      18.463  22.449  17.201  1.00  0.00     0.093 C 
BRANCH  17  18
HETATM   18  C2  UNL     1      17.615  23.432  17.981  1.00  0.00     0.007 C 
HETATM   19  C1  UNL     1      18.413  23.813  19.227  1.00  0.00     0.006 C 
ENDBRANCH  17  18
ENDBRANCH  16  17
ENDBRANCH   1  15
BRANCH   8  20
HETATM   20  C15 UNL     1      18.874  18.246  19.005  1.00  0.00     0.149 C 
BRANCH  20  21
HETATM   21  O4  UNL     1      19.411  17.404  18.063  1.00  0.00    -0.393 OA
ATOM     22  H4  UNL     1      20.351  17.322  18.179  1.00  0.00     0.210 HD
ENDBRANCH  20  21
BRANCH  20  23
HETATM   23  C16 UNL     1      19.479  17.955  20.352  1.00  0.00     0.196 C 
BRANCH  23  24
HETATM   24  O5  UNL     1      20.610  17.185  20.337  1.00  0.00    -0.398 OA
ATOM     25  H5  UNL     1      20.925  16.903  21.188  1.00  0.00     0.209 HD
ENDBRANCH  23  24
ENDBRANCH  20  23
ENDBRANCH   8  20
TORSDOF 11
ENDMDL
MODEL 2
REMARK VINA RESULT: -6.181359943      2.352      4.088
REMARK  11 active torsions:
REMARK  status: ('A' for Active; 'I' for Inactive)
REMARK    1  A    between atoms: C2_2  and  C3_3 
REMARK    2  A    between atoms: C3_3  and  C4_4 
REMARK    3  A    between atoms: C5_5  and  C6_6 
REMARK    4  A    between atoms: C8_8  and  C9_9 
REMARK    5  A    between atoms: C9_9  and  O1_10 
REMARK    6  A    between atoms: C9_9  and  C10_12 
REMARK    7  A    between atoms: C10_12  and  O2_13 
REMARK    8  A    between atoms: C14_19  and  C15_20 
REMARK    9  A    between atoms: C15_20  and  O4_21 
REMARK   10  A    between atoms: C15_20  and  C16_23 
REMARK   11  A    between atoms: C16_23  and  O5_24 
ROOT
HETATM    1  C6  UNL     1      15.637  17.581  19.060  1.00  0.00     0.077 C 
HETATM    2  C7  UNL     1      14.776  16.316  18.900  1.00  0.00     0.058 C 
HETATM    3  C8  UNL     1      13.905  16.576  17.660  1.00  0.00     0.090 C 
HETATM    4  C11 UNL     1      14.501  15.892  16.474  1.00  0.00     0.043 C 
HETATM    5  C12 UNL     1      15.049  17.056  15.640  1.00  0.00     0.035 C 
HETATM    6  C13 UNL     1      15.189  18.103  16.750  1.00  0.00     0.130 C 
HETATM    7  O3  UNL     1      13.911  17.929  17.342  1.00  0.00    -0.372 OA
HETATM    8  C14 UNL     1      16.298  17.749  17.698  1.00  0.00     0.061 C 
ENDROOT
BRANCH   3   9
HETATM    9  C9  UNL     1      12.526  16.096  18.031  1.00  0.00     0.176 C 
BRANCH   9  10
HETATM   10  O1  UNL     1      12.579  15.010  18.869  1.00  0.00    -0.390 OA
ATOM     11  H1  UNL     1      12.240  15.219  19.731  1.00  0.00     0.210 HD
ENDBRANCH   9  10
BRANCH   9  12
HETATM   12  C10 UNL     1      11.591  15.930  16.875  1.00  0.00     0.198 C 
BRANCH  12  13
HETATM   13  O2  UNL     1      11.218  17.099  16.251  1.00  0.00    -0.398 OA
ATOM     14  H2  UNL     1      11.734  17.332  15.488  1.00  0.00     0.209 HD
ENDBRANCH  12  13
ENDBRANCH   9  12
ENDBRANCH   3   9
BRANCH   1  15
HETATM   15  C5  UNL     1      16.695  17.387  20.030  1.00  0.00    -0.101 C 
HETATM   16  C4  UNL     1      17.564  17.234  20.853  1.00  0.00    -0.106 C 
BRANCH  16  17
HETATM   17  C3  UNL     1      18.603  17.062  21.869  1.00  0.00     0.093 C 
BRANCH  17  18
HETATM   18  C2  UNL     1      18.012  17.466  23.204  1.00  0.00     0.007 C 
HETATM   19  C1  UNL     1      16.546  17.034  23.187  1.00  0.00     0.006 C 
ENDBRANCH  17  18
ENDBRANCH  16  17
ENDBRANCH   1  15
BRANCH   8  20
HETATM   20  C15 UNL     1      17.416  18.746  17.740  1.00  0.00     0.149 C 
BRANCH  20  21
HETATM   21  O4  UNL     1      17.002  19.965  17.264  1.00  0.00    -0.393 OA
ATOM     22  H4  UNL     1      16.902  19.944  16.320  1.00  0.00     0.210 HD
ENDBRANCH  20  21
BRANCH  20  23
HETATM   23  C16 UNL     1      18.630  18.287  16.978  1.00  0.00     0.196 C 
BRANCH  23  24
HETATM   24  O5  UNL     1      19.506  17.506  17.679  1.00  0.00    -0.398 OA
ATOM     25  H5  UNL     1      20.353  17.899  17.858  1.00  0.00     0.209 HD
ENDBRANCH  23  24
ENDBRANCH  20  23
ENDBRANCH   8  20
TORSDOF 11
ENDMDL
MODEL 3
REMARK VINA RESULT: -6.138879892      2.557      4.928
REMARK  11 active torsions:
REMARK  status: ('A' for Active; 'I' for Inactive)
REMARK    1  A    between atoms: C2_2  and  C3_3 
REMARK    2  A    between atoms: C3_3  and  C4_4 
REMARK    3  A    between atoms: C5_5  and  C6_6 
REMARK    4  A    between atoms: C8_8  and  C9_9 
REMARK    5  A    between atoms: C9_9  and  O1_10 
REMARK    6  A    between atoms: C9_9  and  C10_12 
REMARK    7  A    between atoms: C10_12  and  O2_13 
REMARK    8  A    between atoms: C14_19  and  C15_20 
REMARK    9  A    between atoms: C15_20  and  O4_21 
REMARK   10  A    between atoms: C15_20  and  C16_23 
REMARK   11  A    between atoms: C16_23  and  O5_24 
ROOT
HETATM    1  C6  UNL     1      14.000  17.169  18.659  1.00  0.00     0.077 C 
HETATM    2  C7  UNL     1      13.817  15.838  17.909  1.00  0.00     0.058 C 
HETATM    3  C8  UNL     1      12.734  16.116  16.853  1.00  0.00     0.090 C 
HETATM    4  C11 UNL     1      13.375  16.367  15.528  1.00  0.00     0.043 C 
HETATM    5  C12 UNL     1      13.170  17.873  15.322  1.00  0.00     0.035 C 
HETATM    6  C13 UNL     1      12.986  18.293  16.784  1.00  0.00     0.130 C 
HETATM    7  O3  UNL     1      12.054  17.289  17.157  1.00  0.00    -0.372 OA
HETATM    8  C14 UNL     1      14.271  18.179  17.551  1.00  0.00     0.061 C 
ENDROOT
BRANCH   3   9
HETATM    9  C9  UNL     1      11.822  14.917  16.890  1.00  0.00     0.176 C 
BRANCH   9  10
HETATM   10  O1  UNL     1      12.175  13.987  15.945  1.00  0.00    -0.390 OA
ATOM     11  H1  UNL     1      11.724  13.162  16.083  1.00  0.00     0.210 HD
ENDBRANCH   9  10
BRANCH   9  12
HETATM   12  C10 UNL     1      10.363  15.245  16.908  1.00  0.00     0.198 C 
BRANCH  12  13
HETATM   13  O2  UNL     1       9.832  15.484  18.156  1.00  0.00    -0.398 OA
ATOM     14  H2  UNL     1       9.066  16.047  18.168  1.00  0.00     0.209 HD
ENDBRANCH  12  13
ENDBRANCH   9  12
ENDBRANCH   3   9
BRANCH   1  15
HETATM   15  C5  UNL     1      15.169  17.144  19.513  1.00  0.00    -0.101 C 
HETATM   16  C4  UNL     1      16.152  17.139  20.213  1.00  0.00    -0.106 C 
BRANCH  16  17
HETATM   17  C3  UNL     1      17.355  17.150  21.046  1.00  0.00     0.093 C 
BRANCH  17  18
HETATM   18  C2  UNL     1      16.911  17.214  22.493  1.00  0.00     0.007 C 
HETATM   19  C1  UNL     1      18.173  17.382  23.337  1.00  0.00     0.006 C 
ENDBRANCH  17  18
ENDBRANCH  16  17
ENDBRANCH   1  15
BRANCH   8  20
HETATM   20  C15 UNL     1      14.783  19.478  18.094  1.00  0.00     0.149 C 
BRANCH  20  21
HETATM   21  O4  UNL     1      13.789  20.425  18.116  1.00  0.00    -0.393 OA
ATOM     22  H4  UNL     1      14.154  21.296  18.217  1.00  0.00     0.210 HD
ENDBRANCH  20  21
BRANCH  20  23
HETATM   23  C16 UNL     1      15.967  20.000  17.326  1.00  0.00     0.196 C 
BRANCH  23  24
HETATM   24  O5  UNL     1      17.193  19.663  17.831  1.00  0.00    -0.398 OA
ATOM     25  H5  UNL     1      17.897  19.611  17.196  1.00  0.00     0.209 HD
ENDBRANCH  23  24
ENDBRANCH  20  23
ENDBRANCH   8  20
TORSDOF 11
ENDMDL
MODEL 4
REMARK VINA RESULT: -6.116647765      3.042      5.161
REMARK  11 active torsions:
REMARK  status: ('A' for Active; 'I' for Inactive)
REMARK    1  A    between atoms: C2_2  and  C3_3 
REMARK    2  A    between atoms: C3_3  and  C4_4 
REMARK    3  A    between atoms: C5_5  and  C6_6 
REMARK    4  A    between atoms: C8_8  and  C9_9 
REMARK    5  A    between atoms: C9_9  and  O1_10 
REMARK    6  A    between atoms: C9_9  and  C10_12 
REMARK    7  A    between atoms: C10_12  and  O2_13 
REMARK    8  A    between atoms: C14_19  and  C15_20 
REMARK    9  A    between atoms: C15_20  and  O4_21 
REMARK   10  A    between atoms: C15_20  and  C16_23 
REMARK   11  A    between atoms: C16_23  and  O5_24 
ROOT
HETATM    1  C6  UNL     1      13.610  17.370  18.270  1.00  0.00     0.077 C 
HETATM    2  C7  UNL     1      13.069  15.985  17.878  1.00  0.00     0.058 C 
HETATM    3  C8  UNL     1      12.083  16.248  16.728  1.00  0.00     0.090 C 
HETATM    4  C11 UNL     1      12.747  15.967  15.421  1.00  0.00     0.043 C 
HETATM    5  C12 UNL     1      12.946  17.365  14.823  1.00  0.00     0.035 C 
HETATM    6  C13 UNL     1      12.903  18.187  16.115  1.00  0.00     0.130 C 
HETATM    7  O3  UNL     1      11.744  17.595  16.682  1.00  0.00    -0.372 OA
HETATM    8  C14 UNL     1      14.123  17.948  16.956  1.00  0.00     0.061 C 
ENDROOT
BRANCH   3   9
HETATM    9  C9  UNL     1      10.886  15.381  17.020  1.00  0.00     0.176 C 
BRANCH   9  10
HETATM   10  O1  UNL     1       9.757  15.855  16.399  1.00  0.00    -0.390 OA
ATOM     11  H1  UNL     1       9.590  15.396  15.583  1.00  0.00     0.210 HD
ENDBRANCH   9  10
BRANCH   9  12
HETATM   12  C10 UNL     1      10.693  15.051  18.466  1.00  0.00     0.198 C 
BRANCH  12  13
HETATM   13  O2  UNL     1       9.425  15.269  18.953  1.00  0.00    -0.398 OA
ATOM     14  H2  UNL     1       9.381  15.530  19.866  1.00  0.00     0.209 HD
ENDBRANCH  12  13
ENDBRANCH   9  12
ENDBRANCH   3   9
BRANCH   1  15
HETATM   15  C5  UNL     1      14.744  17.267  19.165  1.00  0.00    -0.101 C 
HETATM   16  C4  UNL     1      15.695  17.163  19.900  1.00  0.00    -0.106 C 
BRANCH  16  17
HETATM   17  C3  UNL     1      16.854  17.014  20.782  1.00  0.00     0.093 C 
BRANCH  17  18
HETATM   18  C2  UNL     1      16.355  17.083  22.211  1.00  0.00     0.007 C 
HETATM   19  C1  UNL     1      17.579  17.315  23.096  1.00  0.00     0.006 C 
ENDBRANCH  17  18
ENDBRANCH  16  17
ENDBRANCH   1  15
BRANCH   8  20
HETATM   20  C15 UNL     1      14.970  19.164  17.175  1.00  0.00     0.149 C 
BRANCH  20  21
HETATM   21  O4  UNL     1      14.225  20.310  17.042  1.00  0.00    -0.393 OA
ATOM     22  H4  UNL     1      14.472  20.952  17.697  1.00  0.00     0.210 HD
ENDBRANCH  20  21
BRANCH  20  23
HETATM   23  C16 UNL     1      16.157  19.217  16.251  1.00  0.00     0.196 C 
BRANCH  23  24
HETATM   24  O5  UNL     1      16.574  18.012  15.758  1.00  0.00    -0.398 OA
ATOM     25  H5  UNL     1      16.677  17.969  14.814  1.00  0.00     0.209 HD
ENDBRANCH  23  24
ENDBRANCH  20  23
ENDBRANCH   8  20
TORSDOF 11
ENDMDL
MODEL 5
REMARK VINA RESULT: -6.102924372      2.219      3.570
REMARK  11 active torsions:
REMARK  status: ('A' for Active; 'I' for Inactive)
REMARK    1  A    between atoms: C2_2  and  C3_3 
REMARK    2  A    between atoms: C3_3  and  C4_4 
REMARK    3  A    between atoms: C5_5  and  C6_6 
REMARK    4  A    between atoms: C8_8  and  C9_9 
REMARK    5  A    between atoms: C9_9  and  O1_10 
REMARK    6  A    between atoms: C9_9  and  C10_12 
REMARK    7  A    between atoms: C10_12  and  O2_13 
REMARK    8  A    between atoms: C14_19  and  C15_20 
REMARK    9  A    between atoms: C15_20  and  O4_21 
REMARK   10  A    between atoms: C15_20  and  C16_23 
REMARK   11  A    between atoms: C16_23  and  O5_24 
ROOT
HETATM    1  C6  UNL     1      14.096  17.340  17.597  1.00  0.00     0.077 C 
HETATM    2  C7  UNL     1      12.679  16.750  17.497  1.00  0.00     0.058 C 
HETATM    3  C8  UNL     1      12.884  15.233  17.346  1.00  0.00     0.090 C 
HETATM    4  C11 UNL     1      12.688  14.564  18.667  1.00  0.00     0.043 C 
HETATM    5  C12 UNL     1      14.110  14.151  19.063  1.00  0.00     0.035 C 
HETATM    6  C13 UNL     1      14.898  15.151  18.211  1.00  0.00     0.130 C 
HETATM    7  O3  UNL     1      14.200  14.957  16.991  1.00  0.00    -0.372 OA
HETATM    8  C14 UNL     1      14.742  16.551  18.730  1.00  0.00     0.061 C 
ENDROOT
BRANCH   3   9
HETATM    9  C9  UNL     1      11.915  14.802  16.276  1.00  0.00     0.176 C 
BRANCH   9  10
HETATM   10  O1  UNL     1      12.558  14.531  15.094  1.00  0.00    -0.390 OA
ATOM     11  H1  UNL     1      12.862  13.631  15.061  1.00  0.00     0.210 HD
ENDBRANCH   9  10
BRANCH   9  12
HETATM   12  C10 UNL     1      10.715  15.682  16.131  1.00  0.00     0.198 C 
BRANCH  12  13
HETATM   13  O2  UNL     1       9.638  15.337  16.915  1.00  0.00    -0.398 OA
ATOM     14  H2  UNL     1       9.809  15.314  17.849  1.00  0.00     0.209 HD
ENDBRANCH  12  13
ENDBRANCH   9  12
ENDBRANCH   3   9
BRANCH   1  15
HETATM   15  C5  UNL     1      14.068  18.729  18.003  1.00  0.00    -0.101 C 
HETATM   16  C4  UNL     1      14.039  19.893  18.322  1.00  0.00    -0.106 C 
BRANCH  16  17
HETATM   17  C3  UNL     1      14.000  21.311  18.683  1.00  0.00     0.093 C 
BRANCH  17  18
HETATM   18  C2  UNL     1      14.640  22.090  17.553  1.00  0.00     0.007 C 
HETATM   19  C1  UNL     1      16.149  21.880  17.670  1.00  0.00     0.006 C 
ENDBRANCH  17  18
ENDBRANCH  16  17
ENDBRANCH   1  15
BRANCH   8  20
HETATM   20  C15 UNL     1      16.020  17.184  19.191  1.00  0.00     0.149 C 
BRANCH  20  21
HETATM   21  O4  UNL     1      17.080  16.758  18.430  1.00  0.00    -0.393 OA
ATOM     22  H4  UNL     1      17.525  16.029  18.847  1.00  0.00     0.210 HD
ENDBRANCH  20  21
BRANCH  20  23
HETATM   23  C16 UNL     1      16.301  16.925  20.647  1.00  0.00     0.196 C 
BRANCH  23  24
HETATM   24  O5  UNL     1      15.223  17.023  21.483  1.00  0.00    -0.398 OA
ATOM     25  H5  UNL     1      14.376  16.878  21.077  1.00  0.00     0.209 HD
ENDBRANCH  23  24
ENDBRANCH  20  23
ENDBRANCH   8  20
TORSDOF 11
ENDMDL
