MODEL 1
REMARK VINA RESULT: -6.458128172      0.000      0.000
REMARK  7 active torsions:
REMARK  status: ('A' for Active; 'I' for Inactive)
REMARK       I    between atoms: C2_2  and  N1_4 
REMARK    1  A    between atoms: N1_4  and  C3_6 
REMARK    2  A    between atoms: N2_9  and  C6_10 
REMARK    3  A    between atoms: C6_10  and  N3_11 
REMARK    4  A    between atoms: C6_10  and  C10_19 
REMARK    5  A    between atoms: N3_11  and  C7_13 
REMARK    6  A    between atoms: C7_13  and  O2_14 
REMARK    7  A    between atoms: C7_13  and  C8_16 
ROOT
HETATM    1  C6  UNL     1      17.330  17.193  19.134  1.00  0.00     0.288 C 
ENDROOT
BRANCH   1   2
HETATM    2  N2  UNL     1      15.985  16.791  18.962  1.00  0.00    -0.344 N 
HETATM    3  C5  UNL     1      15.025  17.645  19.499  1.00  0.00     0.068 C 
HETATM    4  C4  UNL     1      13.657  17.592  18.896  1.00  0.00     0.070 C 
HETATM    5  C3  UNL     1      13.275  16.230  18.380  1.00  0.00     0.093 C 
HETATM    6  C12 UNL     1      14.250  15.161  18.870  1.00  0.00     0.070 C 
HETATM    7  C11 UNL     1      15.612  15.616  18.350  1.00  0.00     0.068 C 
BRANCH   5   8
HETATM    8  N1  UNL     1      11.914  15.893  18.754  1.00  0.00    -0.356 N 
HETATM    9  C2  UNL     1      11.050  15.189  17.906  1.00  0.00     0.213 C 
HETATM   10  C1  UNL     1       9.662  14.850  18.297  1.00  0.00     0.117 C 
HETATM   11  O1  UNL     1      11.455  14.827  16.776  1.00  0.00    -0.274 OA
ATOM     12  H1  UNL     1      11.574  16.180  19.671  1.00  0.00     0.162 HD
ENDBRANCH   5   8
ENDBRANCH   1   2
BRANCH   1  13
HETATM   13  N3  UNL     1      17.484  17.702  20.433  1.00  0.00    -0.361 N 
ATOM     14  H3  UNL     1      16.843  18.428  20.751  1.00  0.00     0.158 HD
BRANCH  13  15
HETATM   15  C7  UNL     1      18.480  17.255  21.311  1.00  0.00     0.286 C 
BRANCH  15  16
HETATM   16  O2  UNL     1      19.654  18.056  21.151  1.00  0.00    -0.370 OA
ATOM     17  H2  UNL     1      20.312  17.786  21.781  1.00  0.00     0.212 HD
ENDBRANCH  15  16
BRANCH  15  18
HETATM   18  C8  UNL     1      18.082  17.412  22.715  1.00  0.00     0.170 C 
HETATM   19  C9  UNL     1      16.687  17.131  23.139  1.00  0.00     0.096 C 
HETATM   20  O3  UNL     1      18.867  17.769  23.564  1.00  0.00    -0.294 OA
ENDBRANCH  15  18
ENDBRANCH  13  15
ENDBRANCH   1  13
BRANCH   1  21
HETATM   21  C10 UNL     1      17.867  18.052  18.054  1.00  0.00     0.217 C 
HETATM   22  O4  UNL     1      17.464  18.037  16.857  1.00  0.00    -0.645 OA
HETATM   23  O5  UNL     1      18.884  18.962  18.308  1.00  0.00    -0.645 OA
ENDBRANCH   1  21
TORSDOF 7
ENDMDL
MODEL 2
REMARK VINA RESULT: -6.347116253      1.442      1.662
REMARK  7 active torsions:
REMARK  status: ('A' for Active; 'I' for Inactive)
REMARK       I    between atoms: C2_2  and  N1_4 
REMARK    1  A    between atoms: N1_4  and  C3_6 
REMARK    2  A    between atoms: N2_9  and  C6_10 
REMARK    3  A    between atoms: C6_10  and  N3_11 
REMARK    4  A    between atoms: C6_10  and  C10_19 
REMARK    5  A    between atoms: N3_11  and  C7_13 
REMARK    6  A    between atoms: C7_13  and  O2_14 
REMARK    7  A    between atoms: C7_13  and  C8_16 
ROOT
HETATM    1  C6  UNL     1      17.790  17.221  18.893  1.00  0.00     0.288 C 
ENDROOT
BRANCH   1   2
HETATM    2  N2  UNL     1      16.508  16.996  18.339  1.00  0.00    -0.344 N 
HETATM    3  C5  UNL     1      15.778  15.955  18.908  1.00  0.00     0.068 C 
HETATM    4  C4  UNL     1      14.289  16.023  18.778  1.00  0.00     0.070 C 
HETATM    5  C3  UNL     1      13.821  16.692  17.514  1.00  0.00     0.093 C 
HETATM    6  C12 UNL     1      14.972  16.867  16.524  1.00  0.00     0.070 C 
HETATM    7  C11 UNL     1      16.001  17.708  17.276  1.00  0.00     0.068 C 
BRANCH   5   8
HETATM    8  N1  UNL     1      12.730  15.954  16.905  1.00  0.00    -0.356 N 
HETATM    9  C2  UNL     1      11.642  16.585  16.289  1.00  0.00     0.213 C 
HETATM   10  C1  UNL     1      10.532  15.822  15.672  1.00  0.00     0.117 C 
HETATM   11  O1  UNL     1      11.596  17.837  16.251  1.00  0.00    -0.274 OA
ATOM     12  H1  UNL     1      12.756  14.935  16.928  1.00  0.00     0.162 HD
ENDBRANCH   5   8
ENDBRANCH   1   2
BRANCH   1  13
HETATM   13  N3  UNL     1      17.640  17.594  20.238  1.00  0.00    -0.361 N 
ATOM     14  H3  UNL     1      16.779  18.063  20.519  1.00  0.00     0.158 HD
BRANCH  13  15
HETATM   15  C7  UNL     1      18.620  17.351  21.209  1.00  0.00     0.286 C 
BRANCH  15  16
HETATM   16  O2  UNL     1      19.624  18.366  21.141  1.00  0.00    -0.370 OA
ATOM     17  H2  UNL     1      20.010  18.490  22.000  1.00  0.00     0.212 HD
ENDBRANCH  15  16
BRANCH  15  18
HETATM   18  C8  UNL     1      18.073  17.426  22.569  1.00  0.00     0.170 C 
HETATM   19  C9  UNL     1      16.645  17.110  22.826  1.00  0.00     0.096 C 
HETATM   20  O3  UNL     1      18.757  17.743  23.514  1.00  0.00    -0.294 OA
ENDBRANCH  15  18
ENDBRANCH  13  15
ENDBRANCH   1  13
BRANCH   1  21
HETATM   21  C10 UNL     1      18.671  18.101  18.091  1.00  0.00     0.217 C 
HETATM   22  O4  UNL     1      19.313  17.732  17.067  1.00  0.00    -0.645 OA
HETATM   23  O5  UNL     1      18.845  19.434  18.431  1.00  0.00    -0.645 OA
ENDBRANCH   1  21
TORSDOF 7
ENDMDL
MODEL 3
REMARK VINA RESULT: -6.241340358      1.045      1.063
REMARK  7 active torsions:
REMARK  status: ('A' for Active; 'I' for Inactive)
REMARK       I    between atoms: C2_2  and  N1_4 
REMARK    1  A    between atoms: N1_4  and  C3_6 
REMARK    2  A    between atoms: N2_9  and  C6_10 
REMARK    3  A    between atoms: C6_10  and  N3_11 
REMARK    4  A    between atoms: C6_10  and  C10_19 
REMARK    5  A    between atoms: N3_11  and  C7_13 
REMARK    6  A    between atoms: C7_13  and  O2_14 
REMARK    7  A    between atoms: C7_13  and  C8_16 
ROOT
HETATM    1  C6  UNL     1      17.591  17.140  19.009  1.00  0.00     0.288 C 
ENDROOT
BRANCH   1   2
HETATM    2  N2  UNL     1      16.291  16.835  18.543  1.00  0.00    -0.344 N 
HETATM    3  C5  UNL     1      15.585  17.897  17.983  1.00  0.00     0.068 C 
HETATM    4  C4  UNL     1      14.503  17.552  17.009  1.00  0.00     0.070 C 
HETATM    5  C3  UNL     1      13.822  16.241  17.299  1.00  0.00     0.093 C 
HETATM    6  C12 UNL     1      14.189  15.726  18.690  1.00  0.00     0.070 C 
HETATM    7  C11 UNL     1      15.709  15.594  18.663  1.00  0.00     0.068 C 
BRANCH   5   8
HETATM    8  N1  UNL     1      12.383  16.358  17.158  1.00  0.00    -0.356 N 
HETATM    9  C2  UNL     1      11.601  15.372  16.544  1.00  0.00     0.213 C 
HETATM   10  C1  UNL     1      10.132  15.502  16.404  1.00  0.00     0.117 C 
HETATM   11  O1  UNL     1      12.152  14.340  16.094  1.00  0.00    -0.274 OA
ATOM     12  H1  UNL     1      11.922  17.193  17.522  1.00  0.00     0.162 HD
ENDBRANCH   5   8
ENDBRANCH   1   2
BRANCH   1  13
HETATM   13  N3  UNL     1      17.504  17.553  20.348  1.00  0.00    -0.361 N 
ATOM     14  H3  UNL     1      16.673  18.063  20.647  1.00  0.00     0.158 HD
BRANCH  13  15
HETATM   15  C7  UNL     1      18.508  17.294  21.291  1.00  0.00     0.286 C 
BRANCH  15  16
HETATM   16  O2  UNL     1      19.541  18.276  21.172  1.00  0.00    -0.370 OA
ATOM     17  H2  UNL     1      20.313  17.983  21.641  1.00  0.00     0.212 HD
ENDBRANCH  15  16
BRANCH  15  18
HETATM   18  C8  UNL     1      18.009  17.408  22.666  1.00  0.00     0.170 C 
HETATM   19  C9  UNL     1      16.592  17.097  22.982  1.00  0.00     0.096 C 
HETATM   20  O3  UNL     1      18.726  17.753  23.577  1.00  0.00    -0.294 OA
ENDBRANCH  15  18
ENDBRANCH  13  15
ENDBRANCH   1  13
BRANCH   1  21
HETATM   21  C10 UNL     1      18.377  18.032  18.126  1.00  0.00     0.217 C 
HETATM   22  O4  UNL     1      18.865  17.690  17.012  1.00  0.00    -0.645 OA
HETATM   23  O5  UNL     1      18.629  19.348  18.486  1.00  0.00    -0.645 OA
ENDBRANCH   1  21
TORSDOF 7
ENDMDL
MODEL 4
REMARK VINA RESULT: -6.150724776      1.317      1.812
REMARK  7 active torsions:
REMARK  status: ('A' for Active; 'I' for Inactive)
REMARK       I    between atoms: C2_2  and  N1_4 
REMARK    1  A    between atoms: N1_4  and  C3_6 
REMARK    2  A    between atoms: N2_9  and  C6_10 
REMARK    3  A    between atoms: C6_10  and  N3_11 
REMARK    4  A    between atoms: C6_10  and  C10_19 
REMARK    5  A    between atoms: N3_11  and  C7_13 
REMARK    6  A    between atoms: C7_13  and  O2_14 
REMARK    7  A    between atoms: C7_13  and  C8_16 
ROOT
HETATM    1  C6  UNL     1      16.787  17.759  17.638  1.00  0.00     0.288 C 
ENDROOT
BRANCH   1   2
HETATM    2  N2  UNL     1      15.529  17.153  17.860  1.00  0.00    -0.344 N 
HETATM    3  C5  UNL     1      14.710  17.785  18.792  1.00  0.00     0.068 C 
HETATM    4  C4  UNL     1      13.237  17.555  18.666  1.00  0.00     0.070 C 
HETATM    5  C3  UNL     1      12.880  16.197  18.122  1.00  0.00     0.093 C 
HETATM    6  C12 UNL     1      14.094  15.269  18.116  1.00  0.00     0.070 C 
HETATM    7  C11 UNL     1      15.124  15.989  17.248  1.00  0.00     0.068 C 
BRANCH   5   8
HETATM    8  N1  UNL     1      11.786  15.606  18.868  1.00  0.00    -0.356 N 
HETATM    9  C2  UNL     1      10.553  15.294  18.282  1.00  0.00     0.213 C 
HETATM   10  C1  UNL     1       9.441  14.691  19.054  1.00  0.00     0.117 C 
HETATM   11  O1  UNL     1      10.373  15.528  17.064  1.00  0.00    -0.274 OA
ATOM     12  H1  UNL     1      11.921  15.409  19.860  1.00  0.00     0.162 HD
ENDBRANCH   5   8
ENDBRANCH   1   2
BRANCH   1  13
HETATM   13  N3  UNL     1      17.386  18.020  18.881  1.00  0.00    -0.361 N 
ATOM     14  H3  UNL     1      17.017  18.783  19.449  1.00  0.00     0.158 HD
BRANCH  13  15
HETATM   15  C7  UNL     1      18.466  17.277  19.376  1.00  0.00     0.286 C 
BRANCH  15  16
HETATM   16  O2  UNL     1      19.578  17.397  18.484  1.00  0.00    -0.370 OA
ATOM     17  H2  UNL     1      19.752  16.555  18.079  1.00  0.00     0.212 HD
ENDBRANCH  15  16
BRANCH  15  18
HETATM   18  C8  UNL     1      18.938  17.792  20.667  1.00  0.00     0.170 C 
HETATM   19  C9  UNL     1      18.283  17.370  21.931  1.00  0.00     0.096 C 
HETATM   20  O3  UNL     1      19.864  18.566  20.745  1.00  0.00    -0.294 OA
ENDBRANCH  15  18
ENDBRANCH  13  15
ENDBRANCH   1  13
BRANCH   1  21
HETATM   21  C10 UNL     1      16.773  18.900  16.695  1.00  0.00     0.217 C 
HETATM   22  O4  UNL     1      16.913  20.110  17.031  1.00  0.00    -0.645 OA
HETATM   23  O5  UNL     1      16.600  18.696  15.334  1.00  0.00    -0.645 OA
ENDBRANCH   1  21
TORSDOF 7
ENDMDL
MODEL 5
REMARK VINA RESULT: -6.025141628      3.594      7.060
REMARK  7 active torsions:
REMARK  status: ('A' for Active; 'I' for Inactive)
REMARK       I    between atoms: C2_2  and  N1_4 
REMARK    1  A    between atoms: N1_4  and  C3_6 
REMARK    2  A    between atoms: N2_9  and  C6_10 
REMARK    3  A    between atoms: C6_10  and  N3_11 
REMARK    4  A    between atoms: C6_10  and  C10_19 
REMARK    5  A    between atoms: N3_11  and  C7_13 
REMARK    6  A    between atoms: C7_13  and  O2_14 
REMARK    7  A    between atoms: C7_13  and  C8_16 
ROOT
HETATM    1  C6  UNL     1      13.187  15.603  18.122  1.00  0.00     0.288 C 
ENDROOT
BRANCH   1   2
HETATM    2  N2  UNL     1      13.675  16.925  17.998  1.00  0.00    -0.344 N 
HETATM    3  C5  UNL     1      13.923  17.358  16.698  1.00  0.00     0.068 C 
HETATM    4  C4  UNL     1      13.890  18.835  16.458  1.00  0.00     0.070 C 
HETATM    5  C3  UNL     1      14.336  19.652  17.641  1.00  0.00     0.093 C 
HETATM    6  C12 UNL     1      15.006  18.772  18.696  1.00  0.00     0.070 C 
HETATM    7  C11 UNL     1      13.942  17.744  19.072  1.00  0.00     0.068 C 
BRANCH   5   8
HETATM    8  N1  UNL     1      15.222  20.725  17.231  1.00  0.00    -0.356 N 
HETATM    9  C2  UNL     1      15.213  21.986  17.840  1.00  0.00     0.213 C 
HETATM   10  C1  UNL     1      16.121  23.076  17.412  1.00  0.00     0.117 C 
HETATM   11  O1  UNL     1      14.415  22.211  18.780  1.00  0.00    -0.274 OA
ATOM     12  H1  UNL     1      15.877  20.553  16.468  1.00  0.00     0.162 HD
ENDBRANCH   5   8
ENDBRANCH   1   2
BRANCH   1  13
HETATM   13  N3  UNL     1      11.920  15.646  18.724  1.00  0.00    -0.361 N 
ATOM     14  H3  UNL     1      11.806  16.186  19.582  1.00  0.00     0.158 HD
BRANCH  13  15
HETATM   15  C7  UNL     1      10.805  14.980  18.198  1.00  0.00     0.286 C 
BRANCH  15  16
HETATM   16  O2  UNL     1       9.625  15.403  18.887  1.00  0.00    -0.370 OA
ATOM     17  H2  UNL     1       9.483  14.848  19.644  1.00  0.00     0.212 HD
ENDBRANCH  15  16
BRANCH  15  18
HETATM   18  C8  UNL     1      10.582  15.317  16.787  1.00  0.00     0.170 C 
HETATM   19  C9  UNL     1      11.436  14.726  15.727  1.00  0.00     0.096 C 
HETATM   20  O3  UNL     1       9.706  16.077  16.445  1.00  0.00    -0.294 OA
ENDBRANCH  15  18
ENDBRANCH  13  15
ENDBRANCH   1  13
BRANCH   1  21
HETATM   21  C10 UNL     1      14.138  14.642  18.727  1.00  0.00     0.217 C 
HETATM   22  O4  UNL     1      13.810  13.695  19.496  1.00  0.00    -0.645 OA
HETATM   23  O5  UNL     1      15.499  14.730  18.469  1.00  0.00    -0.645 OA
ENDBRANCH   1  21
TORSDOF 7
ENDMDL
