MODEL 1
REMARK VINA RESULT: -7.454876863      0.000      0.000
REMARK  3 active torsions:
REMARK  status: ('A' for Active; 'I' for Inactive)
REMARK    1  A    between atoms: C2_3  and  C3_4 
REMARK    2  A    between atoms: C5_10  and  C6_11 
REMARK    3  A    between atoms: C6_11  and  N4_12 
REMARK       I    between atoms: N5_15  and  C9_16 
REMARK       I    between atoms: C9_16  and  N6_18 
ROOT
HETATM    1  N1  UNL     1      28.746  -7.546  19.703  1.00  0.00    -0.197 NA
HETATM    2  C1  UNL     1      28.428  -7.124  20.722  1.00  0.00     0.065 C 
HETATM    3  C2  UNL     1      28.003  -6.598  21.998  1.00  0.00     0.183 C 
ENDROOT
BRANCH   3   4
HETATM    4  C3  UNL     1      28.767  -5.338  22.288  1.00  0.00     0.048 A 
HETATM    5  N2  UNL     1      29.881  -4.912  21.671  1.00  0.00    -0.304 N 
HETATM    6  N3  UNL     1      30.257  -3.768  22.199  1.00  0.00    -0.311 N 
ATOM      7  H2  UNL     1      30.359  -5.399  20.912  1.00  0.00     0.186 HD
HETATM    8  C4  UNL     1      29.409  -3.398  23.179  1.00  0.00     0.118 A 
ATOM      9  H3  UNL     1      31.077  -3.235  21.908  1.00  0.00     0.186 HD
HETATM   10  C5  UNL     1      28.445  -4.383  23.261  1.00  0.00     0.012 A 
BRANCH  10  11
HETATM   11  C6  UNL     1      27.273  -4.529  24.126  1.00  0.00     0.314 C 
BRANCH  11  12
HETATM   12  N4  UNL     1      26.092  -3.908  23.631  1.00  0.00     0.096 N 
HETATM   13  C7  UNL     1      26.148  -2.478  23.607  1.00  0.00     0.292 C 
HETATM   14  C8  UNL     1      25.140  -1.851  24.544  1.00  0.00     0.158 C 
HETATM   15  N5  UNL     1      23.812  -2.324  24.125  1.00  0.00    -0.331 N 
HETATM   16  C9  UNL     1      22.779  -1.377  24.091  1.00  0.00     0.320 C 
HETATM   17  C14 UNL     1      23.709  -3.725  23.794  1.00  0.00     0.158 C 
HETATM   18  O1  UNL     1      23.116  -0.184  24.445  1.00  0.00    -0.247 OA
HETATM   19  N6  UNL     1      21.428  -1.545  23.727  1.00  0.00    -0.334 N 
HETATM   20  C10 UNL     1      20.474  -0.445  23.764  1.00  0.00     0.127 C 
HETATM   21  C13 UNL     1      20.787  -2.754  23.279  1.00  0.00     0.127 C 
HETATM   22  C11 UNL     1      19.289  -0.895  22.975  1.00  0.00     0.022 C 
HETATM   23  C12 UNL     1      19.481  -2.328  22.631  1.00  0.00     0.022 C 
HETATM   24  C15 UNL     1      24.959  -4.409  24.377  1.00  0.00     0.292 C 
ENDBRANCH  11  12
ENDBRANCH  10  11
ENDBRANCH   3   4
TORSDOF 3
ENDMDL
MODEL 2
REMARK VINA RESULT: -7.310503537      2.228      7.821
REMARK  3 active torsions:
REMARK  status: ('A' for Active; 'I' for Inactive)
REMARK    1  A    between atoms: C2_3  and  C3_4 
REMARK    2  A    between atoms: C5_10  and  C6_11 
REMARK    3  A    between atoms: C6_11  and  N4_12 
REMARK       I    between atoms: N5_15  and  C9_16 
REMARK       I    between atoms: C9_16  and  N6_18 
ROOT
HETATM    1  N1  UNL     1      20.489  -5.352  25.181  1.00  0.00    -0.197 NA
HETATM    2  C1  UNL     1      20.518  -4.293  25.622  1.00  0.00     0.065 C 
HETATM    3  C2  UNL     1      20.540  -2.968  26.196  1.00  0.00     0.183 C 
ENDROOT
BRANCH   3   4
HETATM    4  C3  UNL     1      20.237  -1.963  25.123  1.00  0.00     0.048 A 
HETATM    5  N2  UNL     1      19.101  -1.860  24.414  1.00  0.00    -0.304 N 
HETATM    6  N3  UNL     1      19.209  -0.859  23.569  1.00  0.00    -0.311 N 
ATOM      7  H2  UNL     1      18.285  -2.463  24.515  1.00  0.00     0.186 HD
HETATM    8  C4  UNL     1      20.413  -0.265  23.690  1.00  0.00     0.118 A 
ATOM      9  H3  UNL     1      18.482  -0.571  22.913  1.00  0.00     0.186 HD
HETATM   10  C5  UNL     1      21.094  -0.949  24.676  1.00  0.00     0.012 A 
BRANCH  10  11
HETATM   11  C6  UNL     1      22.432  -0.765  25.243  1.00  0.00     0.314 C 
BRANCH  11  12
HETATM   12  N4  UNL     1      23.490  -1.265  24.435  1.00  0.00     0.096 N 
HETATM   13  C7  UNL     1      23.067  -2.168  23.409  1.00  0.00     0.292 C 
HETATM   14  C8  UNL     1      23.617  -3.563  23.612  1.00  0.00     0.158 C 
HETATM   15  N5  UNL     1      25.083  -3.448  23.628  1.00  0.00    -0.331 N 
HETATM   16  C9  UNL     1      25.807  -4.417  22.919  1.00  0.00     0.320 C 
HETATM   17  C14 UNL     1      25.628  -2.345  24.383  1.00  0.00     0.158 C 
HETATM   18  O1  UNL     1      25.092  -5.315  22.332  1.00  0.00    -0.247 OA
HETATM   19  N6  UNL     1      27.200  -4.547  22.758  1.00  0.00    -0.334 N 
HETATM   20  C10 UNL     1      27.792  -5.635  21.992  1.00  0.00     0.127 C 
HETATM   21  C13 UNL     1      28.226  -3.684  23.286  1.00  0.00     0.127 C 
HETATM   22  C11 UNL     1      29.209  -5.238  21.733  1.00  0.00     0.022 C 
HETATM   23  C12 UNL     1      29.490  -4.001  22.505  1.00  0.00     0.022 C 
HETATM   24  C15 UNL     1      24.500  -1.837  25.299  1.00  0.00     0.292 C 
ENDBRANCH  11  12
ENDBRANCH  10  11
ENDBRANCH   3   4
TORSDOF 3
ENDMDL
MODEL 3
REMARK VINA RESULT: -7.148172176      1.720      2.416
REMARK  3 active torsions:
REMARK  status: ('A' for Active; 'I' for Inactive)
REMARK    1  A    between atoms: C2_3  and  C3_4 
REMARK    2  A    between atoms: C5_10  and  C6_11 
REMARK    3  A    between atoms: C6_11  and  N4_12 
REMARK       I    between atoms: N5_15  and  C9_16 
REMARK       I    between atoms: C9_16  and  N6_18 
ROOT
HETATM    1  N1  UNL     1      29.488  -5.418  21.388  1.00  0.00    -0.197 NA
HETATM    2  C1  UNL     1      29.010  -4.826  22.248  1.00  0.00     0.065 C 
HETATM    3  C2  UNL     1      28.427  -4.065  23.327  1.00  0.00     0.183 C 
ENDROOT
BRANCH   3   4
HETATM    4  C3  UNL     1      27.965  -5.009  24.400  1.00  0.00     0.048 A 
HETATM    5  N2  UNL     1      28.363  -6.279  24.581  1.00  0.00    -0.304 N 
HETATM    6  N3  UNL     1      27.739  -6.783  25.622  1.00  0.00    -0.311 N 
ATOM      7  H2  UNL     1      29.042  -6.773  24.001  1.00  0.00     0.186 HD
HETATM    8  C4  UNL     1      26.912  -5.869  26.167  1.00  0.00     0.118 A 
ATOM      9  H3  UNL     1      27.864  -7.734  25.970  1.00  0.00     0.186 HD
HETATM   10  C5  UNL     1      27.033  -4.723  25.407  1.00  0.00     0.012 A 
BRANCH  10  11
HETATM   11  C6  UNL     1      26.393  -3.411  25.514  1.00  0.00     0.314 C 
BRANCH  11  12
HETATM   12  N4  UNL     1      25.149  -3.303  24.832  1.00  0.00     0.096 N 
HETATM   13  C7  UNL     1      25.125  -2.303  23.809  1.00  0.00     0.292 C 
HETATM   14  C8  UNL     1      24.154  -1.187  24.122  1.00  0.00     0.158 C 
HETATM   15  N5  UNL     1      22.827  -1.803  24.274  1.00  0.00    -0.331 N 
HETATM   16  C9  UNL     1      21.744  -1.142  23.678  1.00  0.00     0.320 C 
HETATM   17  C14 UNL     1      22.777  -3.032  25.030  1.00  0.00     0.158 C 
HETATM   18  O1  UNL     1      22.040  -0.048  23.064  1.00  0.00    -0.247 OA
HETATM   19  N6  UNL     1      20.382  -1.502  23.657  1.00  0.00    -0.334 N 
HETATM   20  C10 UNL     1      19.375  -0.682  22.997  1.00  0.00     0.127 C 
HETATM   21  C13 UNL     1      19.777  -2.670  24.244  1.00  0.00     0.127 C 
HETATM   22  C11 UNL     1      18.163  -1.544  22.859  1.00  0.00     0.022 C 
HETATM   23  C12 UNL     1      18.407  -2.807  23.602  1.00  0.00     0.022 C 
HETATM   24  C15 UNL     1      24.100  -3.123  25.812  1.00  0.00     0.292 C 
ENDBRANCH  11  12
ENDBRANCH  10  11
ENDBRANCH   3   4
TORSDOF 3
ENDMDL
MODEL 4
REMARK VINA RESULT: -7.131112663      1.554      1.836
REMARK  3 active torsions:
REMARK  status: ('A' for Active; 'I' for Inactive)
REMARK    1  A    between atoms: C2_3  and  C3_4 
REMARK    2  A    between atoms: C5_10  and  C6_11 
REMARK    3  A    between atoms: C6_11  and  N4_12 
REMARK       I    between atoms: N5_15  and  C9_16 
REMARK       I    between atoms: C9_16  and  N6_18 
ROOT
HETATM    1  N1  UNL     1      28.698  -7.310  19.990  1.00  0.00    -0.197 NA
HETATM    2  C1  UNL     1      28.606  -6.546  20.842  1.00  0.00     0.065 C 
HETATM    3  C2  UNL     1      28.511  -5.574  21.905  1.00  0.00     0.183 C 
ENDROOT
BRANCH   3   4
HETATM    4  C3  UNL     1      28.289  -6.289  23.207  1.00  0.00     0.048 A 
HETATM    5  N2  UNL     1      28.403  -7.608  23.430  1.00  0.00    -0.304 N 
HETATM    6  N3  UNL     1      28.132  -7.857  24.692  1.00  0.00    -0.311 N 
ATOM      7  H2  UNL     1      28.660  -8.305  22.731  1.00  0.00     0.186 HD
HETATM    8  C4  UNL     1      27.832  -6.718  25.346  1.00  0.00     0.118 A 
ATOM      9  H3  UNL     1      28.147  -8.785  25.117  1.00  0.00     0.186 HD
HETATM   10  C5  UNL     1      27.922  -5.696  24.422  1.00  0.00     0.012 A 
BRANCH  10  11
HETATM   11  C6  UNL     1      27.714  -4.252  24.544  1.00  0.00     0.314 C 
BRANCH  11  12
HETATM   12  N4  UNL     1      26.455  -3.794  24.064  1.00  0.00     0.096 N 
HETATM   13  C7  UNL     1      26.496  -2.504  23.447  1.00  0.00     0.292 C 
HETATM   14  C8  UNL     1      25.693  -1.477  24.213  1.00  0.00     0.158 C 
HETATM   15  N5  UNL     1      24.310  -1.975  24.277  1.00  0.00    -0.331 N 
HETATM   16  C9  UNL     1      23.286  -1.046  24.050  1.00  0.00     0.320 C 
HETATM   17  C14 UNL     1      24.152  -3.378  24.575  1.00  0.00     0.158 C 
HETATM   18  O1  UNL     1      23.680   0.159  23.815  1.00  0.00    -0.247 OA
HETATM   19  N6  UNL     1      21.891  -1.242  24.042  1.00  0.00    -0.334 N 
HETATM   20  C10 UNL     1      20.957  -0.150  23.801  1.00  0.00     0.127 C 
HETATM   21  C13 UNL     1      21.180  -2.476  24.257  1.00  0.00     0.127 C 
HETATM   22  C11 UNL     1      19.641  -0.788  23.500  1.00  0.00     0.022 C 
HETATM   23  C12 UNL     1      19.768  -2.248  23.744  1.00  0.00     0.022 C 
HETATM   24  C15 UNL     1      25.496  -3.863  25.146  1.00  0.00     0.292 C 
ENDBRANCH  11  12
ENDBRANCH  10  11
ENDBRANCH   3   4
TORSDOF 3
ENDMDL
MODEL 5
REMARK VINA RESULT: -7.115046082      2.482      7.878
REMARK  3 active torsions:
REMARK  status: ('A' for Active; 'I' for Inactive)
REMARK    1  A    between atoms: C2_3  and  C3_4 
REMARK    2  A    between atoms: C5_10  and  C6_11 
REMARK    3  A    between atoms: C6_11  and  N4_12 
REMARK       I    between atoms: N5_15  and  C9_16 
REMARK       I    between atoms: C9_16  and  N6_18 
ROOT
HETATM    1  N1  UNL     1      23.723   0.009  23.769  1.00  0.00    -0.197 NA
HETATM    2  C1  UNL     1      22.661  -0.366  23.549  1.00  0.00     0.065 C 
HETATM    3  C2  UNL     1      21.319  -0.816  23.261  1.00  0.00     0.183 C 
ENDROOT
BRANCH   3   4
HETATM    4  C3  UNL     1      20.748  -1.472  24.485  1.00  0.00     0.048 A 
HETATM    5  N2  UNL     1      20.324  -0.860  25.602  1.00  0.00    -0.304 N 
HETATM    6  N3  UNL     1      19.890  -1.765  26.452  1.00  0.00    -0.311 N 
ATOM      7  H2  UNL     1      20.337   0.147  25.766  1.00  0.00     0.186 HD
HETATM    8  C4  UNL     1      20.009  -3.001  25.929  1.00  0.00     0.118 A 
ATOM      9  H3  UNL     1      19.516  -1.560  27.378  1.00  0.00     0.186 HD
HETATM   10  C5  UNL     1      20.556  -2.847  24.671  1.00  0.00     0.012 A 
BRANCH  10  11
HETATM   11  C6  UNL     1      20.908  -3.821  23.636  1.00  0.00     0.314 C 
BRANCH  11  12
HETATM   12  N4  UNL     1      22.245  -3.718  23.158  1.00  0.00     0.096 N 
HETATM   13  C7  UNL     1      22.521  -4.526  22.010  1.00  0.00     0.292 C 
HETATM   14  C8  UNL     1      23.543  -5.603  22.301  1.00  0.00     0.158 C 
HETATM   15  N5  UNL     1      24.763  -4.923  22.761  1.00  0.00    -0.331 N 
HETATM   16  C9  UNL     1      25.984  -5.391  22.255  1.00  0.00     0.320 C 
HETATM   17  C14 UNL     1      24.576  -3.840  23.697  1.00  0.00     0.158 C 
HETATM   18  O1  UNL     1      25.895  -6.384  21.438  1.00  0.00    -0.247 OA
HETATM   19  N6  UNL     1      27.290  -4.931  22.513  1.00  0.00    -0.334 N 
HETATM   20  C10 UNL     1      28.462  -5.550  21.908  1.00  0.00     0.127 C 
HETATM   21  C13 UNL     1      27.680  -3.837  23.365  1.00  0.00     0.127 C 
HETATM   22  C11 UNL     1      29.588  -4.588  22.105  1.00  0.00     0.022 C 
HETATM   23  C12 UNL     1      29.109  -3.491  22.985  1.00  0.00     0.022 C 
HETATM   24  C15 UNL     1      23.149  -3.982  24.257  1.00  0.00     0.292 C 
ENDBRANCH  11  12
ENDBRANCH  10  11
ENDBRANCH   3   4
TORSDOF 3
ENDMDL
