MODEL 1
REMARK VINA RESULT: -6.784042286      0.000      0.000
REMARK  4 active torsions:
REMARK  status: ('A' for Active; 'I' for Inactive)
REMARK    1  A    between atoms: C2_2  and  C3_3 
REMARK    2  A    between atoms: C3_3  and  N1_4 
REMARK    3  A    between atoms: N2_14  and  C12_15 
REMARK    4  A    between atoms: C12_15  and  C13_16 
ROOT
HETATM    1  N1  UNL     1      27.762  -3.894  24.172  1.00  0.00     0.092 N 
HETATM    2  C4  UNL     1      27.054  -3.069  23.260  1.00  0.00     0.277 C 
HETATM    3  C5  UNL     1      25.787  -2.482  23.860  1.00  0.00     0.102 C 
HETATM    4  C6  UNL     1      24.736  -3.477  24.207  1.00  0.00     0.264 C 
HETATM    5  C7  UNL     1      25.548  -4.789  24.303  1.00  0.00     0.102 C 
HETATM    6  C8  UNL     1      26.851  -4.496  25.072  1.00  0.00     0.277 C 
HETATM    7  O1  UNL     1      24.217  -3.274  25.481  1.00  0.00    -0.352 OA
HETATM    8  C9  UNL     1      23.442  -4.275  25.982  1.00  0.00     0.172 C 
HETATM    9  C10 UNL     1      22.560  -5.004  25.009  1.00  0.00     0.056 C 
HETATM   10  C11 UNL     1      23.126  -4.983  23.598  1.00  0.00     0.278 C 
HETATM   11  N2  UNL     1      23.668  -3.621  23.320  1.00  0.00     0.124 N 
ENDROOT
BRANCH  11  12
HETATM   12  C12 UNL     1      22.513  -2.856  23.302  1.00  0.00     0.291 C 
BRANCH  12  13
HETATM   13  C13 UNL     1      22.399  -1.428  23.047  1.00  0.00     0.115 C 
HETATM   14  C14 UNL     1      20.900  -1.084  23.375  1.00  0.00     0.119 C 
HETATM   15  C15 UNL     1      20.911  -1.185  24.856  1.00  0.00     0.225 C 
HETATM   16  O2  UNL     1      20.026  -1.552  25.659  1.00  0.00    -0.273 OA
HETATM   17  N3  UNL     1      22.230  -0.753  25.251  1.00  0.00    -0.297 N 
HETATM   18  C16 UNL     1      22.968  -0.493  24.054  1.00  0.00     0.230 C 
ATOM     19  H3  UNL     1      22.572  -0.650  26.206  1.00  0.00     0.171 HD
HETATM   20  O3  UNL     1      23.889   0.337  23.883  1.00  0.00    -0.273 OA
ENDBRANCH  12  13
ENDBRANCH  11  12
BRANCH   1  21
HETATM   21  C3  UNL     1      28.779  -4.717  23.622  1.00  0.00     0.299 C 
BRANCH  21  22
HETATM   22  C2  UNL     1      28.676  -4.828  22.150  1.00  0.00    -0.007 C 
HETATM   23  C1  UNL     1      28.599  -5.989  21.532  1.00  0.00     0.008 C 
ENDBRANCH  21  22
ENDBRANCH   1  21
TORSDOF 4
ENDMDL
MODEL 2
REMARK VINA RESULT: -6.528557337      1.087      1.114
REMARK  4 active torsions:
REMARK  status: ('A' for Active; 'I' for Inactive)
REMARK    1  A    between atoms: C2_2  and  C3_3 
REMARK    2  A    between atoms: C3_3  and  N1_4 
REMARK    3  A    between atoms: N2_14  and  C12_15 
REMARK    4  A    between atoms: C12_15  and  C13_16 
ROOT
HETATM    1  N1  UNL     1      27.135  -3.751  24.575  1.00  0.00     0.092 N 
HETATM    2  C4  UNL     1      26.522  -2.842  23.674  1.00  0.00     0.277 C 
HETATM    3  C5  UNL     1      25.137  -2.409  24.126  1.00  0.00     0.102 C 
HETATM    4  C6  UNL     1      24.120  -3.494  24.161  1.00  0.00     0.264 C 
HETATM    5  C7  UNL     1      24.999  -4.765  24.219  1.00  0.00     0.102 C 
HETATM    6  C8  UNL     1      26.140  -4.518  25.225  1.00  0.00     0.277 C 
HETATM    7  O1  UNL     1      23.393  -3.499  25.347  1.00  0.00    -0.352 OA
HETATM    8  C9  UNL     1      22.623  -4.598  25.577  1.00  0.00     0.172 C 
HETATM    9  C10 UNL     1      21.960  -5.226  24.384  1.00  0.00     0.056 C 
HETATM   10  C11 UNL     1      22.739  -4.978  23.101  1.00  0.00     0.278 C 
HETATM   11  N2  UNL     1      23.218  -3.565  23.098  1.00  0.00     0.124 N 
ENDROOT
BRANCH  11  12
HETATM   12  C12 UNL     1      22.029  -2.864  22.989  1.00  0.00     0.291 C 
BRANCH  12  13
HETATM   13  C13 UNL     1      21.833  -1.427  23.100  1.00  0.00     0.115 C 
HETATM   14  C14 UNL     1      20.282  -1.222  22.929  1.00  0.00     0.119 C 
HETATM   15  C15 UNL     1      19.790  -1.754  24.225  1.00  0.00     0.225 C 
HETATM   16  O2  UNL     1      18.734  -2.357  24.514  1.00  0.00    -0.273 OA
HETATM   17  N3  UNL     1      20.824  -1.432  25.179  1.00  0.00    -0.297 N 
HETATM   18  C16 UNL     1      21.894  -0.819  24.456  1.00  0.00     0.230 C 
ATOM     19  H3  UNL     1      20.796  -1.609  26.183  1.00  0.00     0.171 HD
HETATM   20  O3  UNL     1      22.705   0.041  24.866  1.00  0.00    -0.273 OA
ENDBRANCH  12  13
ENDBRANCH  11  12
BRANCH   1  21
HETATM   21  C3  UNL     1      28.283  -4.436  24.100  1.00  0.00     0.299 C 
BRANCH  21  22
HETATM   22  C2  UNL     1      28.985  -3.683  23.036  1.00  0.00    -0.007 C 
HETATM   23  C1  UNL     1      29.921  -4.227  22.285  1.00  0.00     0.008 C 
ENDBRANCH  21  22
ENDBRANCH   1  21
TORSDOF 4
ENDMDL
MODEL 3
REMARK VINA RESULT: -6.385432041      1.560      1.879
REMARK  4 active torsions:
REMARK  status: ('A' for Active; 'I' for Inactive)
REMARK    1  A    between atoms: C2_2  and  C3_3 
REMARK    2  A    between atoms: C3_3  and  N1_4 
REMARK    3  A    between atoms: N2_14  and  C12_15 
REMARK    4  A    between atoms: C12_15  and  C13_16 
ROOT
HETATM    1  N1  UNL     1      26.971  -3.089  23.920  1.00  0.00     0.092 N 
HETATM    2  C4  UNL     1      25.962  -2.113  23.721  1.00  0.00     0.277 C 
HETATM    3  C5  UNL     1      24.690  -2.415  24.495  1.00  0.00     0.102 C 
HETATM    4  C6  UNL     1      23.972  -3.647  24.068  1.00  0.00     0.264 C 
HETATM    5  C7  UNL     1      25.083  -4.435  23.336  1.00  0.00     0.102 C 
HETATM    6  C8  UNL     1      26.373  -4.345  24.175  1.00  0.00     0.277 C 
HETATM    7  O1  UNL     1      23.608  -4.446  25.146  1.00  0.00    -0.352 OA
HETATM    8  C9  UNL     1      23.178  -5.703  24.846  1.00  0.00     0.172 C 
HETATM    9  C10 UNL     1      22.369  -5.864  23.591  1.00  0.00     0.056 C 
HETATM   10  C11 UNL     1      22.705  -4.802  22.555  1.00  0.00     0.278 C 
HETATM   11  N2  UNL     1      22.855  -3.489  23.246  1.00  0.00     0.124 N 
ENDROOT
BRANCH  11  12
HETATM   12  C12 UNL     1      21.559  -3.243  23.670  1.00  0.00     0.291 C 
BRANCH  12  13
HETATM   13  C13 UNL     1      20.584  -2.348  23.067  1.00  0.00     0.115 C 
HETATM   14  C14 UNL     1      20.252  -1.303  24.196  1.00  0.00     0.119 C 
HETATM   15  C15 UNL     1      21.506  -0.509  24.215  1.00  0.00     0.225 C 
HETATM   16  O2  UNL     1      22.097   0.066  25.154  1.00  0.00    -0.273 OA
HETATM   17  N3  UNL     1      21.972  -0.512  22.849  1.00  0.00    -0.297 N 
HETATM   18  C16 UNL     1      21.076  -1.335  22.096  1.00  0.00     0.230 C 
ATOM     19  H3  UNL     1      22.788  -0.020  22.487  1.00  0.00     0.171 HD
HETATM   20  O3  UNL     1      20.768  -1.229  20.888  1.00  0.00    -0.273 OA
ENDBRANCH  12  13
ENDBRANCH  11  12
BRANCH   1  21
HETATM   21  C3  UNL     1      28.068  -3.058  23.020  1.00  0.00     0.299 C 
BRANCH  21  22
HETATM   22  C2  UNL     1      28.937  -4.249  23.154  1.00  0.00    -0.007 C 
HETATM   23  C1  UNL     1      29.892  -4.529  22.291  1.00  0.00     0.008 C 
ENDBRANCH  21  22
ENDBRANCH   1  21
TORSDOF 4
ENDMDL
MODEL 4
REMARK VINA RESULT: -6.379831871      1.772      2.485
REMARK  4 active torsions:
REMARK  status: ('A' for Active; 'I' for Inactive)
REMARK    1  A    between atoms: C2_2  and  C3_3 
REMARK    2  A    between atoms: C3_3  and  N1_4 
REMARK    3  A    between atoms: N2_14  and  C12_15 
REMARK    4  A    between atoms: C12_15  and  C13_16 
ROOT
HETATM    1  N1  UNL     1      28.222  -4.363  23.108  1.00  0.00     0.092 N 
HETATM    2  C4  UNL     1      26.903  -4.154  22.628  1.00  0.00     0.277 C 
HETATM    3  C5  UNL     1      26.089  -3.237  23.526  1.00  0.00     0.102 C 
HETATM    4  C6  UNL     1      25.808  -3.775  24.885  1.00  0.00     0.264 C 
HETATM    5  C7  UNL     1      26.904  -4.854  25.041  1.00  0.00     0.102 C 
HETATM    6  C8  UNL     1      28.233  -4.274  24.520  1.00  0.00     0.277 C 
HETATM    7  O1  UNL     1      26.067  -2.843  25.885  1.00  0.00    -0.352 OA
HETATM    8  C9  UNL     1      26.084  -3.319  27.160  1.00  0.00     0.172 C 
HETATM    9  C10 UNL     1      25.102  -4.404  27.496  1.00  0.00     0.056 C 
HETATM   10  C11 UNL     1      24.728  -5.234  26.277  1.00  0.00     0.278 C 
HETATM   11  N2  UNL     1      24.543  -4.318  25.113  1.00  0.00     0.124 N 
ENDROOT
BRANCH  11  12
HETATM   12  C12 UNL     1      23.408  -3.615  25.485  1.00  0.00     0.291 C 
BRANCH  12  13
HETATM   13  C13 UNL     1      22.383  -3.062  24.615  1.00  0.00     0.115 C 
HETATM   14  C14 UNL     1      21.482  -4.292  24.228  1.00  0.00     0.119 C 
HETATM   15  C15 UNL     1      20.775  -4.530  25.512  1.00  0.00     0.225 C 
HETATM   16  O2  UNL     1      20.368  -5.588  26.039  1.00  0.00    -0.273 OA
HETATM   17  N3  UNL     1      20.622  -3.222  26.103  1.00  0.00    -0.297 N 
HETATM   18  C16 UNL     1      21.280  -2.288  25.243  1.00  0.00     0.230 C 
ATOM     19  H3  UNL     1      20.136  -3.004  26.972  1.00  0.00     0.171 HD
HETATM   20  O3  UNL     1      20.994  -1.084  25.055  1.00  0.00    -0.273 OA
ENDBRANCH  12  13
ENDBRANCH  11  12
BRANCH   1  21
HETATM   21  C3  UNL     1      28.951  -5.425  22.514  1.00  0.00     0.299 C 
BRANCH  21  22
HETATM   22  C2  UNL     1      28.258  -5.989  21.333  1.00  0.00    -0.007 C 
HETATM   23  C1  UNL     1      28.605  -7.138  20.792  1.00  0.00     0.008 C 
ENDBRANCH  21  22
ENDBRANCH   1  21
TORSDOF 4
ENDMDL
MODEL 5
REMARK VINA RESULT: -6.337227108      2.328      6.404
REMARK  4 active torsions:
REMARK  status: ('A' for Active; 'I' for Inactive)
REMARK    1  A    between atoms: C2_2  and  C3_3 
REMARK    2  A    between atoms: C3_3  and  N1_4 
REMARK    3  A    between atoms: N2_14  and  C12_15 
REMARK    4  A    between atoms: C12_15  and  C13_16 
ROOT
HETATM    1  N1  UNL     1      21.857  -0.358  24.754  1.00  0.00     0.092 N 
HETATM    2  C4  UNL     1      21.814  -1.493  25.605  1.00  0.00     0.277 C 
HETATM    3  C5  UNL     1      23.196  -1.965  26.025  1.00  0.00     0.102 C 
HETATM    4  C6  UNL     1      24.047  -2.481  24.918  1.00  0.00     0.264 C 
HETATM    5  C7  UNL     1      23.380  -1.851  23.674  1.00  0.00     0.102 C 
HETATM    6  C8  UNL     1      23.050  -0.381  23.994  1.00  0.00     0.277 C 
HETATM    7  O1  UNL     1      25.333  -1.952  24.951  1.00  0.00    -0.352 OA
HETATM    8  C9  UNL     1      26.099  -2.163  23.845  1.00  0.00     0.172 C 
HETATM    9  C10 UNL     1      25.936  -3.483  23.147  1.00  0.00     0.056 C 
HETATM   10  C11 UNL     1      24.549  -4.072  23.354  1.00  0.00     0.278 C 
HETATM   11  N2  UNL     1      24.149  -3.866  24.777  1.00  0.00     0.124 N 
ENDROOT
BRANCH  11  12
HETATM   12  C12 UNL     1      25.041  -4.690  25.444  1.00  0.00     0.291 C 
BRANCH  12  13
HETATM   13  C13 UNL     1      24.766  -5.976  26.066  1.00  0.00     0.115 C 
HETATM   14  C14 UNL     1      25.826  -6.955  25.441  1.00  0.00     0.119 C 
HETATM   15  C15 UNL     1      27.064  -6.487  26.114  1.00  0.00     0.225 C 
HETATM   16  O2  UNL     1      28.248  -6.446  25.714  1.00  0.00    -0.273 OA
HETATM   17  N3  UNL     1      26.637  -6.049  27.420  1.00  0.00    -0.297 N 
HETATM   18  C16 UNL     1      25.214  -6.180  27.469  1.00  0.00     0.230 C 
ATOM     19  H3  UNL     1      27.237  -5.708  28.170  1.00  0.00     0.171 HD
HETATM   20  O3  UNL     1      24.497  -6.418  28.467  1.00  0.00    -0.273 OA
ENDBRANCH  12  13
ENDBRANCH  11  12
BRANCH   1  21
HETATM   21  C3  UNL     1      20.655  -0.031  24.076  1.00  0.00     0.299 C 
BRANCH  21  22
HETATM   22  C2  UNL     1      19.913  -1.234  23.637  1.00  0.00    -0.007 C 
HETATM   23  C1  UNL     1      19.824  -1.588  22.371  1.00  0.00     0.008 C 
ENDBRANCH  21  22
ENDBRANCH   1  21
TORSDOF 4
ENDMDL
