MODEL 1
REMARK VINA RESULT: -7.222991038      0.000      0.000
REMARK  6 active torsions:
REMARK  status: ('A' for Active; 'I' for Inactive)
REMARK    1  A    between atoms: N1_2  and  C3_4 
REMARK    2  A    between atoms: C3_4  and  C4_5 
REMARK    3  A    between atoms: C4_5  and  C5_6 
REMARK    4  A    between atoms: C5_6  and  O1_7 
REMARK    5  A    between atoms: C5_6  and  C6_9 
REMARK    6  A    between atoms: C17_20  and  C18_21 
ROOT
HETATM    1  C6  UNL     1       7.962  23.741  -6.788  1.00  0.00     0.028 C 
HETATM    2  C7  UNL     1       7.116  23.524  -8.077  1.00  0.00     0.009 C 
HETATM    3  C8  UNL     1       7.220  22.198  -8.676  1.00  0.00     0.006 C 
HETATM    4  C9  UNL     1       5.969  21.415  -8.339  1.00  0.00    -0.006 A 
HETATM    5  C10 UNL     1       4.659  22.105  -8.462  1.00  0.00     0.006 A 
HETATM    6  C11 UNL     1       4.538  22.054  -6.932  1.00  0.00     0.010 A 
HETATM    7  C12 UNL     1       5.789  21.288  -6.856  1.00  0.00    -0.035 A 
HETATM    8  C13 UNL     1       5.394  19.801  -6.603  1.00  0.00     0.016 C 
HETATM    9  C14 UNL     1       6.905  21.574  -5.999  1.00  0.00     0.011 C 
HETATM   10  C15 UNL     1       6.456  21.148  -4.602  1.00  0.00     0.034 C 
HETATM   11  C16 UNL     1       6.289  22.420  -3.916  1.00  0.00    -0.015 C 
HETATM   12  C17 UNL     1       6.948  23.396  -4.554  1.00  0.00    -0.015 C 
HETATM   13  C19 UNL     1       7.622  22.807  -5.715  1.00  0.00    -0.004 C 
HETATM   14  C20 UNL     1       8.927  22.324  -4.993  1.00  0.00     0.021 C 
ENDROOT
BRANCH   1  15
HETATM   15  C5  UNL     1       9.309  24.033  -7.279  1.00  0.00     0.125 C 
BRANCH  15  16
HETATM   16  C4  UNL     1       9.998  23.144  -8.259  1.00  0.00     0.062 C 
BRANCH  16  17
HETATM   17  C3  UNL     1      11.448  22.861  -7.766  1.00  0.00     0.274 C 
BRANCH  17  18
HETATM   18  N1  UNL     1      12.384  23.698  -8.438  1.00  0.00     0.080 N 
HETATM   19  C1  UNL     1      11.951  23.822  -9.817  1.00  0.00     0.309 C 
HETATM   20  C2  UNL     1      13.720  23.132  -8.451  1.00  0.00     0.309 C 
ENDBRANCH  17  18
ENDBRANCH  16  17
ENDBRANCH  15  16
BRANCH  15  21
HETATM   21  O1  UNL     1       9.585  25.388  -7.516  1.00  0.00    -0.395 OA
ATOM     22  H1  UNL     1      10.382  25.669  -7.082  1.00  0.00     0.210 HD
ENDBRANCH  15  21
ENDBRANCH   1  15
BRANCH  12  23
HETATM   23  C18 UNL     1       6.939  24.753  -4.069  1.00  0.00     0.266 C 
HETATM   24  O2  UNL     1       6.037  25.567  -4.239  1.00  0.00    -0.302 OA
ENDBRANCH  12  23
TORSDOF 6
ENDMDL
MODEL 2
REMARK VINA RESULT: -7.125292669      1.803      1.897
REMARK  6 active torsions:
REMARK  status: ('A' for Active; 'I' for Inactive)
REMARK    1  A    between atoms: N1_2  and  C3_4 
REMARK    2  A    between atoms: C3_4  and  C4_5 
REMARK    3  A    between atoms: C4_5  and  C5_6 
REMARK    4  A    between atoms: C5_6  and  O1_7 
REMARK    5  A    between atoms: C5_6  and  C6_9 
REMARK    6  A    between atoms: C17_20  and  C18_21 
ROOT
HETATM    1  C6  UNL     1       9.058  23.974  -7.004  1.00  0.00     0.028 C 
HETATM    2  C7  UNL     1       8.320  23.737  -8.354  1.00  0.00     0.009 C 
HETATM    3  C8  UNL     1       8.214  22.344  -8.772  1.00  0.00     0.006 C 
HETATM    4  C9  UNL     1       6.804  21.863  -8.504  1.00  0.00    -0.006 A 
HETATM    5  C10 UNL     1       5.678  22.761  -8.874  1.00  0.00     0.006 A 
HETATM    6  C11 UNL     1       5.397  22.952  -7.377  1.00  0.00     0.010 A 
HETATM    7  C12 UNL     1       6.454  21.985  -7.051  1.00  0.00    -0.035 A 
HETATM    8  C13 UNL     1       5.743  20.649  -6.674  1.00  0.00     0.016 C 
HETATM    9  C14 UNL     1       7.511  22.176  -6.101  1.00  0.00     0.011 C 
HETATM   10  C15 UNL     1       6.848  22.046  -4.731  1.00  0.00     0.034 C 
HETATM   11  C16 UNL     1       6.873  23.411  -4.229  1.00  0.00    -0.015 C 
HETATM   12  C17 UNL     1       7.776  24.146  -4.891  1.00  0.00    -0.015 C 
HETATM   13  C19 UNL     1       8.431  23.282  -5.878  1.00  0.00    -0.004 C 
HETATM   14  C20 UNL     1       9.532  22.672  -4.944  1.00  0.00     0.021 C 
ENDROOT
BRANCH   1  15
HETATM   15  C5  UNL     1      10.479  23.937  -7.352  1.00  0.00     0.125 C 
BRANCH  15  16
HETATM   16  C4  UNL     1      11.412  25.034  -6.961  1.00  0.00     0.062 C 
BRANCH  16  17
HETATM   17  C3  UNL     1      11.237  26.231  -7.943  1.00  0.00     0.274 C 
BRANCH  17  18
HETATM   18  N1  UNL     1      12.502  26.768  -8.317  1.00  0.00     0.080 N 
HETATM   19  C1  UNL     1      13.216  25.739  -9.049  1.00  0.00     0.309 C 
HETATM   20  C2  UNL     1      13.312  27.124  -7.167  1.00  0.00     0.309 C 
ENDBRANCH  17  18
ENDBRANCH  16  17
ENDBRANCH  15  16
BRANCH  15  21
HETATM   21  O1  UNL     1      11.089  22.677  -7.272  1.00  0.00    -0.395 OA
ATOM     22  H1  UNL     1      10.686  22.049  -7.860  1.00  0.00     0.210 HD
ENDBRANCH  15  21
ENDBRANCH   1  15
BRANCH  12  23
HETATM   23  C18 UNL     1       7.992  25.536  -4.578  1.00  0.00     0.266 C 
HETATM   24  O2  UNL     1       7.142  26.419  -4.622  1.00  0.00    -0.302 OA
ENDBRANCH  12  23
TORSDOF 6
ENDMDL
MODEL 3
REMARK VINA RESULT: -7.044282737      1.626      2.344
REMARK  6 active torsions:
REMARK  status: ('A' for Active; 'I' for Inactive)
REMARK    1  A    between atoms: N1_2  and  C3_4 
REMARK    2  A    between atoms: C3_4  and  C4_5 
REMARK    3  A    between atoms: C4_5  and  C5_6 
REMARK    4  A    between atoms: C5_6  and  O1_7 
REMARK    5  A    between atoms: C5_6  and  C6_9 
REMARK    6  A    between atoms: C17_20  and  C18_21 
ROOT
HETATM    1  C6  UNL     1       7.062  22.990  -5.399  1.00  0.00     0.028 C 
HETATM    2  C7  UNL     1       7.008  23.687  -6.790  1.00  0.00     0.009 C 
HETATM    3  C8  UNL     1       7.588  22.930  -7.892  1.00  0.00     0.006 C 
HETATM    4  C9  UNL     1       6.466  22.336  -8.716  1.00  0.00    -0.006 A 
HETATM    5  C10 UNL     1       5.302  23.204  -9.039  1.00  0.00     0.006 A 
HETATM    6  C11 UNL     1       4.450  22.331  -8.106  1.00  0.00     0.010 A 
HETATM    7  C12 UNL     1       5.596  21.439  -7.886  1.00  0.00    -0.035 A 
HETATM    8  C13 UNL     1       5.351  20.167  -8.753  1.00  0.00     0.016 C 
HETATM    9  C14 UNL     1       6.086  20.989  -6.615  1.00  0.00     0.011 C 
HETATM   10  C15 UNL     1       5.073  19.948  -6.142  1.00  0.00     0.034 C 
HETATM   11  C16 UNL     1       4.403  20.625  -5.042  1.00  0.00    -0.015 C 
HETATM   12  C17 UNL     1       5.140  21.651  -4.595  1.00  0.00    -0.015 C 
HETATM   13  C19 UNL     1       6.378  21.698  -5.378  1.00  0.00    -0.004 C 
HETATM   14  C20 UNL     1       7.210  20.665  -4.542  1.00  0.00     0.021 C 
ENDROOT
BRANCH   1  15
HETATM   15  C5  UNL     1       8.416  23.254  -4.910  1.00  0.00     0.125 C 
BRANCH  15  16
HETATM   16  C4  UNL     1       9.605  23.178  -5.809  1.00  0.00     0.062 C 
BRANCH  16  17
HETATM   17  C3  UNL     1      10.390  24.521  -5.737  1.00  0.00     0.274 C 
BRANCH  17  18
HETATM   18  N1  UNL     1      11.063  24.781  -6.965  1.00  0.00     0.080 N 
HETATM   19  C1  UNL     1      10.209  25.643  -7.759  1.00  0.00     0.309 C 
HETATM   20  C2  UNL     1      11.295  23.572  -7.734  1.00  0.00     0.309 C 
ENDBRANCH  17  18
ENDBRANCH  16  17
ENDBRANCH  15  16
BRANCH  15  21
HETATM   21  O1  UNL     1       8.530  24.296  -3.978  1.00  0.00    -0.395 OA
ATOM     22  H1  UNL     1       8.934  25.068  -4.355  1.00  0.00     0.210 HD
ENDBRANCH  15  21
ENDBRANCH   1  15
BRANCH  12  23
HETATM   23  C18 UNL     1       4.692  22.481  -3.505  1.00  0.00     0.266 C 
HETATM   24  O2  UNL     1       5.387  22.873  -2.574  1.00  0.00    -0.302 OA
ENDBRANCH  12  23
TORSDOF 6
ENDMDL
MODEL 4
REMARK VINA RESULT: -6.952900037      2.653      4.429
REMARK  6 active torsions:
REMARK  status: ('A' for Active; 'I' for Inactive)
REMARK    1  A    between atoms: N1_2  and  C3_4 
REMARK    2  A    between atoms: C3_4  and  C4_5 
REMARK    3  A    between atoms: C4_5  and  C5_6 
REMARK    4  A    between atoms: C5_6  and  O1_7 
REMARK    5  A    between atoms: C5_6  and  C6_9 
REMARK    6  A    between atoms: C17_20  and  C18_21 
ROOT
HETATM    1  C6  UNL     1       6.576  23.401  -7.602  1.00  0.00     0.028 C 
HETATM    2  C7  UNL     1       5.167  22.779  -7.377  1.00  0.00     0.009 C 
HETATM    3  C8  UNL     1       5.101  21.325  -7.480  1.00  0.00     0.006 C 
HETATM    4  C9  UNL     1       5.018  20.745  -6.084  1.00  0.00    -0.006 A 
HETATM    5  C10 UNL     1       4.096  21.390  -5.113  1.00  0.00     0.006 A 
HETATM    6  C11 UNL     1       5.327  21.873  -4.333  1.00  0.00     0.010 A 
HETATM    7  C12 UNL     1       6.204  21.142  -5.257  1.00  0.00    -0.035 A 
HETATM    8  C13 UNL     1       6.659  19.846  -4.519  1.00  0.00     0.016 C 
HETATM    9  C14 UNL     1       7.361  21.671  -5.921  1.00  0.00     0.011 C 
HETATM   10  C15 UNL     1       8.435  21.767  -4.838  1.00  0.00     0.034 C 
HETATM   11  C16 UNL     1       8.558  23.202  -4.632  1.00  0.00    -0.015 C 
HETATM   12  C17 UNL     1       8.055  23.878  -5.674  1.00  0.00    -0.015 C 
HETATM   13  C19 UNL     1       7.579  22.905  -6.661  1.00  0.00    -0.004 C 
HETATM   14  C20 UNL     1       8.937  22.660  -7.406  1.00  0.00     0.021 C 
ENDROOT
BRANCH   1  15
HETATM   15  C5  UNL     1       6.719  23.465  -9.058  1.00  0.00     0.125 C 
BRANCH  15  16
HETATM   16  C4  UNL     1       5.611  23.066  -9.974  1.00  0.00     0.062 C 
BRANCH  16  17
HETATM   17  C3  UNL     1       5.194  24.292 -10.840  1.00  0.00     0.274 C 
BRANCH  17  18
HETATM   18  N1  UNL     1       3.848  24.669 -10.569  1.00  0.00     0.080 N 
HETATM   19  C1  UNL     1       3.073  23.451 -10.418  1.00  0.00     0.309 C 
HETATM   20  C2  UNL     1       3.258  25.427 -11.657  1.00  0.00     0.309 C 
ENDBRANCH  17  18
ENDBRANCH  16  17
ENDBRANCH  15  16
BRANCH  15  21
HETATM   21  O1  UNL     1       7.433  24.569  -9.547  1.00  0.00    -0.395 OA
ATOM     22  H1  UNL     1       8.352  24.532  -9.309  1.00  0.00     0.210 HD
ENDBRANCH  15  21
ENDBRANCH   1  15
BRANCH  12  23
HETATM   23  C18 UNL     1       8.060  25.318  -5.710  1.00  0.00     0.266 C 
HETATM   24  O2  UNL     1       7.405  26.054  -4.980  1.00  0.00    -0.302 OA
ENDBRANCH  12  23
TORSDOF 6
ENDMDL
MODEL 5
REMARK VINA RESULT: -6.869259884      2.744      7.533
REMARK  6 active torsions:
REMARK  status: ('A' for Active; 'I' for Inactive)
REMARK    1  A    between atoms: N1_2  and  C3_4 
REMARK    2  A    between atoms: C3_4  and  C4_5 
REMARK    3  A    between atoms: C4_5  and  C5_6 
REMARK    4  A    between atoms: C5_6  and  O1_7 
REMARK    5  A    between atoms: C5_6  and  C6_9 
REMARK    6  A    between atoms: C17_20  and  C18_21 
ROOT
HETATM    1  C6  UNL     1      11.300  25.528  -8.290  1.00  0.00     0.028 C 
HETATM    2  C7  UNL     1      12.028  26.898  -8.164  1.00  0.00     0.009 C 
HETATM    3  C8  UNL     1      13.082  26.955  -7.157  1.00  0.00     0.006 C 
HETATM    4  C9  UNL     1      14.423  26.885  -7.855  1.00  0.00    -0.006 A 
HETATM    5  C10 UNL     1      14.618  27.709  -9.077  1.00  0.00     0.006 A 
HETATM    6  C11 UNL     1      14.651  26.411  -9.895  1.00  0.00     0.010 A 
HETATM    7  C12 UNL     1      14.554  25.624  -8.657  1.00  0.00    -0.035 A 
HETATM    8  C13 UNL     1      15.984  25.079  -8.357  1.00  0.00     0.016 C 
HETATM    9  C14 UNL     1      13.637  24.549  -8.408  1.00  0.00     0.011 C 
HETATM   10  C15 UNL     1      14.171  23.371  -9.219  1.00  0.00     0.034 C 
HETATM   11  C16 UNL     1      13.193  23.246 -10.289  1.00  0.00    -0.015 C 
HETATM   12  C17 UNL     1      12.050  23.862  -9.963  1.00  0.00    -0.015 C 
HETATM   13  C19 UNL     1      12.203  24.426  -8.618  1.00  0.00    -0.004 C 
HETATM   14  C20 UNL     1      11.811  23.150  -7.796  1.00  0.00     0.021 C 
ENDROOT
BRANCH   1  15
HETATM   15  C5  UNL     1      10.311  25.538  -7.210  1.00  0.00     0.125 C 
BRANCH  15  16
HETATM   16  C4  UNL     1      10.625  25.000  -5.854  1.00  0.00     0.062 C 
BRANCH  16  17
HETATM   17  C3  UNL     1       9.296  24.692  -5.103  1.00  0.00     0.274 C 
BRANCH  17  18
HETATM   18  N1  UNL     1       8.547  23.692  -5.787  1.00  0.00     0.080 N 
HETATM   19  C1  UNL     1       7.151  24.084  -5.745  1.00  0.00     0.309 C 
HETATM   20  C2  UNL     1       8.653  22.392  -5.151  1.00  0.00     0.309 C 
ENDBRANCH  17  18
ENDBRANCH  16  17
ENDBRANCH  15  16
BRANCH  15  21
HETATM   21  O1  UNL     1       9.496  26.677  -7.147  1.00  0.00    -0.395 OA
ATOM     22  H1  UNL     1       9.587  27.133  -6.319  1.00  0.00     0.210 HD
ENDBRANCH  15  21
ENDBRANCH   1  15
BRANCH  12  23
HETATM   23  C18 UNL     1      10.921  23.880 -10.860  1.00  0.00     0.266 C 
HETATM   24  O2  UNL     1       9.796  23.466 -10.601  1.00  0.00    -0.302 OA
ENDBRANCH  12  23
TORSDOF 6
ENDMDL
