MODEL 1
REMARK VINA RESULT: -8.121178507      0.000      0.000
REMARK  6 active torsions:
REMARK  status: ('A' for Active; 'I' for Inactive)
REMARK    1  A    between atoms: N1_5  and  C5_6 
REMARK    2  A    between atoms: C5_6  and  C6_7 
REMARK    3  A    between atoms: C6_7  and  C7_8 
REMARK    4  A    between atoms: C7_8  and  O1_9 
REMARK    5  A    between atoms: O1_9  and  C8_10 
REMARK    6  A    between atoms: C8_10  and  C9_12 
ROOT
HETATM    1  C8  UNL     1       6.608  24.525  -3.964  1.00  0.00     0.267 C 
HETATM    2  O2  UNL     1       6.652  24.846  -2.760  1.00  0.00    -0.264 OA
ENDROOT
BRANCH   1   3
HETATM    3  O1  UNL     1       7.011  25.393  -4.935  1.00  0.00    -0.321 OA
BRANCH   3   4
HETATM    4  C7  UNL     1       8.269  25.993  -4.987  1.00  0.00     0.180 C 
BRANCH   4   5
HETATM    5  C6  UNL     1       9.311  25.039  -5.463  1.00  0.00     0.057 C 
BRANCH   5   6
HETATM    6  C5  UNL     1       9.915  25.463  -6.790  1.00  0.00     0.274 C 
BRANCH   6   7
HETATM    7  N1  UNL     1       9.412  24.718  -7.896  1.00  0.00     0.088 N 
HETATM    8  C4  UNL     1       9.179  23.341  -7.556  1.00  0.00     0.272 C 
HETATM    9  C3  UNL     1       8.566  22.562  -8.697  1.00  0.00     0.034 C 
HETATM   10  C2  UNL     1       8.713  23.286 -10.016  1.00  0.00    -0.015 C 
HETATM   11  C1  UNL     1       7.547  24.236 -10.200  1.00  0.00     0.010 C 
HETATM   12  C20 UNL     1      10.009  24.009 -10.166  1.00  0.00     0.034 C 
HETATM   13  C19 UNL     1      10.446  24.742  -8.940  1.00  0.00     0.272 C 
ENDBRANCH   6   7
ENDBRANCH   5   6
ENDBRANCH   4   5
ENDBRANCH   3   4
ENDBRANCH   1   3
BRANCH   1  14
HETATM   14  C9  UNL     1       6.112  23.175  -4.403  1.00  0.00     0.049 C 
HETATM   15  C10 UNL     1       5.279  22.636  -3.254  1.00  0.00     0.024 C 
HETATM   16  C11 UNL     1       4.704  21.310  -3.701  1.00  0.00    -0.013 C 
HETATM   17  C12 UNL     1       3.850  21.526  -4.911  1.00  0.00     0.009 C 
HETATM   18  C16 UNL     1       5.856  20.374  -3.935  1.00  0.00     0.009 C 
HETATM   19  C13 UNL     1       4.717  21.999  -6.056  1.00  0.00    -0.013 C 
HETATM   20  C14 UNL     1       5.820  20.999  -6.284  1.00  0.00     0.009 C 
HETATM   21  C18 UNL     1       5.302  23.332  -5.654  1.00  0.00     0.024 C 
HETATM   22  C15 UNL     1       6.707  20.914  -5.071  1.00  0.00    -0.013 C 
HETATM   23  C17 UNL     1       7.277  22.249  -4.684  1.00  0.00     0.024 C 
ENDBRANCH   1  14
TORSDOF 6
ENDMDL
MODEL 2
REMARK VINA RESULT: -8.104252884      0.529      1.634
REMARK  6 active torsions:
REMARK  status: ('A' for Active; 'I' for Inactive)
REMARK    1  A    between atoms: N1_5  and  C5_6 
REMARK    2  A    between atoms: C5_6  and  C6_7 
REMARK    3  A    between atoms: C6_7  and  C7_8 
REMARK    4  A    between atoms: C7_8  and  O1_9 
REMARK    5  A    between atoms: O1_9  and  C8_10 
REMARK    6  A    between atoms: C8_10  and  C9_12 
ROOT
HETATM    1  C8  UNL     1       6.817  24.527  -4.258  1.00  0.00     0.267 C 
HETATM    2  O2  UNL     1       6.116  25.551  -4.137  1.00  0.00    -0.264 OA
ENDROOT
BRANCH   1   3
HETATM    3  O1  UNL     1       8.176  24.594  -4.179  1.00  0.00    -0.321 OA
BRANCH   3   4
HETATM    4  C7  UNL     1       8.970  25.456  -4.935  1.00  0.00     0.180 C 
BRANCH   4   5
HETATM    5  C6  UNL     1      10.007  24.710  -5.705  1.00  0.00     0.057 C 
BRANCH   5   6
HETATM    6  C5  UNL     1      10.249  25.313  -7.077  1.00  0.00     0.274 C 
BRANCH   6   7
HETATM    7  N1  UNL     1       9.600  24.597  -8.124  1.00  0.00     0.088 N 
HETATM    8  C4  UNL     1       9.300  23.243  -7.745  1.00  0.00     0.272 C 
HETATM    9  C3  UNL     1       8.537  22.499  -8.816  1.00  0.00     0.034 C 
HETATM   10  C2  UNL     1       8.620  23.199 -10.154  1.00  0.00    -0.015 C 
HETATM   11  C1  UNL     1       7.512  24.229 -10.252  1.00  0.00     0.010 C 
HETATM   12  C20 UNL     1       9.946  23.825 -10.426  1.00  0.00     0.034 C 
HETATM   13  C19 UNL     1      10.539  24.537  -9.254  1.00  0.00     0.272 C 
ENDBRANCH   6   7
ENDBRANCH   5   6
ENDBRANCH   4   5
ENDBRANCH   3   4
ENDBRANCH   1   3
BRANCH   1  14
HETATM   14  C9  UNL     1       6.203  23.175  -4.495  1.00  0.00     0.049 C 
HETATM   15  C10 UNL     1       5.272  23.335  -5.684  1.00  0.00     0.024 C 
HETATM   16  C11 UNL     1       4.699  21.970  -5.992  1.00  0.00    -0.013 C 
HETATM   17  C12 UNL     1       5.816  21.031  -6.325  1.00  0.00     0.009 C 
HETATM   18  C16 UNL     1       3.885  21.542  -4.803  1.00  0.00     0.009 C 
HETATM   19  C13 UNL     1       6.688  20.838  -5.104  1.00  0.00    -0.013 C 
HETATM   20  C14 UNL     1       5.834  20.358  -3.960  1.00  0.00     0.009 C 
HETATM   21  C18 UNL     1       7.292  22.182  -4.769  1.00  0.00     0.024 C 
HETATM   22  C15 UNL     1       4.806  21.397  -3.603  1.00  0.00    -0.013 C 
HETATM   23  C17 UNL     1       5.423  22.726  -3.277  1.00  0.00     0.024 C 
ENDBRANCH   1  14
TORSDOF 6
ENDMDL
MODEL 3
REMARK VINA RESULT: -8.081743468      1.360      1.705
REMARK  6 active torsions:
REMARK  status: ('A' for Active; 'I' for Inactive)
REMARK    1  A    between atoms: N1_5  and  C5_6 
REMARK    2  A    between atoms: C5_6  and  C6_7 
REMARK    3  A    between atoms: C6_7  and  C7_8 
REMARK    4  A    between atoms: C7_8  and  O1_9 
REMARK    5  A    between atoms: O1_9  and  C8_10 
REMARK    6  A    between atoms: C8_10  and  C9_12 
ROOT
HETATM    1  C8  UNL     1       6.514  24.518  -3.913  1.00  0.00     0.267 C 
HETATM    2  O2  UNL     1       6.541  24.839  -2.709  1.00  0.00    -0.264 OA
ENDROOT
BRANCH   1   3
HETATM    3  O1  UNL     1       6.904  25.394  -4.881  1.00  0.00    -0.321 OA
BRANCH   3   4
HETATM    4  C7  UNL     1       8.120  26.076  -4.887  1.00  0.00     0.180 C 
BRANCH   4   5
HETATM    5  C6  UNL     1       9.233  25.205  -5.363  1.00  0.00     0.057 C 
BRANCH   5   6
HETATM    6  C5  UNL     1       8.947  24.601  -6.727  1.00  0.00     0.274 C 
BRANCH   6   7
HETATM    7  N1  UNL     1      10.129  24.328  -7.475  1.00  0.00     0.088 N 
HETATM    8  C4  UNL     1      10.780  23.124  -7.033  1.00  0.00     0.272 C 
HETATM    9  C3  UNL     1      11.987  22.780  -7.875  1.00  0.00     0.034 C 
HETATM   10  C2  UNL     1      12.451  23.957  -8.701  1.00  0.00    -0.015 C 
HETATM   11  C1  UNL     1      11.695  23.980 -10.014  1.00  0.00     0.010 C 
HETATM   12  C20 UNL     1      12.330  25.270  -8.003  1.00  0.00     0.034 C 
HETATM   13  C19 UNL     1      11.059  25.441  -7.238  1.00  0.00     0.272 C 
ENDBRANCH   6   7
ENDBRANCH   5   6
ENDBRANCH   4   5
ENDBRANCH   3   4
ENDBRANCH   1   3
BRANCH   1  14
HETATM   14  C9  UNL     1       6.054  23.156  -4.356  1.00  0.00     0.049 C 
HETATM   15  C10 UNL     1       5.241  22.589  -3.205  1.00  0.00     0.024 C 
HETATM   16  C11 UNL     1       4.702  21.250  -3.655  1.00  0.00    -0.013 C 
HETATM   17  C12 UNL     1       3.836  21.447  -4.860  1.00  0.00     0.009 C 
HETATM   18  C16 UNL     1       5.878  20.347  -3.898  1.00  0.00     0.009 C 
HETATM   19  C13 UNL     1       4.684  21.948  -6.008  1.00  0.00    -0.013 C 
HETATM   20  C14 UNL     1       5.814  20.980  -6.245  1.00  0.00     0.009 C 
HETATM   21  C18 UNL     1       5.234  23.296  -5.603  1.00  0.00     0.024 C 
HETATM   22  C15 UNL     1       6.708  20.916  -5.036  1.00  0.00    -0.013 C 
HETATM   23  C17 UNL     1       7.242  22.263  -4.645  1.00  0.00     0.024 C 
ENDBRANCH   1  14
TORSDOF 6
ENDMDL
MODEL 4
REMARK VINA RESULT: -8.060127770      0.551      1.662
REMARK  6 active torsions:
REMARK  status: ('A' for Active; 'I' for Inactive)
REMARK    1  A    between atoms: N1_5  and  C5_6 
REMARK    2  A    between atoms: C5_6  and  C6_7 
REMARK    3  A    between atoms: C6_7  and  C7_8 
REMARK    4  A    between atoms: C7_8  and  O1_9 
REMARK    5  A    between atoms: O1_9  and  C8_10 
REMARK    6  A    between atoms: C8_10  and  C9_12 
ROOT
HETATM    1  C8  UNL     1       6.888  24.455  -4.345  1.00  0.00     0.267 C 
HETATM    2  O2  UNL     1       6.251  25.517  -4.203  1.00  0.00    -0.264 OA
ENDROOT
BRANCH   1   3
HETATM    3  O1  UNL     1       8.249  24.439  -4.271  1.00  0.00    -0.321 OA
BRANCH   3   4
HETATM    4  C7  UNL     1       9.088  25.333  -4.938  1.00  0.00     0.180 C 
BRANCH   4   5
HETATM    5  C6  UNL     1      10.065  24.619  -5.809  1.00  0.00     0.057 C 
BRANCH   5   6
HETATM    6  C5  UNL     1      10.205  25.273  -7.173  1.00  0.00     0.274 C 
BRANCH   6   7
HETATM    7  N1  UNL     1       9.526  24.563  -8.205  1.00  0.00     0.088 N 
HETATM    8  C4  UNL     1       9.230  23.209  -7.823  1.00  0.00     0.272 C 
HETATM    9  C3  UNL     1       8.435  22.473  -8.877  1.00  0.00     0.034 C 
HETATM   10  C2  UNL     1       8.486  23.178 -10.214  1.00  0.00    -0.015 C 
HETATM   11  C1  UNL     1       7.381  24.213 -10.278  1.00  0.00     0.010 C 
HETATM   12  C20 UNL     1       9.807  23.800 -10.518  1.00  0.00     0.034 C 
HETATM   13  C19 UNL     1      10.434  24.504  -9.359  1.00  0.00     0.272 C 
ENDBRANCH   6   7
ENDBRANCH   5   6
ENDBRANCH   4   5
ENDBRANCH   3   4
ENDBRANCH   1   3
BRANCH   1  14
HETATM   14  C9  UNL     1       6.193  23.147  -4.604  1.00  0.00     0.049 C 
HETATM   15  C10 UNL     1       7.290  22.125  -4.847  1.00  0.00     0.024 C 
HETATM   16  C11 UNL     1       6.619  20.783  -5.034  1.00  0.00    -0.013 C 
HETATM   17  C12 UNL     1       5.849  20.441  -3.797  1.00  0.00     0.009 C 
HETATM   18  C16 UNL     1       5.768  20.871  -6.269  1.00  0.00     0.009 C 
HETATM   19  C13 UNL     1       4.724  21.435  -3.617  1.00  0.00    -0.013 C 
HETATM   20  C14 UNL     1       3.871  21.444  -4.860  1.00  0.00     0.009 C 
HETATM   21  C18 UNL     1       5.354  22.793  -3.414  1.00  0.00     0.024 C 
HETATM   22  C15 UNL     1       4.678  21.905  -6.043  1.00  0.00    -0.013 C 
HETATM   23  C17 UNL     1       5.300  23.254  -5.822  1.00  0.00     0.024 C 
ENDBRANCH   1  14
TORSDOF 6
ENDMDL
MODEL 5
REMARK VINA RESULT: -8.025706399      1.359      2.297
REMARK  6 active torsions:
REMARK  status: ('A' for Active; 'I' for Inactive)
REMARK    1  A    between atoms: N1_5  and  C5_6 
REMARK    2  A    between atoms: C5_6  and  C6_7 
REMARK    3  A    between atoms: C6_7  and  C7_8 
REMARK    4  A    between atoms: C7_8  and  O1_9 
REMARK    5  A    between atoms: O1_9  and  C8_10 
REMARK    6  A    between atoms: C8_10  and  C9_12 
ROOT
HETATM    1  C8  UNL     1       6.581  24.519  -3.862  1.00  0.00     0.267 C 
HETATM    2  O2  UNL     1       6.766  24.778  -2.657  1.00  0.00    -0.264 OA
ENDROOT
BRANCH   1   3
HETATM    3  O1  UNL     1       6.897  25.425  -4.831  1.00  0.00    -0.321 OA
BRANCH   3   4
HETATM    4  C7  UNL     1       8.094  26.138  -4.885  1.00  0.00     0.180 C 
BRANCH   4   5
HETATM    5  C6  UNL     1       9.225  25.275  -5.331  1.00  0.00     0.057 C 
BRANCH   5   6
HETATM    6  C5  UNL     1       8.930  24.575  -6.646  1.00  0.00     0.274 C 
BRANCH   6   7
HETATM    7  N1  UNL     1      10.101  24.317  -7.417  1.00  0.00     0.088 N 
HETATM    8  C4  UNL     1      10.766  23.112  -7.000  1.00  0.00     0.272 C 
HETATM    9  C3  UNL     1      11.961  22.785  -7.865  1.00  0.00     0.034 C 
HETATM   10  C2  UNL     1      12.406  23.975  -8.684  1.00  0.00    -0.015 C 
HETATM   11  C1  UNL     1      11.629  24.009  -9.984  1.00  0.00     0.010 C 
HETATM   12  C20 UNL     1      12.289  25.278  -7.968  1.00  0.00     0.034 C 
HETATM   13  C19 UNL     1      11.029  25.433  -7.181  1.00  0.00     0.272 C 
ENDBRANCH   6   7
ENDBRANCH   5   6
ENDBRANCH   4   5
ENDBRANCH   3   4
ENDBRANCH   1   3
BRANCH   1  14
HETATM   14  C9  UNL     1       6.004  23.203  -4.306  1.00  0.00     0.049 C 
HETATM   15  C10 UNL     1       7.189  22.300  -4.602  1.00  0.00     0.024 C 
HETATM   16  C11 UNL     1       6.635  20.943  -4.977  1.00  0.00    -0.013 C 
HETATM   17  C12 UNL     1       5.838  20.402  -3.831  1.00  0.00     0.009 C 
HETATM   18  C16 UNL     1       5.837  21.113  -6.239  1.00  0.00     0.009 C 
HETATM   19  C13 UNL     1       4.631  21.284  -3.602  1.00  0.00    -0.013 C 
HETATM   20  C14 UNL     1       3.839  21.376  -4.880  1.00  0.00     0.009 C 
HETATM   21  C18 UNL     1       5.142  22.651  -3.211  1.00  0.00     0.024 C 
HETATM   22  C15 UNL     1       4.660  22.031  -5.957  1.00  0.00    -0.013 C 
HETATM   23  C17 UNL     1       5.162  23.386  -5.551  1.00  0.00     0.024 C 
ENDBRANCH   1  14
TORSDOF 6
ENDMDL
