MODEL 1
REMARK VINA RESULT: -8.067775326      0.000      0.000
REMARK  3 active torsions:
REMARK  status: ('A' for Active; 'I' for Inactive)
REMARK    1  A    between atoms: C2_2  and  C3_3 
REMARK    2  A    between atoms: C7_10  and  C8_11 
REMARK    3  A    between atoms: C13_17  and  N3_18 
ROOT
HETATM    1  C3  UNL     1       9.683   9.800   1.819  1.00  0.00     0.009 A 
HETATM    2  C4  UNL     1       8.436   9.611   1.214  1.00  0.00     0.047 A 
HETATM    3  C5  UNL     1       7.325   9.589   2.008  1.00  0.00     0.063 A 
HETATM    4  N1  UNL     1       6.112   9.407   1.410  1.00  0.00    -0.321 N 
ATOM      5  H1  UNL     1       6.064   9.291   0.397  1.00  0.00     0.169 HD
HETATM    6  C6  UNL     1       4.980   9.378   2.133  1.00  0.00     0.252 A 
HETATM    7  O1  UNL     1       3.857   9.208   1.566  1.00  0.00    -0.268 OA
HETATM    8  C7  UNL     1       5.006   9.530   3.500  1.00  0.00     0.012 A 
HETATM    9  C10 UNL     1       6.249   9.714   4.089  1.00  0.00     0.044 A 
HETATM   10  C11 UNL     1       7.444   9.750   3.370  1.00  0.00     0.063 A 
HETATM   11  N2  UNL     1       8.644   9.931   3.944  1.00  0.00    -0.335 N 
HETATM   12  C12 UNL     1       8.758  10.087   5.377  1.00  0.00     0.158 C 
HETATM   13  C13 UNL     1       9.791   9.961   3.164  1.00  0.00     0.113 A 
ENDROOT
BRANCH  13  14
HETATM   14  N3  UNL     1      10.962  10.249   3.893  1.00  0.00    -0.380 N 
HETATM   15  C14 UNL     1      11.994   9.320   4.233  1.00  0.00     0.147 C 
ATOM     16  H3  UNL     1      11.086  11.211   4.206  1.00  0.00     0.160 HD
ENDBRANCH  13  14
BRANCH   1  17
HETATM   17  C2  UNL     1      10.827   9.796   0.932  1.00  0.00     0.005 C 
HETATM   18  C1  UNL     1      10.736  10.499  -0.188  1.00  0.00     0.012 C 
ENDBRANCH   1  17
BRANCH   8  19
HETATM   19  C8  UNL     1       3.761   9.503   4.334  1.00  0.00     0.040 C 
HETATM   20  C9  UNL     1       4.046   9.948   5.750  1.00  0.00     0.010 C 
ENDBRANCH   8  19
TORSDOF 3
ENDMDL
MODEL 2
REMARK VINA RESULT: -7.573355087      1.731      3.144
REMARK  3 active torsions:
REMARK  status: ('A' for Active; 'I' for Inactive)
REMARK    1  A    between atoms: C2_2  and  C3_3 
REMARK    2  A    between atoms: C7_10  and  C8_11 
REMARK    3  A    between atoms: C13_17  and  N3_18 
ROOT
HETATM    1  C3  UNL     1      10.391  10.133   3.320  1.00  0.00     0.009 A 
HETATM    2  C4  UNL     1       9.446  10.216   4.346  1.00  0.00     0.047 A 
HETATM    3  C5  UNL     1       8.127  10.044   4.033  1.00  0.00     0.063 A 
HETATM    4  N1  UNL     1       7.211  10.124   5.040  1.00  0.00    -0.321 N 
ATOM      5  H1  UNL     1       7.527  10.311   5.992  1.00  0.00     0.169 HD
HETATM    6  C6  UNL     1       5.899   9.962   4.799  1.00  0.00     0.252 A 
HETATM    7  O1  UNL     1       5.056  10.039   5.745  1.00  0.00    -0.268 OA
HETATM    8  C7  UNL     1       5.436   9.710   3.529  1.00  0.00     0.012 A 
HETATM    9  C10 UNL     1       6.384   9.632   2.517  1.00  0.00     0.044 A 
HETATM   10  C11 UNL     1       7.753   9.795   2.732  1.00  0.00     0.063 A 
HETATM   11  N2  UNL     1       8.667   9.716   1.751  1.00  0.00    -0.335 N 
HETATM   12  C12 UNL     1       8.260   9.466   0.386  1.00  0.00     0.158 C 
HETATM   13  C13 UNL     1      10.013   9.884   2.038  1.00  0.00     0.113 A 
ENDROOT
BRANCH  13  14
HETATM   14  N3  UNL     1      10.858   9.684   0.928  1.00  0.00    -0.380 N 
HETATM   15  C14 UNL     1      11.493  10.706   0.157  1.00  0.00     0.147 C 
ATOM     16  H3  UNL     1      11.032   8.718   0.650  1.00  0.00     0.160 HD
ENDBRANCH  13  14
BRANCH   1  17
HETATM   17  C2  UNL     1      11.770  10.343   3.707  1.00  0.00     0.005 C 
HETATM   18  C1  UNL     1      12.266   9.559   4.655  1.00  0.00     0.012 C 
ENDBRANCH   1  17
BRANCH   8  19
HETATM   19  C8  UNL     1       3.981   9.523   3.228  1.00  0.00     0.040 C 
HETATM   20  C9  UNL     1       3.766   9.183   1.771  1.00  0.00     0.010 C 
ENDBRANCH   8  19
TORSDOF 3
ENDMDL
MODEL 3
REMARK VINA RESULT: -7.560456534      2.445      6.138
REMARK  3 active torsions:
REMARK  status: ('A' for Active; 'I' for Inactive)
REMARK    1  A    between atoms: C2_2  and  C3_3 
REMARK    2  A    between atoms: C7_10  and  C8_11 
REMARK    3  A    between atoms: C13_17  and  N3_18 
ROOT
HETATM    1  C3  UNL     1       6.061  10.189   4.378  1.00  0.00     0.009 A 
HETATM    2  C4  UNL     1       7.250  10.097   5.107  1.00  0.00     0.047 A 
HETATM    3  C5  UNL     1       8.419   9.909   4.426  1.00  0.00     0.063 A 
HETATM    4  N1  UNL     1       9.576   9.824   5.144  1.00  0.00    -0.321 N 
ATOM      5  H1  UNL     1       9.542   9.899   6.161  1.00  0.00     0.169 HD
HETATM    6  C6  UNL     1      10.759   9.641   4.535  1.00  0.00     0.252 A 
HETATM    7  O1  UNL     1      11.829   9.563   5.213  1.00  0.00    -0.268 OA
HETATM    8  C7  UNL     1      10.844   9.534   3.166  1.00  0.00     0.012 A 
HETATM    9  C10 UNL     1       9.657   9.624   2.453  1.00  0.00     0.044 A 
HETATM   10  C11 UNL     1       8.411   9.813   3.052  1.00  0.00     0.063 A 
HETATM   11  N2  UNL     1       7.265   9.902   2.359  1.00  0.00    -0.335 N 
HETATM   12  C12 UNL     1       7.268   9.788   0.917  1.00  0.00     0.158 C 
HETATM   13  C13 UNL     1       6.063  10.095   3.022  1.00  0.00     0.113 A 
ENDROOT
BRANCH  13  14
HETATM   14  N3  UNL     1       4.961  10.260   2.159  1.00  0.00    -0.380 N 
HETATM   15  C14 UNL     1       3.961   9.280   1.873  1.00  0.00     0.147 C 
ATOM     16  H3  UNL     1       4.868  11.164   1.696  1.00  0.00     0.160 HD
ENDBRANCH  13  14
BRANCH   1  17
HETATM   17  C2  UNL     1       4.852  10.369   5.153  1.00  0.00     0.005 C 
HETATM   18  C1  UNL     1       4.090   9.303   5.355  1.00  0.00     0.012 C 
ENDBRANCH   1  17
BRANCH   8  19
HETATM   19  C8  UNL     1      12.148   9.332   2.456  1.00  0.00     0.040 C 
HETATM   20  C9  UNL     1      12.469  10.508   1.563  1.00  0.00     0.010 C 
ENDBRANCH   8  19
TORSDOF 3
ENDMDL
MODEL 4
REMARK VINA RESULT: -7.162668883      2.596      6.149
REMARK  3 active torsions:
REMARK  status: ('A' for Active; 'I' for Inactive)
REMARK    1  A    between atoms: C2_2  and  C3_3 
REMARK    2  A    between atoms: C7_10  and  C8_11 
REMARK    3  A    between atoms: C13_17  and  N3_18 
ROOT
HETATM    1  C3  UNL     1       6.521   9.264   4.112  1.00  0.00     0.009 A 
HETATM    2  C4  UNL     1       7.697   8.798   4.706  1.00  0.00     0.047 A 
HETATM    3  C5  UNL     1       8.822   8.702   3.936  1.00  0.00     0.063 A 
HETATM    4  N1  UNL     1       9.967   8.248   4.523  1.00  0.00    -0.321 N 
ATOM      5  H1  UNL     1       9.956   7.992   5.510  1.00  0.00     0.169 HD
HETATM    6  C6  UNL     1      11.107   8.133   3.822  1.00  0.00     0.252 A 
HETATM    7  O1  UNL     1      12.166   7.709   4.379  1.00  0.00    -0.268 OA
HETATM    8  C7  UNL     1      11.158   8.468   2.489  1.00  0.00     0.012 A 
HETATM    9  C10 UNL     1       9.984   8.928   1.910  1.00  0.00     0.044 A 
HETATM   10  C11 UNL     1       8.782   9.060   2.607  1.00  0.00     0.063 A 
HETATM   11  N2  UNL     1       7.649   9.508   2.044  1.00  0.00    -0.335 N 
HETATM   12  C12 UNL     1       7.617   9.870   0.644  1.00  0.00     0.158 C 
HETATM   13  C13 UNL     1       6.492   9.618   2.800  1.00  0.00     0.113 A 
ENDROOT
BRANCH  13  14
HETATM   14  N3  UNL     1       5.410  10.187   2.099  1.00  0.00    -0.380 N 
HETATM   15  C14 UNL     1       4.156   9.556   1.827  1.00  0.00     0.147 C 
ATOM     16  H3  UNL     1       5.533  11.138   1.753  1.00  0.00     0.160 HD
ENDBRANCH  13  14
BRANCH   1  17
HETATM   17  C2  UNL     1       5.357   9.327   4.970  1.00  0.00     0.005 C 
HETATM   18  C1  UNL     1       5.137  10.461   5.621  1.00  0.00     0.012 C 
ENDBRANCH   1  17
BRANCH   8  19
HETATM   19  C8  UNL     1      12.414   8.352   1.680  1.00  0.00     0.040 C 
HETATM   20  C9  UNL     1      13.120   9.685   1.578  1.00  0.00     0.010 C 
ENDBRANCH   8  19
TORSDOF 3
ENDMDL
MODEL 5
REMARK VINA RESULT: -7.120405233      2.206      5.421
REMARK  3 active torsions:
REMARK  status: ('A' for Active; 'I' for Inactive)
REMARK    1  A    between atoms: C2_2  and  C3_3 
REMARK    2  A    between atoms: C7_10  and  C8_11 
REMARK    3  A    between atoms: C13_17  and  N3_18 
ROOT
HETATM    1  C3  UNL     1       5.560   9.663   2.526  1.00  0.00     0.009 A 
HETATM    2  C4  UNL     1       6.260   9.794   1.322  1.00  0.00     0.047 A 
HETATM    3  C5  UNL     1       7.625   9.811   1.361  1.00  0.00     0.063 A 
HETATM    4  N1  UNL     1       8.301   9.937   0.183  1.00  0.00    -0.321 N 
ATOM      5  H1  UNL     1       7.777  10.017  -0.689  1.00  0.00     0.169 HD
HETATM    6  C6  UNL     1       9.644   9.957   0.151  1.00  0.00     0.252 A 
HETATM    7  O1  UNL     1      10.261  10.075  -0.951  1.00  0.00    -0.268 OA
HETATM    8  C7  UNL     1      10.383   9.853   1.307  1.00  0.00     0.012 A 
HETATM    9  C10 UNL     1       9.678   9.725   2.496  1.00  0.00     0.044 A 
HETATM   10  C11 UNL     1       8.284   9.700   2.565  1.00  0.00     0.063 A 
HETATM   11  N2  UNL     1       7.606   9.574   3.717  1.00  0.00    -0.335 N 
HETATM   12  C12 UNL     1       8.309   9.470   4.976  1.00  0.00     0.158 C 
HETATM   13  C13 UNL     1       6.219   9.551   3.710  1.00  0.00     0.113 A 
ENDROOT
BRANCH  13  14
HETATM   14  N3  UNL     1       5.651   9.322   4.978  1.00  0.00    -0.380 N 
HETATM   15  C14 UNL     1       4.624  10.102   5.595  1.00  0.00     0.147 C 
ATOM     16  H3  UNL     1       6.005   8.525   5.506  1.00  0.00     0.160 HD
ENDBRANCH  13  14
BRANCH   1  17
HETATM   17  C2  UNL     1       4.116   9.671   2.427  1.00  0.00     0.005 C 
HETATM   18  C1  UNL     1       3.499   8.498   2.386  1.00  0.00     0.012 C 
ENDBRANCH   1  17
BRANCH   8  19
HETATM   19  C8  UNL     1      11.881   9.871   1.306  1.00  0.00     0.040 C 
HETATM   20  C9  UNL     1      12.408  11.237   1.680  1.00  0.00     0.010 C 
ENDBRANCH   8  19
TORSDOF 3
ENDMDL
