MODEL 1
REMARK VINA RESULT: -7.543232063      0.000      0.000
REMARK  3 active torsions:
REMARK  status: ('A' for Active; 'I' for Inactive)
REMARK    1  A    between atoms: C2_2  and  C3_3 
REMARK    2  A    between atoms: C3_3  and  C4_4 
REMARK    3  A    between atoms: C4_4  and  C5_5 
ROOT
HETATM    1  C5  UNL     1       7.311   9.217   3.069  1.00  0.00     0.000 C 
HETATM    2  C6  UNL     1       7.121  10.601   3.712  1.00  0.00     0.022 C 
HETATM    3  C7  UNL     1       7.962   8.364   4.132  1.00  0.00     0.023 C 
HETATM    4  C8  UNL     1       9.406   8.581   4.357  1.00  0.00     0.085 C 
HETATM    5  C9  UNL     1      10.106   9.391   3.329  1.00  0.00     0.167 C 
HETATM    6  O1  UNL     1      11.196   9.981   3.568  1.00  0.00    -0.292 OA
HETATM    7  C10 UNL     1       9.499   9.490   2.017  1.00  0.00     0.101 A 
HETATM    8  C11 UNL     1       8.139   9.405   1.900  1.00  0.00     0.041 A 
HETATM    9  N1  UNL     1       7.630   9.502   0.669  1.00  0.00    -0.310 N 
ATOM     10  H1  UNL     1       6.620   9.442   0.542  1.00  0.00     0.170 HD
HETATM   11  C12 UNL     1       8.425   9.680  -0.419  1.00  0.00     0.327 A 
HETATM   12  O2  UNL     1       7.917   9.771  -1.582  1.00  0.00    -0.247 OA
HETATM   13  N2  UNL     1       9.761   9.767  -0.324  1.00  0.00    -0.275 N 
ATOM     14  H2  UNL     1      10.338   9.901  -1.153  1.00  0.00     0.173 HD
HETATM   15  C13 UNL     1      10.315   9.673   0.894  1.00  0.00     0.265 A 
HETATM   16  O3  UNL     1      11.559   9.748   1.033  1.00  0.00    -0.267 OA
ENDROOT
BRANCH   1  17
HETATM   17  C4  UNL     1       5.948   8.655   2.804  1.00  0.00     0.015 C 
BRANCH  17  18
HETATM   18  C3  UNL     1       4.854   9.652   3.091  1.00  0.00     0.001 C 
BRANCH  18  19
HETATM   19  C2  UNL     1       3.833   9.102   4.064  1.00  0.00    -0.005 C 
HETATM   20  C1  UNL     1       3.865   9.775   5.396  1.00  0.00     0.005 C 
ENDBRANCH  18  19
ENDBRANCH  17  18
ENDBRANCH   1  17
TORSDOF 3
ENDMDL
MODEL 2
REMARK VINA RESULT: -7.510533442      2.827      4.350
REMARK  3 active torsions:
REMARK  status: ('A' for Active; 'I' for Inactive)
REMARK    1  A    between atoms: C2_2  and  C3_3 
REMARK    2  A    between atoms: C3_3  and  C4_4 
REMARK    3  A    between atoms: C4_4  and  C5_5 
ROOT
HETATM    1  C5  UNL     1       9.295   9.390   4.143  1.00  0.00     0.000 C 
HETATM    2  C6  UNL     1       8.701   7.993   4.387  1.00  0.00     0.022 C 
HETATM    3  C7  UNL     1       8.830   9.792   2.763  1.00  0.00     0.023 C 
HETATM    4  C8  UNL     1       9.535   9.169   1.623  1.00  0.00     0.085 C 
HETATM    5  C9  UNL     1      10.794   8.456   1.953  1.00  0.00     0.167 C 
HETATM    6  O1  UNL     1      11.280   7.570   1.197  1.00  0.00    -0.292 OA
HETATM    7  C10 UNL     1      11.467   8.808   3.187  1.00  0.00     0.101 A 
HETATM    8  C11 UNL     1      10.732   9.261   4.246  1.00  0.00     0.041 A 
HETATM    9  N1  UNL     1      11.400   9.570   5.360  1.00  0.00    -0.310 N 
ATOM     10  H1  UNL     1      10.885   9.912   6.171  1.00  0.00     0.170 HD
HETATM   11  C12 UNL     1      12.752   9.441   5.439  1.00  0.00     0.327 A 
HETATM   12  O2  UNL     1      13.367   9.742   6.511  1.00  0.00    -0.247 OA
HETATM   13  N2  UNL     1      13.489   8.998   4.411  1.00  0.00    -0.275 N 
ATOM     14  H2  UNL     1      14.502   8.908   4.492  1.00  0.00     0.173 HD
HETATM   15  C13 UNL     1      12.859   8.676   3.272  1.00  0.00     0.265 A 
HETATM   16  O3  UNL     1      13.507   8.257   2.283  1.00  0.00    -0.267 OA
ENDROOT
BRANCH   1  17
HETATM   17  C4  UNL     1       8.665  10.325   5.128  1.00  0.00     0.015 C 
BRANCH  17  18
HETATM   18  C3  UNL     1       7.374   9.781   5.686  1.00  0.00     0.001 C 
BRANCH  18  19
HETATM   19  C2  UNL     1       6.172  10.540   5.166  1.00  0.00    -0.005 C 
HETATM   20  C1  UNL     1       4.905   9.753   5.227  1.00  0.00     0.005 C 
ENDBRANCH  18  19
ENDBRANCH  17  18
ENDBRANCH   1  17
TORSDOF 3
ENDMDL
MODEL 3
REMARK VINA RESULT: -7.488450086      2.459      4.744
REMARK  3 active torsions:
REMARK  status: ('A' for Active; 'I' for Inactive)
REMARK    1  A    between atoms: C2_2  and  C3_3 
REMARK    2  A    between atoms: C3_3  and  C4_4 
REMARK    3  A    between atoms: C4_4  and  C5_5 
ROOT
HETATM    1  C5  UNL     1       8.005   9.895   4.607  1.00  0.00     0.000 C 
HETATM    2  C6  UNL     1       8.155   8.471   5.166  1.00  0.00     0.022 C 
HETATM    3  C7  UNL     1       7.094  10.616   5.573  1.00  0.00     0.023 C 
HETATM    4  C8  UNL     1       5.653  10.305   5.475  1.00  0.00     0.085 C 
HETATM    5  C9  UNL     1       5.235   9.556   4.264  1.00  0.00     0.167 C 
HETATM    6  O1  UNL     1       4.162   8.891   4.224  1.00  0.00    -0.292 OA
HETATM    7  C10 UNL     1       6.101   9.606   3.104  1.00  0.00     0.101 A 
HETATM    8  C11 UNL     1       7.447   9.771   3.279  1.00  0.00     0.041 A 
HETATM    9  N1  UNL     1       8.201   9.811   2.178  1.00  0.00    -0.310 N 
ATOM     10  H1  UNL     1       9.209   9.934   2.270  1.00  0.00     0.170 HD
HETATM   11  C12 UNL     1       7.658   9.691   0.937  1.00  0.00     0.327 A 
HETATM   12  O2  UNL     1       8.396   9.730  -0.097  1.00  0.00    -0.247 OA
HETATM   13  N2  UNL     1       6.340   9.527   0.746  1.00  0.00    -0.275 N 
ATOM     14  H2  UNL     1       5.954   9.438  -0.194  1.00  0.00     0.173 HD
HETATM   15  C13 UNL     1       5.545   9.483   1.824  1.00  0.00     0.265 A 
HETATM   16  O3  UNL     1       4.306   9.331   1.695  1.00  0.00    -0.267 OA
ENDROOT
BRANCH   1  17
HETATM   17  C4  UNL     1       9.351  10.548   4.676  1.00  0.00     0.015 C 
BRANCH  17  18
HETATM   18  C3  UNL     1      10.456   9.553   4.926  1.00  0.00     0.001 C 
BRANCH  18  19
HETATM   19  C2  UNL     1      11.548   9.650   3.882  1.00  0.00    -0.005 C 
HETATM   20  C1  UNL     1      11.612  10.985   3.216  1.00  0.00     0.005 C 
ENDBRANCH  18  19
ENDBRANCH  17  18
ENDBRANCH   1  17
TORSDOF 3
ENDMDL
MODEL 4
REMARK VINA RESULT: -7.336771740      2.681      5.080
REMARK  3 active torsions:
REMARK  status: ('A' for Active; 'I' for Inactive)
REMARK    1  A    between atoms: C2_2  and  C3_3 
REMARK    2  A    between atoms: C3_3  and  C4_4 
REMARK    3  A    between atoms: C4_4  and  C5_5 
ROOT
HETATM    1  C5  UNL     1       8.777   9.211   2.561  1.00  0.00     0.000 C 
HETATM    2  C6  UNL     1       9.210   7.819   3.048  1.00  0.00     0.022 C 
HETATM    3  C7  UNL     1       9.702  10.187   3.252  1.00  0.00     0.023 C 
HETATM    4  C8  UNL     1       9.416  10.470   4.674  1.00  0.00     0.085 C 
HETATM    5  C9  UNL     1       8.101  10.001   5.175  1.00  0.00     0.167 C 
HETATM    6  O1  UNL     1       7.880   9.813   6.404  1.00  0.00    -0.292 OA
HETATM    7  C10 UNL     1       7.053   9.761   4.203  1.00  0.00     0.101 A 
HETATM    8  C11 UNL     1       7.390   9.377   2.935  1.00  0.00     0.041 A 
HETATM    9  N1  UNL     1       6.388   9.167   2.079  1.00  0.00    -0.310 N 
ATOM     10  H1  UNL     1       6.601   8.881   1.123  1.00  0.00     0.170 HD
HETATM   11  C12 UNL     1       5.089   9.327   2.449  1.00  0.00     0.327 A 
HETATM   12  O2  UNL     1       4.151   9.121   1.615  1.00  0.00    -0.247 OA
HETATM   13  N2  UNL     1       4.739   9.701   3.688  1.00  0.00    -0.275 N 
ATOM     14  H2  UNL     1       3.759   9.814   3.945  1.00  0.00     0.173 HD
HETATM   15  C13 UNL     1       5.714   9.924   4.581  1.00  0.00     0.265 A 
HETATM   16  O3  UNL     1       5.436  10.276   5.752  1.00  0.00    -0.267 OA
ENDROOT
BRANCH   1  17
HETATM   17  C4  UNL     1       9.056   9.280   1.092  1.00  0.00     0.015 C 
BRANCH  17  18
HETATM   18  C3  UNL     1      10.530   9.389   0.794  1.00  0.00     0.001 C 
BRANCH  18  19
HETATM   19  C2  UNL     1      10.825  10.503  -0.187  1.00  0.00    -0.005 C 
HETATM   20  C1  UNL     1      12.010  11.326   0.193  1.00  0.00     0.005 C 
ENDBRANCH  18  19
ENDBRANCH  17  18
ENDBRANCH   1  17
TORSDOF 3
ENDMDL
MODEL 5
REMARK VINA RESULT: -7.328232113      1.710      3.301
REMARK  3 active torsions:
REMARK  status: ('A' for Active; 'I' for Inactive)
REMARK    1  A    between atoms: C2_2  and  C3_3 
REMARK    2  A    between atoms: C3_3  and  C4_4 
REMARK    3  A    between atoms: C4_4  and  C5_5 
ROOT
HETATM    1  C5  UNL     1       7.753   9.569   3.477  1.00  0.00     0.000 C 
HETATM    2  C6  UNL     1       7.510   8.051   3.495  1.00  0.00     0.022 C 
HETATM    3  C7  UNL     1       6.761  10.126   2.484  1.00  0.00     0.023 C 
HETATM    4  C8  UNL     1       7.087   9.943   1.054  1.00  0.00     0.085 C 
HETATM    5  C9  UNL     1       8.473   9.502   0.759  1.00  0.00     0.167 C 
HETATM    6  O1  UNL     1       8.780   8.937  -0.328  1.00  0.00    -0.292 OA
HETATM    7  C10 UNL     1       9.487   9.741   1.765  1.00  0.00     0.101 A 
HETATM    8  C11 UNL     1       9.129   9.771   3.084  1.00  0.00     0.041 A 
HETATM    9  N1  UNL     1      10.102   9.994   3.971  1.00  0.00    -0.310 N 
ATOM     10  H1  UNL     1       9.873  10.025   4.965  1.00  0.00     0.170 HD
HETATM   11  C12 UNL     1      11.392  10.181   3.583  1.00  0.00     0.327 A 
HETATM   12  O2  UNL     1      12.302  10.391   4.446  1.00  0.00    -0.247 OA
HETATM   13  N2  UNL     1      11.762  10.153   2.294  1.00  0.00    -0.275 N 
ATOM     14  H2  UNL     1      12.736  10.296   2.025  1.00  0.00     0.173 HD
HETATM   15  C13 UNL     1      10.817   9.934   1.369  1.00  0.00     0.265 A 
HETATM   16  O3  UNL     1      11.116   9.899   0.151  1.00  0.00    -0.267 OA
ENDROOT
BRANCH   1  17
HETATM   17  C4  UNL     1       7.390  10.097   4.830  1.00  0.00     0.015 C 
BRANCH  17  18
HETATM   18  C3  UNL     1       6.018  10.721   4.851  1.00  0.00     0.001 C 
BRANCH  18  19
HETATM   19  C2  UNL     1       5.014   9.851   5.576  1.00  0.00    -0.005 C 
HETATM   20  C1  UNL     1       3.878   9.414   4.712  1.00  0.00     0.005 C 
ENDBRANCH  18  19
ENDBRANCH  17  18
ENDBRANCH   1  17
TORSDOF 3
ENDMDL
