MODEL 1
REMARK VINA RESULT: -7.494258090      0.000      0.000
REMARK  5 active torsions:
REMARK  status: ('A' for Active; 'I' for Inactive)
REMARK    1  A    between atoms: C2_2  and  C4_4 
REMARK    2  A    between atoms: C5_5  and  C6_6 
REMARK    3  A    between atoms: N2_13  and  C10_15 
REMARK    4  A    between atoms: C10_15  and  C11_16 
REMARK    5  A    between atoms: C11_16  and  C12_17 
ROOT
HETATM    1  C6  UNL     1      11.458   7.837   3.481  1.00  0.00     0.108 A 
HETATM    2  C7  UNL     1      11.093   7.923   2.154  1.00  0.00     0.114 A 
HETATM    3  C8  UNL     1       9.809   8.238   1.795  1.00  0.00     0.262 A 
HETATM    4  O1  UNL     1       9.468   8.318   0.576  1.00  0.00    -0.268 OA
HETATM    5  N1  UNL     1       8.877   8.471   2.733  1.00  0.00    -0.156 N 
ATOM      6  H1  UNL     1       7.924   8.707   2.457  1.00  0.00     0.187 HD
HETATM    7  C9  UNL     1       9.197   8.396   4.022  1.00  0.00     0.685 A 
HETATM    8  N2  UNL     1       8.410   8.594   4.943  1.00  0.00    -0.205 N 
ATOM      9  H2  UNL     1       8.954   8.464   5.796  1.00  0.00     0.183 HD
HETATM   10  N3  UNL     1      10.489   8.079   4.365  1.00  0.00    -0.183 N 
ATOM     11  H3  UNL     1      10.721   8.026   5.357  1.00  0.00     0.185 HD
ENDROOT
BRANCH   8  12
HETATM   12  C10 UNL     1       7.147   8.907   5.362  1.00  0.00     0.079 C 
BRANCH  12  13
HETATM   13  C11 UNL     1       6.655  10.297   5.041  1.00  0.00     0.049 C 
BRANCH  13  14
HETATM   14  C12 UNL     1       5.290  10.226   4.329  1.00  0.00    -0.018 C 
HETATM   15  C13 UNL     1       4.236   9.858   5.355  1.00  0.00     0.010 C 
HETATM   16  C14 UNL     1       5.321   9.192   3.254  1.00  0.00     0.010 C 
ENDBRANCH  13  14
ENDBRANCH  12  13
ENDBRANCH   8  12
BRANCH   1  17
HETATM   17  C5  UNL     1      12.810   7.506   3.880  1.00  0.00    -0.048 C 
HETATM   18  C4  UNL     1      13.933   7.231   4.233  1.00  0.00    -0.096 C 
BRANCH  18  19
HETATM   19  C2  UNL     1      15.309   6.920   4.669  1.00  0.00     0.057 C 
HETATM   20  C1  UNL     1      16.106   6.305   3.530  1.00  0.00     0.023 C 
HETATM   21  C3  UNL     1      15.999   8.203   5.051  1.00  0.00     0.023 C 
ENDBRANCH  18  19
ENDBRANCH   1  17
TORSDOF 5
ENDMDL
MODEL 2
REMARK VINA RESULT: -7.476603661      0.765      1.200
REMARK  5 active torsions:
REMARK  status: ('A' for Active; 'I' for Inactive)
REMARK    1  A    between atoms: C2_2  and  C4_4 
REMARK    2  A    between atoms: C5_5  and  C6_6 
REMARK    3  A    between atoms: N2_13  and  C10_15 
REMARK    4  A    between atoms: C10_15  and  C11_16 
REMARK    5  A    between atoms: C11_16  and  C12_17 
ROOT
HETATM    1  C6  UNL     1      11.669   7.595   2.904  1.00  0.00     0.108 A 
HETATM    2  C7  UNL     1      11.104   7.853   1.673  1.00  0.00     0.114 A 
HETATM    3  C8  UNL     1       9.798   8.255   1.566  1.00  0.00     0.262 A 
HETATM    4  O1  UNL     1       9.273   8.494   0.437  1.00  0.00    -0.268 OA
HETATM    5  N1  UNL     1       9.041   8.407   2.665  1.00  0.00    -0.156 N 
ATOM      6  H1  UNL     1       8.070   8.707   2.577  1.00  0.00     0.187 HD
HETATM    7  C9  UNL     1       9.556   8.165   3.867  1.00  0.00     0.685 A 
HETATM    8  N2  UNL     1       8.937   8.279   4.921  1.00  0.00    -0.205 N 
ATOM      9  H2  UNL     1       9.601   8.028   5.653  1.00  0.00     0.183 HD
HETATM   10  N3  UNL     1      10.867   7.764   3.956  1.00  0.00    -0.183 N 
ATOM     11  H3  UNL     1      11.250   7.583   4.884  1.00  0.00     0.185 HD
ENDROOT
BRANCH   8  12
HETATM   12  C10 UNL     1       7.774   8.584   5.573  1.00  0.00     0.079 C 
BRANCH  12  13
HETATM   13  C11 UNL     1       7.050   9.826   5.114  1.00  0.00     0.049 C 
BRANCH  13  14
HETATM   14  C12 UNL     1       5.720   9.443   4.436  1.00  0.00    -0.018 C 
HETATM   15  C13 UNL     1       5.696  10.059   3.051  1.00  0.00     0.010 C 
HETATM   16  C14 UNL     1       4.567   9.961   5.230  1.00  0.00     0.010 C 
ENDBRANCH  13  14
ENDBRANCH  12  13
ENDBRANCH   8  12
BRANCH   1  17
HETATM   17  C5  UNL     1      13.047   7.170   3.037  1.00  0.00    -0.048 C 
HETATM   18  C4  UNL     1      14.202   6.828   3.133  1.00  0.00    -0.096 C 
BRANCH  18  19
HETATM   19  C2  UNL     1      15.611   6.397   3.229  1.00  0.00     0.057 C 
HETATM   20  C1  UNL     1      16.480   7.191   2.267  1.00  0.00     0.023 C 
HETATM   21  C3  UNL     1      16.113   6.684   4.620  1.00  0.00     0.023 C 
ENDBRANCH  18  19
ENDBRANCH   1  17
TORSDOF 5
ENDMDL
MODEL 3
REMARK VINA RESULT: -7.393689867      1.851      7.527
REMARK  5 active torsions:
REMARK  status: ('A' for Active; 'I' for Inactive)
REMARK    1  A    between atoms: C2_2  and  C4_4 
REMARK    2  A    between atoms: C5_5  and  C6_6 
REMARK    3  A    between atoms: N2_13  and  C10_15 
REMARK    4  A    between atoms: C10_15  and  C11_16 
REMARK    5  A    between atoms: C11_16  and  C12_17 
ROOT
HETATM    1  C6  UNL     1       8.270   9.426   1.731  1.00  0.00     0.108 A 
HETATM    2  C7  UNL     1       8.295   9.737   0.388  1.00  0.00     0.114 A 
HETATM    3  C8  UNL     1       9.480   9.821  -0.295  1.00  0.00     0.262 A 
HETATM    4  O1  UNL     1       9.510  10.106  -1.530  1.00  0.00    -0.268 OA
HETATM    5  N1  UNL     1      10.646   9.601   0.335  1.00  0.00    -0.156 N 
ATOM      6  H1  UNL     1      11.524   9.664  -0.181  1.00  0.00     0.187 HD
HETATM    7  C9  UNL     1      10.656   9.299   1.630  1.00  0.00     0.685 A 
HETATM    8  N2  UNL     1      11.673   9.083   2.283  1.00  0.00    -0.205 N 
ATOM      9  H2  UNL     1      11.350   8.881   3.229  1.00  0.00     0.183 HD
HETATM   10  N3  UNL     1       9.459   9.219   2.300  1.00  0.00    -0.183 N 
ATOM     11  H3  UNL     1       9.481   8.986   3.293  1.00  0.00     0.185 HD
ENDROOT
BRANCH   8  12
HETATM   12  C10 UNL     1      13.036   8.984   2.336  1.00  0.00     0.079 C 
BRANCH  12  13
HETATM   13  C11 UNL     1      13.600   7.633   2.704  1.00  0.00     0.049 C 
BRANCH  13  14
HETATM   14  C12 UNL     1      14.186   7.674   4.130  1.00  0.00    -0.018 C 
HETATM   15  C13 UNL     1      15.474   6.875   4.139  1.00  0.00     0.010 C 
HETATM   16  C14 UNL     1      13.223   7.077   5.101  1.00  0.00     0.010 C 
ENDBRANCH  13  14
ENDBRANCH  12  13
ENDBRANCH   8  12
BRANCH   1  17
HETATM   17  C5  UNL     1       7.028   9.333   2.469  1.00  0.00    -0.048 C 
HETATM   18  C4  UNL     1       5.997   9.237   3.092  1.00  0.00    -0.096 C 
BRANCH  18  19
HETATM   19  C2  UNL     1       4.728   9.103   3.835  1.00  0.00     0.057 C 
HETATM   20  C1  UNL     1       4.582  10.223   4.852  1.00  0.00     0.023 C 
HETATM   21  C3  UNL     1       3.581   9.231   2.866  1.00  0.00     0.023 C 
ENDBRANCH  18  19
ENDBRANCH   1  17
TORSDOF 5
ENDMDL
MODEL 4
REMARK VINA RESULT: -7.373337969      1.549      7.509
REMARK  5 active torsions:
REMARK  status: ('A' for Active; 'I' for Inactive)
REMARK    1  A    between atoms: C2_2  and  C4_4 
REMARK    2  A    between atoms: C5_5  and  C6_6 
REMARK    3  A    between atoms: N2_13  and  C10_15 
REMARK    4  A    between atoms: C10_15  and  C11_16 
REMARK    5  A    between atoms: C11_16  and  C12_17 
ROOT
HETATM    1  C6  UNL     1       8.419   9.346   1.993  1.00  0.00     0.108 A 
HETATM    2  C7  UNL     1       8.715   9.839   0.740  1.00  0.00     0.114 A 
HETATM    3  C8  UNL     1       9.965   9.688   0.199  1.00  0.00     0.262 A 
HETATM    4  O1  UNL     1      10.242  10.139  -0.953  1.00  0.00    -0.268 OA
HETATM    5  N1  UNL     1      10.931   9.053   0.883  1.00  0.00    -0.156 N 
ATOM      6  H1  UNL     1      11.858   8.944   0.473  1.00  0.00     0.187 HD
HETATM    7  C9  UNL     1      10.678   8.567   2.094  1.00  0.00     0.685 A 
HETATM    8  N2  UNL     1      11.500   7.974   2.788  1.00  0.00    -0.205 N 
ATOM      9  H2  UNL     1      11.005   7.730   3.645  1.00  0.00     0.183 HD
HETATM   10  N3  UNL     1       9.419   8.726   2.622  1.00  0.00    -0.183 N 
ATOM     11  H3  UNL     1       9.239   8.348   3.552  1.00  0.00     0.185 HD
ENDROOT
BRANCH   8  12
HETATM   12  C10 UNL     1      12.767   7.487   2.949  1.00  0.00     0.079 C 
BRANCH  12  13
HETATM   13  C11 UNL     1      13.233   7.278   4.370  1.00  0.00     0.049 C 
BRANCH  13  14
HETATM   14  C12 UNL     1      14.732   6.921   4.390  1.00  0.00    -0.018 C 
HETATM   15  C13 UNL     1      15.504   8.128   4.884  1.00  0.00     0.010 C 
HETATM   16  C14 UNL     1      15.195   6.562   3.018  1.00  0.00     0.010 C 
ENDBRANCH  13  14
ENDBRANCH  12  13
ENDBRANCH   8  12
BRANCH   1  17
HETATM   17  C5  UNL     1       7.105   9.495   2.582  1.00  0.00    -0.048 C 
HETATM   18  C4  UNL     1       6.002   9.632   3.057  1.00  0.00    -0.096 C 
BRANCH  18  19
HETATM   19  C2  UNL     1       4.661   9.822   3.644  1.00  0.00     0.057 C 
HETATM   20  C1  UNL     1       3.720   8.714   3.201  1.00  0.00     0.023 C 
HETATM   21  C3  UNL     1       4.771   9.737   5.145  1.00  0.00     0.023 C 
ENDBRANCH  18  19
ENDBRANCH   1  17
TORSDOF 5
ENDMDL
MODEL 5
REMARK VINA RESULT: -7.370999823      3.722      4.360
REMARK  5 active torsions:
REMARK  status: ('A' for Active; 'I' for Inactive)
REMARK    1  A    between atoms: C2_2  and  C4_4 
REMARK    2  A    between atoms: C5_5  and  C6_6 
REMARK    3  A    between atoms: N2_13  and  C10_15 
REMARK    4  A    between atoms: C10_15  and  C11_16 
REMARK    5  A    between atoms: C11_16  and  C12_17 
ROOT
HETATM    1  C6  UNL     1      10.618  10.335   0.263  1.00  0.00     0.108 A 
HETATM    2  C7  UNL     1       9.656  10.067  -0.689  1.00  0.00     0.114 A 
HETATM    3  C8  UNL     1       8.447   9.529  -0.337  1.00  0.00     0.262 A 
HETATM    4  O1  UNL     1       7.559   9.280  -1.208  1.00  0.00    -0.268 OA
HETATM    5  N1  UNL     1       8.172   9.251   0.948  1.00  0.00    -0.156 N 
ATOM      6  H1  UNL     1       7.268   8.852   1.202  1.00  0.00     0.187 HD
HETATM    7  C9  UNL     1       9.078   9.498   1.890  1.00  0.00     0.685 A 
HETATM    8  N2  UNL     1       8.911   9.277   3.086  1.00  0.00    -0.205 N 
ATOM      9  H2  UNL     1       9.776   9.572   3.539  1.00  0.00     0.183 HD
HETATM   10  N3  UNL     1      10.286  10.038   1.520  1.00  0.00    -0.183 N 
ATOM     11  H3  UNL     1      10.972  10.223   2.253  1.00  0.00     0.185 HD
ENDROOT
BRANCH   8  12
HETATM   12  C10 UNL     1       8.110   8.820   4.095  1.00  0.00     0.079 C 
BRANCH  12  13
HETATM   13  C11 UNL     1       7.130   9.809   4.677  1.00  0.00     0.049 C 
BRANCH  13  14
HETATM   14  C12 UNL     1       5.693   9.448   4.249  1.00  0.00    -0.018 C 
HETATM   15  C13 UNL     1       5.395  10.150   2.939  1.00  0.00     0.010 C 
HETATM   16  C14 UNL     1       4.718   9.894   5.286  1.00  0.00     0.010 C 
ENDBRANCH  13  14
ENDBRANCH  12  13
ENDBRANCH   8  12
BRANCH   1  17
HETATM   17  C5  UNL     1      11.902  10.904  -0.089  1.00  0.00    -0.048 C 
HETATM   18  C4  UNL     1      12.966  11.396  -0.381  1.00  0.00    -0.096 C 
BRANCH  18  19
HETATM   19  C2  UNL     1      14.257  12.005  -0.761  1.00  0.00     0.057 C 
HETATM   20  C1  UNL     1      14.701  11.510  -2.128  1.00  0.00     0.023 C 
HETATM   21  C3  UNL     1      14.078  13.497  -0.865  1.00  0.00     0.023 C 
ENDBRANCH  18  19
ENDBRANCH   1  17
TORSDOF 5
ENDMDL
