MODEL 1
REMARK VINA RESULT: -7.164936026      0.000      0.000
REMARK  3 active torsions:
REMARK  status: ('A' for Active; 'I' for Inactive)
REMARK    1  A    between atoms: N3_12  and  C8_14 
REMARK    2  A    between atoms: C8_14  and  C9_15 
REMARK    3  A    between atoms: C9_15  and  N4_16 
ROOT
HETATM    1  C1  UNL     1       3.886   9.781   4.796  1.00  0.00     0.069 C 
HETATM    2  C2  UNL     1       5.346   9.801   4.557  1.00  0.00     0.015 A 
HETATM    3  N1  UNL     1       6.192   9.818   5.584  1.00  0.00    -0.345 N 
ATOM      4  H1  UNL     1       5.833   9.816   6.539  1.00  0.00     0.167 HD
HETATM    5  C3  UNL     1       7.518   9.839   5.367  1.00  0.00     0.118 A 
HETATM    6  N2  UNL     1       8.565   9.859   6.224  1.00  0.00    -0.352 N 
ATOM      7  H2  UNL     1       8.485   9.862   7.241  1.00  0.00     0.166 HD
HETATM    8  C4  UNL     1       9.725   9.873   5.543  1.00  0.00     0.090 A 
HETATM    9  C5  UNL     1       9.378   9.863   4.208  1.00  0.00     0.034 A 
HETATM   10  C6  UNL     1       8.014   9.841   4.085  1.00  0.00     0.036 A 
HETATM   11  C7  UNL     1       7.164   9.823   2.964  1.00  0.00     0.050 A 
HETATM   12  N3  UNL     1       7.686   9.829   1.857  1.00  0.00    -0.387 N 
ATOM     13  H3  UNL     1       8.699   9.848   1.976  1.00  0.00     0.159 HD
HETATM   14  C12 UNL     1       5.823   9.803   3.230  1.00  0.00    -0.012 A 
HETATM   15  C13 UNL     1       4.891   9.782   2.098  1.00  0.00     0.052 C 
ENDROOT
BRANCH  12  16
HETATM   16  C8  UNL     1       7.404   9.819   0.506  1.00  0.00     0.150 C 
BRANCH  16  17
HETATM   17  C9  UNL     1       8.683   9.389  -0.238  1.00  0.00     0.290 C 
BRANCH  17  18
HETATM   18  N4  UNL     1       9.865   9.632   0.566  1.00  0.00     0.081 N 
HETATM   19  C10 UNL     1      10.826  10.502  -0.039  1.00  0.00     0.309 C 
HETATM   20  C11 UNL     1      10.477   8.407   1.017  1.00  0.00     0.309 C 
ENDBRANCH  17  18
ENDBRANCH  16  17
ENDBRANCH  12  16
TORSDOF 3
ENDMDL
MODEL 2
REMARK VINA RESULT: -6.877612726      2.330      4.600
REMARK  3 active torsions:
REMARK  status: ('A' for Active; 'I' for Inactive)
REMARK    1  A    between atoms: N3_12  and  C8_14 
REMARK    2  A    between atoms: C8_14  and  C9_15 
REMARK    3  A    between atoms: C9_15  and  N4_16 
ROOT
HETATM    1  C1  UNL     1       8.197   9.861  -0.636  1.00  0.00     0.069 C 
HETATM    2  C2  UNL     1       7.953   9.682   0.812  1.00  0.00     0.015 A 
HETATM    3  N1  UNL     1       6.766   9.982   1.334  1.00  0.00    -0.345 N 
ATOM      4  H1  UNL     1       6.021  10.335   0.733  1.00  0.00     0.167 HD
HETATM    5  C3  UNL     1       6.546   9.822   2.650  1.00  0.00     0.118 A 
HETATM    6  N2  UNL     1       5.449  10.051   3.407  1.00  0.00    -0.352 N 
ATOM      7  H2  UNL     1       4.561  10.409   3.055  1.00  0.00     0.166 HD
HETATM    8  C4  UNL     1       5.697   9.740   4.693  1.00  0.00     0.090 A 
HETATM    9  C5  UNL     1       7.003   9.301   4.728  1.00  0.00     0.034 A 
HETATM   10  C6  UNL     1       7.541   9.346   3.470  1.00  0.00     0.036 A 
HETATM   11  C7  UNL     1       8.814   9.013   2.970  1.00  0.00     0.050 A 
HETATM   12  N3  UNL     1       9.645   8.598   3.767  1.00  0.00    -0.387 N 
ATOM     13  H3  UNL     1       9.222   8.577   4.695  1.00  0.00     0.159 HD
HETATM   14  C12 UNL     1       8.994   9.192   1.627  1.00  0.00    -0.012 A 
HETATM   15  C13 UNL     1      10.302   8.858   1.052  1.00  0.00     0.052 C 
ENDROOT
BRANCH  12  16
HETATM   16  C8  UNL     1      10.945   8.149   3.868  1.00  0.00     0.150 C 
BRANCH  16  17
HETATM   17  C9  UNL     1      11.788   9.284   4.482  1.00  0.00     0.290 C 
BRANCH  17  18
HETATM   18  N4  UNL     1      13.079   8.798   4.927  1.00  0.00     0.081 N 
HETATM   19  C10 UNL     1      13.195   7.372   4.965  1.00  0.00     0.309 C 
HETATM   20  C11 UNL     1      13.480   9.390   6.179  1.00  0.00     0.309 C 
ENDBRANCH  17  18
ENDBRANCH  16  17
ENDBRANCH  12  16
TORSDOF 3
ENDMDL
MODEL 3
REMARK VINA RESULT: -6.855116105      2.212      4.140
REMARK  3 active torsions:
REMARK  status: ('A' for Active; 'I' for Inactive)
REMARK    1  A    between atoms: N3_12  and  C8_14 
REMARK    2  A    between atoms: C8_14  and  C9_15 
REMARK    3  A    between atoms: C9_15  and  N4_16 
ROOT
HETATM    1  C1  UNL     1       5.420   9.816   4.901  1.00  0.00     0.069 C 
HETATM    2  C2  UNL     1       6.517   9.744   3.911  1.00  0.00     0.015 A 
HETATM    3  N1  UNL     1       6.241   9.669   2.611  1.00  0.00    -0.345 N 
ATOM      4  H1  UNL     1       5.271   9.665   2.296  1.00  0.00     0.167 HD
HETATM    5  C3  UNL     1       7.238   9.601   1.712  1.00  0.00     0.118 A 
HETATM    6  N2  UNL     1       7.221   9.520   0.362  1.00  0.00    -0.352 N 
ATOM      7  H2  UNL     1       6.376   9.497  -0.210  1.00  0.00     0.166 HD
HETATM    8  C4  UNL     1       8.477   9.474  -0.119  1.00  0.00     0.090 A 
HETATM    9  C5  UNL     1       9.303   9.529   0.983  1.00  0.00     0.034 A 
HETATM   10  C6  UNL     1       8.549   9.608   2.124  1.00  0.00     0.036 A 
HETATM   11  C7  UNL     1       8.896   9.685   3.486  1.00  0.00     0.050 A 
HETATM   12  N3  UNL     1      10.087   9.684   3.768  1.00  0.00    -0.387 N 
ATOM     13  H3  UNL     1      10.625   9.621   2.905  1.00  0.00     0.159 HD
HETATM   14  C12 UNL     1       7.852   9.753   4.365  1.00  0.00    -0.012 A 
HETATM   15  C13 UNL     1       8.155   9.836   5.797  1.00  0.00     0.052 C 
ENDROOT
BRANCH  12  16
HETATM   16  C8  UNL     1      10.966   9.735   4.830  1.00  0.00     0.150 C 
BRANCH  16  17
HETATM   17  C9  UNL     1      12.362   9.352   4.302  1.00  0.00     0.290 C 
BRANCH  17  18
HETATM   18  N4  UNL     1      12.439   7.936   4.001  1.00  0.00     0.081 N 
HETATM   19  C10 UNL     1      13.168   7.164   4.960  1.00  0.00     0.309 C 
HETATM   20  C11 UNL     1      12.912   7.690   2.662  1.00  0.00     0.309 C 
ENDBRANCH  17  18
ENDBRANCH  16  17
ENDBRANCH  12  16
TORSDOF 3
ENDMDL
MODEL 4
REMARK VINA RESULT: -6.745971894      2.484      4.591
REMARK  3 active torsions:
REMARK  status: ('A' for Active; 'I' for Inactive)
REMARK    1  A    between atoms: N3_12  and  C8_14 
REMARK    2  A    between atoms: C8_14  and  C9_15 
REMARK    3  A    between atoms: C9_15  and  N4_16 
ROOT
HETATM    1  C1  UNL     1       5.606   9.453   3.885  1.00  0.00     0.069 C 
HETATM    2  C2  UNL     1       6.802   9.520   3.016  1.00  0.00     0.015 A 
HETATM    3  N1  UNL     1       6.666   9.681   1.701  1.00  0.00    -0.345 N 
ATOM      4  H1  UNL     1       5.736   9.761   1.292  1.00  0.00     0.167 HD
HETATM    5  C3  UNL     1       7.753   9.740   0.913  1.00  0.00     0.118 A 
HETATM    6  N2  UNL     1       7.879   9.895  -0.426  1.00  0.00    -0.352 N 
ATOM      7  H2  UNL     1       7.100   9.997  -1.076  1.00  0.00     0.166 HD
HETATM    8  C4  UNL     1       9.178   9.895  -0.774  1.00  0.00     0.090 A 
HETATM    9  C5  UNL     1       9.883   9.732   0.400  1.00  0.00     0.034 A 
HETATM   10  C6  UNL     1       9.012   9.635   1.452  1.00  0.00     0.036 A 
HETATM   11  C7  UNL     1       9.212   9.464   2.835  1.00  0.00     0.050 A 
HETATM   12  N3  UNL     1      10.365   9.377   3.234  1.00  0.00    -0.387 N 
ATOM     13  H3  UNL     1      10.992   9.449   2.433  1.00  0.00     0.159 HD
HETATM   14  C12 UNL     1       8.080   9.410   3.600  1.00  0.00    -0.012 A 
HETATM   15  C13 UNL     1       8.230   9.234   5.048  1.00  0.00     0.052 C 
ENDROOT
BRANCH  12  16
HETATM   16  C8  UNL     1      11.127   9.217   4.374  1.00  0.00     0.150 C 
BRANCH  16  17
HETATM   17  C9  UNL     1      12.076   8.026   4.140  1.00  0.00     0.290 C 
BRANCH  17  18
HETATM   18  N4  UNL     1      13.102   7.964   5.162  1.00  0.00     0.081 N 
HETATM   19  C10 UNL     1      13.355   9.206   5.826  1.00  0.00     0.309 C 
HETATM   20  C11 UNL     1      14.323   7.374   4.672  1.00  0.00     0.309 C 
ENDBRANCH  17  18
ENDBRANCH  16  17
ENDBRANCH  12  16
TORSDOF 3
ENDMDL
MODEL 5
REMARK VINA RESULT: -6.713521038      2.375      4.402
REMARK  3 active torsions:
REMARK  status: ('A' for Active; 'I' for Inactive)
REMARK    1  A    between atoms: N3_12  and  C8_14 
REMARK    2  A    between atoms: C8_14  and  C9_15 
REMARK    3  A    between atoms: C9_15  and  N4_16 
ROOT
HETATM    1  C1  UNL     1       8.158   9.837  -0.642  1.00  0.00     0.069 C 
HETATM    2  C2  UNL     1       7.944   9.770   0.820  1.00  0.00     0.015 A 
HETATM    3  N1  UNL     1       6.718   9.895   1.323  1.00  0.00    -0.345 N 
ATOM      4  H1  UNL     1       5.924  10.035   0.699  1.00  0.00     0.167 HD
HETATM    5  C3  UNL     1       6.524   9.837   2.652  1.00  0.00     0.118 A 
HETATM    6  N2  UNL     1       5.399   9.934   3.396  1.00  0.00    -0.352 N 
ATOM      7  H2  UNL     1       4.462  10.078   3.020  1.00  0.00     0.166 HD
HETATM    8  C4  UNL     1       5.693   9.814   4.704  1.00  0.00     0.090 A 
HETATM    9  C5  UNL     1       7.059   9.636   4.767  1.00  0.00     0.034 A 
HETATM   10  C6  UNL     1       7.586   9.648   3.503  1.00  0.00     0.036 A 
HETATM   11  C7  UNL     1       8.903   9.509   3.024  1.00  0.00     0.050 A 
HETATM   12  N3  UNL     1       9.792   9.345   3.849  1.00  0.00    -0.387 N 
ATOM     13  H3  UNL     1       9.374   9.343   4.779  1.00  0.00     0.159 HD
HETATM   14  C12 UNL     1       9.054   9.575   1.667  1.00  0.00    -0.012 A 
HETATM   15  C13 UNL     1      10.405   9.435   1.113  1.00  0.00     0.052 C 
ENDROOT
BRANCH  12  16
HETATM   16  C8  UNL     1      11.153   9.163   3.979  1.00  0.00     0.150 C 
BRANCH  16  17
HETATM   17  C9  UNL     1      11.429   7.647   3.948  1.00  0.00     0.290 C 
BRANCH  17  18
HETATM   18  N4  UNL     1      12.847   7.374   3.826  1.00  0.00     0.081 N 
HETATM   19  C10 UNL     1      13.529   7.211   5.073  1.00  0.00     0.309 C 
HETATM   20  C11 UNL     1      13.516   8.335   2.985  1.00  0.00     0.309 C 
ENDBRANCH  17  18
ENDBRANCH  16  17
ENDBRANCH  12  16
TORSDOF 3
ENDMDL
