MODEL 1
REMARK VINA RESULT: -7.700916463      0.000      0.000
REMARK  4 active torsions:
REMARK  status: ('A' for Active; 'I' for Inactive)
REMARK    1  A    between atoms: C4_4  and  C5_5 
REMARK    2  A    between atoms: C6_6  and  C7_7 
REMARK    3  A    between atoms: C7_7  and  N1_9 
REMARK       I    between atoms: N1_9  and  C9_11 
REMARK       I    between atoms: C9_11  and  N2_13 
REMARK    4  A    between atoms: N3_16  and  C12_17 
ROOT
HETATM    1  C1  UNL     1       4.765  10.548   6.269  1.00  0.00     0.027 C 
HETATM    2  C2  UNL     1       5.474  10.370   5.308  1.00  0.00    -0.025 C 
HETATM    3  C3  UNL     1       6.320  10.161   4.192  1.00  0.00    -0.002 C 
HETATM    4  C4  UNL     1       7.032   9.967   3.235  1.00  0.00    -0.001 C 
ENDROOT
BRANCH   4   5
HETATM    5  C5  UNL     1       7.855   9.718   2.108  1.00  0.00    -0.012 C 
HETATM    6  C6  UNL     1       8.563   9.494   1.155  1.00  0.00    -0.067 C 
BRANCH   6   7
HETATM    7  C7  UNL     1       9.419   9.198   0.009  1.00  0.00     0.163 C 
HETATM    8  C8  UNL     1       8.905   9.989  -1.176  1.00  0.00     0.046 C 
BRANCH   7   9
HETATM    9  N1  UNL     1      10.779   9.526   0.338  1.00  0.00    -0.328 N 
HETATM   10  C9  UNL     1      11.658   8.658   1.017  1.00  0.00     0.319 C 
HETATM   11  O1  UNL     1      11.201   7.526   1.351  1.00  0.00    -0.247 OA
HETATM   12  N2  UNL     1      12.994   8.988   1.335  1.00  0.00    -0.331 N 
HETATM   13  C10 UNL     1      13.566  10.267   0.982  1.00  0.00     0.147 C 
HETATM   14  C18 UNL     1      13.854   8.053   2.030  1.00  0.00     0.147 C 
HETATM   15  C11 UNL     1      15.051  10.286   1.158  1.00  0.00     0.137 C 
HETATM   16  N3  UNL     1      15.737   9.079   0.884  1.00  0.00    -0.405 N 
HETATM   17  C17 UNL     1      15.061   7.858   1.134  1.00  0.00     0.137 C 
ATOM     18  H1  UNL     1      11.130  10.443   0.062  1.00  0.00     0.165 HD
BRANCH  16  19
HETATM   19  C12 UNL     1      16.643   9.086  -0.216  1.00  0.00     0.083 C 
HETATM   20  C13 UNL     1      16.506   7.784  -1.018  1.00  0.00     0.051 C 
HETATM   21  C14 UNL     1      16.894   8.107  -2.453  1.00  0.00     0.169 C 
HETATM   22  O2  UNL     1      17.990   8.988  -2.491  1.00  0.00    -0.391 OA
HETATM   23  C15 UNL     1      17.564  10.281  -2.147  1.00  0.00     0.169 C 
HETATM   24  C16 UNL     1      16.409  10.219  -1.174  1.00  0.00     0.051 C 
ENDBRANCH  16  19
ENDBRANCH   7   9
ENDBRANCH   6   7
ENDBRANCH   4   5
TORSDOF 4
ENDMDL
MODEL 2
REMARK VINA RESULT: -7.684840058      1.262      1.382
REMARK  4 active torsions:
REMARK  status: ('A' for Active; 'I' for Inactive)
REMARK    1  A    between atoms: C4_4  and  C5_5 
REMARK    2  A    between atoms: C6_6  and  C7_7 
REMARK    3  A    between atoms: C7_7  and  N1_9 
REMARK       I    between atoms: N1_9  and  C9_11 
REMARK       I    between atoms: C9_11  and  N2_13 
REMARK    4  A    between atoms: N3_16  and  C12_17 
ROOT
HETATM    1  C1  UNL     1       4.425  10.377   5.911  1.00  0.00     0.027 C 
HETATM    2  C2  UNL     1       5.245  10.197   5.044  1.00  0.00    -0.025 C 
HETATM    3  C3  UNL     1       6.221   9.997   4.037  1.00  0.00    -0.002 C 
HETATM    4  C4  UNL     1       7.051   9.807   3.179  1.00  0.00    -0.001 C 
ENDROOT
BRANCH   4   5
HETATM    5  C5  UNL     1       8.024   9.560   2.178  1.00  0.00    -0.012 C 
HETATM    6  C6  UNL     1       8.863   9.345   1.336  1.00  0.00    -0.067 C 
BRANCH   6   7
HETATM    7  C7  UNL     1       9.886   9.065   0.332  1.00  0.00     0.163 C 
HETATM    8  C8  UNL     1       9.696  10.037  -0.814  1.00  0.00     0.046 C 
BRANCH   7   9
HETATM    9  N1  UNL     1      11.185   9.179   0.937  1.00  0.00    -0.328 N 
HETATM   10  C9  UNL     1      11.829   8.130   1.624  1.00  0.00     0.319 C 
HETATM   11  O1  UNL     1      11.209   7.029   1.703  1.00  0.00    -0.247 OA
HETATM   12  N2  UNL     1      13.108   8.249   2.214  1.00  0.00    -0.331 N 
HETATM   13  C10 UNL     1      13.859   9.482   2.157  1.00  0.00     0.147 C 
HETATM   14  C18 UNL     1      13.724   7.135   2.903  1.00  0.00     0.147 C 
HETATM   15  C11 UNL     1      15.278   9.296   2.590  1.00  0.00     0.137 C 
HETATM   16  N3  UNL     1      15.882   8.058   2.265  1.00  0.00    -0.405 N 
HETATM   17  C17 UNL     1      15.054   6.908   2.211  1.00  0.00     0.137 C 
ATOM     18  H1  UNL     1      11.670  10.073   0.864  1.00  0.00     0.165 HD
BRANCH  16  19
HETATM   19  C12 UNL     1      16.976   8.093   1.353  1.00  0.00     0.083 C 
HETATM   20  C13 UNL     1      16.531   7.571  -0.021  1.00  0.00     0.051 C 
HETATM   21  C14 UNL     1      17.411   8.252  -1.059  1.00  0.00     0.169 C 
HETATM   22  O2  UNL     1      18.738   8.352  -0.604  1.00  0.00    -0.391 OA
HETATM   23  C15 UNL     1      18.826   9.361   0.367  1.00  0.00     0.169 C 
HETATM   24  C16 UNL     1      17.532   9.472   1.140  1.00  0.00     0.051 C 
ENDBRANCH  16  19
ENDBRANCH   7   9
ENDBRANCH   6   7
ENDBRANCH   4   5
TORSDOF 4
ENDMDL
MODEL 3
REMARK VINA RESULT: -7.627040105      2.688      9.371
REMARK  4 active torsions:
REMARK  status: ('A' for Active; 'I' for Inactive)
REMARK    1  A    between atoms: C4_4  and  C5_5 
REMARK    2  A    between atoms: C6_6  and  C7_7 
REMARK    3  A    between atoms: C7_7  and  N1_9 
REMARK       I    between atoms: N1_9  and  C9_11 
REMARK       I    between atoms: C9_11  and  N2_13 
REMARK    4  A    between atoms: N3_16  and  C12_17 
ROOT
HETATM    1  C1  UNL     1      18.619   9.381  -3.778  1.00  0.00     0.027 C 
HETATM    2  C2  UNL     1      17.762   9.823  -3.053  1.00  0.00    -0.025 C 
HETATM    3  C3  UNL     1      16.755  10.326  -2.193  1.00  0.00    -0.002 C 
HETATM    4  C4  UNL     1      15.908  10.770  -1.454  1.00  0.00    -0.001 C 
ENDROOT
BRANCH   4   5
HETATM    5  C5  UNL     1      14.929  11.307  -0.580  1.00  0.00    -0.012 C 
HETATM    6  C6  UNL     1      14.107  11.767   0.176  1.00  0.00    -0.067 C 
BRANCH   6   7
HETATM    7  C7  UNL     1      13.132  12.338   1.101  1.00  0.00     0.163 C 
HETATM    8  C8  UNL     1      12.692  13.678   0.548  1.00  0.00     0.046 C 
BRANCH   7   9
HETATM    9  N1  UNL     1      12.034  11.424   1.255  1.00  0.00    -0.328 N 
HETATM   10  C9  UNL     1      12.057  10.301   2.108  1.00  0.00     0.319 C 
HETATM   11  O1  UNL     1      13.118  10.104   2.769  1.00  0.00    -0.247 OA
HETATM   12  N2  UNL     1      10.972   9.407   2.255  1.00  0.00    -0.331 N 
HETATM   13  C10 UNL     1       9.739   9.582   1.523  1.00  0.00     0.147 C 
HETATM   14  C18 UNL     1      11.050   8.273   3.152  1.00  0.00     0.147 C 
HETATM   15  C11 UNL     1       8.648   8.700   2.042  1.00  0.00     0.137 C 
HETATM   16  N3  UNL     1       8.642   8.454   3.436  1.00  0.00    -0.405 N 
HETATM   17  C17 UNL     1       9.888   8.427   4.113  1.00  0.00     0.137 C 
ATOM     18  H1  UNL     1      11.187  11.597   0.714  1.00  0.00     0.165 HD
BRANCH  16  19
HETATM   19  C12 UNL     1       7.532   8.956   4.175  1.00  0.00     0.083 C 
HETATM   20  C13 UNL     1       7.991   9.415   5.567  1.00  0.00     0.051 C 
HETATM   21  C14 UNL     1       7.041  10.519   6.004  1.00  0.00     0.169 C 
HETATM   22  O2  UNL     1       5.718  10.222   5.628  1.00  0.00    -0.391 OA
HETATM   23  C15 UNL     1       5.568  10.420   4.246  1.00  0.00     0.169 C 
HETATM   24  C16 UNL     1       6.863  10.133   3.523  1.00  0.00     0.051 C 
ENDBRANCH  16  19
ENDBRANCH   7   9
ENDBRANCH   6   7
ENDBRANCH   4   5
TORSDOF 4
ENDMDL
MODEL 4
REMARK VINA RESULT: -7.619280781      1.202      1.412
REMARK  4 active torsions:
REMARK  status: ('A' for Active; 'I' for Inactive)
REMARK    1  A    between atoms: C4_4  and  C5_5 
REMARK    2  A    between atoms: C6_6  and  C7_7 
REMARK    3  A    between atoms: C7_7  and  N1_9 
REMARK       I    between atoms: N1_9  and  C9_11 
REMARK       I    between atoms: C9_11  and  N2_13 
REMARK    4  A    between atoms: N3_16  and  C12_17 
ROOT
HETATM    1  C1  UNL     1       4.374  10.327   5.665  1.00  0.00     0.027 C 
HETATM    2  C2  UNL     1       5.110  10.224   4.714  1.00  0.00    -0.025 C 
HETATM    3  C3  UNL     1       5.989  10.107   3.609  1.00  0.00    -0.002 C 
HETATM    4  C4  UNL     1       6.731   9.990   2.664  1.00  0.00    -0.001 C 
ENDROOT
BRANCH   4   5
HETATM    5  C5  UNL     1       7.596   9.829   1.552  1.00  0.00    -0.012 C 
HETATM    6  C6  UNL     1       8.337   9.677   0.610  1.00  0.00    -0.067 C 
BRANCH   6   7
HETATM    7  C7  UNL     1       9.229   9.468  -0.528  1.00  0.00     0.163 C 
HETATM    8  C8  UNL     1       8.536   9.993  -1.768  1.00  0.00     0.046 C 
BRANCH   7   9
HETATM    9  N1  UNL     1      10.478  10.131  -0.277  1.00  0.00    -0.328 N 
HETATM   10  C9  UNL     1      11.457   9.657   0.620  1.00  0.00     0.319 C 
HETATM   11  O1  UNL     1      11.200   8.579   1.233  1.00  0.00    -0.247 OA
HETATM   12  N2  UNL     1      12.685  10.314   0.860  1.00  0.00    -0.331 N 
HETATM   13  C10 UNL     1      13.029  11.548   0.191  1.00  0.00     0.147 C 
HETATM   14  C18 UNL     1      13.656   9.776   1.789  1.00  0.00     0.147 C 
HETATM   15  C11 UNL     1      14.470  11.905   0.378  1.00  0.00     0.137 C 
HETATM   16  N3  UNL     1      15.386  10.828   0.442  1.00  0.00    -0.405 N 
HETATM   17  C17 UNL     1      14.935   9.602   0.994  1.00  0.00     0.137 C 
ATOM     18  H1  UNL     1      10.670  10.998  -0.779  1.00  0.00     0.165 HD
BRANCH  16  19
HETATM   19  C12 UNL     1      16.345  10.733  -0.608  1.00  0.00     0.083 C 
HETATM   20  C13 UNL     1      17.713  10.334  -0.036  1.00  0.00     0.051 C 
HETATM   21  C14 UNL     1      18.450   9.585  -1.136  1.00  0.00     0.169 C 
HETATM   22  O2  UNL     1      18.223  10.182  -2.389  1.00  0.00    -0.391 OA
HETATM   23  C15 UNL     1      16.925   9.871  -2.828  1.00  0.00     0.169 C 
HETATM   24  C16 UNL     1      15.990   9.712  -1.651  1.00  0.00     0.051 C 
ENDBRANCH  16  19
ENDBRANCH   7   9
ENDBRANCH   6   7
ENDBRANCH   4   5
TORSDOF 4
ENDMDL
MODEL 5
REMARK VINA RESULT: -7.517663607      2.833      3.772
REMARK  4 active torsions:
REMARK  status: ('A' for Active; 'I' for Inactive)
REMARK    1  A    between atoms: C4_4  and  C5_5 
REMARK    2  A    between atoms: C6_6  and  C7_7 
REMARK    3  A    between atoms: C7_7  and  N1_9 
REMARK       I    between atoms: N1_9  and  C9_11 
REMARK       I    between atoms: C9_11  and  N2_13 
REMARK    4  A    between atoms: N3_16  and  C12_17 
ROOT
HETATM    1  C1  UNL     1       6.532  10.606   5.601  1.00  0.00     0.027 C 
HETATM    2  C2  UNL     1       7.654  10.272   5.308  1.00  0.00    -0.025 C 
HETATM    3  C3  UNL     1       8.970   9.865   4.977  1.00  0.00    -0.002 C 
HETATM    4  C4  UNL     1      10.087   9.517   4.675  1.00  0.00    -0.001 C 
ENDROOT
BRANCH   4   5
HETATM    5  C5  UNL     1      11.391   9.105   4.299  1.00  0.00    -0.012 C 
HETATM    6  C6  UNL     1      12.500   8.741   3.988  1.00  0.00    -0.067 C 
BRANCH   6   7
HETATM    7  C7  UNL     1      13.834   8.278   3.618  1.00  0.00     0.163 C 
HETATM    8  C8  UNL     1      13.748   6.795   3.320  1.00  0.00     0.046 C 
BRANCH   7   9
HETATM    9  N1  UNL     1      14.303   9.035   2.491  1.00  0.00    -0.328 N 
HETATM   10  C9  UNL     1      15.665   9.246   2.194  1.00  0.00     0.319 C 
HETATM   11  O1  UNL     1      16.511   8.729   2.981  1.00  0.00    -0.247 OA
HETATM   12  N2  UNL     1      16.118   9.991   1.082  1.00  0.00    -0.331 N 
HETATM   13  C10 UNL     1      15.198  10.606   0.154  1.00  0.00     0.147 C 
HETATM   14  C18 UNL     1      17.531  10.170   0.823  1.00  0.00     0.147 C 
HETATM   15  C11 UNL     1      15.887  11.092  -1.082  1.00  0.00     0.137 C 
HETATM   16  N3  UNL     1      16.982  10.321  -1.541  1.00  0.00    -0.405 N 
HETATM   17  C17 UNL     1      17.764   9.637  -0.577  1.00  0.00     0.137 C 
ATOM     18  H1  UNL     1      13.608   9.446   1.867  1.00  0.00     0.165 HD
BRANCH  16  19
HETATM   19  C12 UNL     1      16.836   9.682  -2.806  1.00  0.00     0.083 C 
HETATM   20  C13 UNL     1      16.831   8.157  -2.626  1.00  0.00     0.051 C 
HETATM   21  C14 UNL     1      16.006   7.580  -3.768  1.00  0.00     0.169 C 
HETATM   22  O2  UNL     1      16.259   8.269  -4.968  1.00  0.00    -0.391 OA
HETATM   23  C15 UNL     1      15.626   9.522  -4.931  1.00  0.00     0.169 C 
HETATM   24  C16 UNL     1      15.562  10.045  -3.515  1.00  0.00     0.051 C 
ENDBRANCH  16  19
ENDBRANCH   7   9
ENDBRANCH   6   7
ENDBRANCH   4   5
TORSDOF 4
ENDMDL
