MODEL 1
REMARK VINA RESULT: -8.235786114      0.000      0.000
REMARK  3 active torsions:
REMARK  status: ('A' for Active; 'I' for Inactive)
REMARK    1  A    between atoms: N2_8  and  C7_9 
REMARK    2  A    between atoms: C7_9  and  C8_10 
REMARK       I    between atoms: C8_10  and  N3_12 
REMARK    3  A    between atoms: N3_12  and  C9_14 
ROOT
HETATM    1  C8  UNL     1      12.316   7.610   3.412  1.00  0.00     0.246 C 
HETATM    2  O1  UNL     1      11.730   7.283   2.365  1.00  0.00    -0.272 OA
HETATM    3  N3  UNL     1      11.669   8.421   4.367  1.00  0.00    -0.355 N 
ATOM      4  H3  UNL     1      12.211   8.647   5.201  1.00  0.00     0.162 HD
ENDROOT
BRANCH   1   5
HETATM    5  C7  UNL     1      13.685   7.167   3.676  1.00  0.00     0.374 C 
BRANCH   5   6
HETATM    6  N2  UNL     1      14.629   7.287   2.593  1.00  0.00     0.099 N 
HETATM    7  C6  UNL     1      14.704   8.639   2.108  1.00  0.00     0.308 C 
HETATM    8  C5  UNL     1      16.009   9.319   2.178  1.00  0.00     0.251 C 
HETATM    9  N1  UNL     1      16.831   8.884   1.067  1.00  0.00     0.091 N 
HETATM   10  C4  UNL     1      16.822   8.859   3.382  1.00  0.00     0.045 C 
HETATM   11  C1  UNL     1      17.576   9.951   0.488  1.00  0.00     0.310 C 
HETATM   12  C2  UNL     1      17.606   7.768   1.495  1.00  0.00     0.279 C 
HETATM   13  C3  UNL     1      17.099   7.425   2.901  1.00  0.00     0.044 C 
HETATM   14  C19 UNL     1      15.858   6.623   2.780  1.00  0.00     0.279 C 
ENDBRANCH   5   6
ENDBRANCH   1   5
BRANCH   3  15
HETATM   15  C9  UNL     1      10.348   8.964   4.310  1.00  0.00     0.088 C 
HETATM   16  C10 UNL     1      10.213  10.126   5.234  1.00  0.00     0.030 C 
HETATM   17  C11 UNL     1       8.954  10.924   5.022  1.00  0.00    -0.012 C 
HETATM   18  C12 UNL     1       8.238  10.660   3.740  1.00  0.00     0.010 C 
HETATM   19  C18 UNL     1       7.924  10.465   6.041  1.00  0.00     0.010 C 
HETATM   20  C13 UNL     1       7.495   9.379   3.919  1.00  0.00    -0.010 C 
HETATM   21  C14 UNL     1       8.193   8.162   3.379  1.00  0.00     0.011 C 
HETATM   22  C17 UNL     1       7.410   9.192   5.418  1.00  0.00    -0.010 C 
HETATM   23  C15 UNL     1       9.263   7.942   4.462  1.00  0.00     0.009 C 
HETATM   24  C16 UNL     1       8.433   8.111   5.708  1.00  0.00     0.011 C 
ENDBRANCH   3  15
TORSDOF 3
ENDMDL
MODEL 2
REMARK VINA RESULT: -8.131857608      1.592      2.683
REMARK  3 active torsions:
REMARK  status: ('A' for Active; 'I' for Inactive)
REMARK    1  A    between atoms: N2_8  and  C7_9 
REMARK    2  A    between atoms: C7_9  and  C8_10 
REMARK       I    between atoms: C8_10  and  N3_12 
REMARK    3  A    between atoms: N3_12  and  C9_14 
ROOT
HETATM    1  C8  UNL     1      13.610   7.969   4.930  1.00  0.00     0.246 C 
HETATM    2  O1  UNL     1      13.673   8.965   5.674  1.00  0.00    -0.272 OA
HETATM    3  N3  UNL     1      12.435   7.698   4.201  1.00  0.00    -0.355 N 
ATOM      4  H3  UNL     1      12.457   6.866   3.610  1.00  0.00     0.162 HD
ENDROOT
BRANCH   1   5
HETATM    5  C7  UNL     1      14.748   7.059   4.795  1.00  0.00     0.374 C 
BRANCH   5   6
HETATM    6  N2  UNL     1      15.705   7.362   3.760  1.00  0.00     0.099 N 
HETATM    7  C6  UNL     1      15.619   6.423   2.674  1.00  0.00     0.308 C 
HETATM    8  C5  UNL     1      15.299   6.953   1.336  1.00  0.00     0.251 C 
HETATM    9  N1  UNL     1      16.498   7.512   0.748  1.00  0.00     0.091 N 
HETATM   10  C4  UNL     1      14.379   8.166   1.415  1.00  0.00     0.045 C 
HETATM   11  C1  UNL     1      16.617   7.211  -0.639  1.00  0.00     0.310 C 
HETATM   12  C2  UNL     1      16.551   8.898   1.073  1.00  0.00     0.279 C 
HETATM   13  C3  UNL     1      15.388   9.141   2.043  1.00  0.00     0.044 C 
HETATM   14  C19 UNL     1      15.804   8.721   3.403  1.00  0.00     0.279 C 
ENDBRANCH   5   6
ENDBRANCH   1   5
BRANCH   3  15
HETATM   15  C9  UNL     1      11.215   8.445   4.186  1.00  0.00     0.088 C 
HETATM   16  C10 UNL     1      10.045   7.545   3.975  1.00  0.00     0.030 C 
HETATM   17  C11 UNL     1       8.719   8.209   4.234  1.00  0.00    -0.012 C 
HETATM   18  C12 UNL     1       8.783   9.501   4.977  1.00  0.00     0.010 C 
HETATM   19  C18 UNL     1       8.145   8.659   2.899  1.00  0.00     0.010 C 
HETATM   20  C13 UNL     1       9.207  10.541   3.995  1.00  0.00    -0.010 C 
HETATM   21  C14 UNL     1      10.676  10.859   4.004  1.00  0.00     0.011 C 
HETATM   22  C17 UNL     1       8.910   9.932   2.641  1.00  0.00    -0.010 C 
HETATM   23  C15 UNL     1      11.240   9.631   3.270  1.00  0.00     0.009 C 
HETATM   24  C16 UNL     1      10.276   9.532   2.116  1.00  0.00     0.011 C 
ENDBRANCH   3  15
TORSDOF 3
ENDMDL
MODEL 3
REMARK VINA RESULT: -8.042404198      1.158      1.985
REMARK  3 active torsions:
REMARK  status: ('A' for Active; 'I' for Inactive)
REMARK    1  A    between atoms: N2_8  and  C7_9 
REMARK    2  A    between atoms: C7_9  and  C8_10 
REMARK       I    between atoms: C8_10  and  N3_12 
REMARK    3  A    between atoms: N3_12  and  C9_14 
ROOT
HETATM    1  C8  UNL     1      13.188   7.784   4.336  1.00  0.00     0.246 C 
HETATM    2  O1  UNL     1      13.610   8.827   4.869  1.00  0.00    -0.272 OA
HETATM    3  N3  UNL     1      11.812   7.621   4.081  1.00  0.00    -0.355 N 
ATOM      4  H3  UNL     1      11.540   6.742   3.640  1.00  0.00     0.162 HD
ENDROOT
BRANCH   1   5
HETATM    5  C7  UNL     1      14.106   6.707   3.964  1.00  0.00     0.374 C 
BRANCH   5   6
HETATM    6  N2  UNL     1      14.765   6.824   2.687  1.00  0.00     0.099 N 
HETATM    7  C6  UNL     1      14.330   7.996   1.977  1.00  0.00     0.308 C 
HETATM    8  C5  UNL     1      15.349   9.000   1.625  1.00  0.00     0.251 C 
HETATM    9  N1  UNL     1      16.063   8.559   0.445  1.00  0.00     0.091 N 
HETATM   10  C4  UNL     1      16.459   9.067   2.668  1.00  0.00     0.045 C 
HETATM   11  C1  UNL     1      16.327   9.624  -0.464  1.00  0.00     0.310 C 
HETATM   12  C2  UNL     1      17.209   7.823   0.863  1.00  0.00     0.279 C 
HETATM   13  C3  UNL     1      17.083   7.691   2.386  1.00  0.00     0.044 C 
HETATM   14  C19 UNL     1      16.152   6.578   2.694  1.00  0.00     0.279 C 
ENDBRANCH   5   6
ENDBRANCH   1   5
BRANCH   3  15
HETATM   15  C9  UNL     1      10.749   8.536   4.363  1.00  0.00     0.088 C 
HETATM   16  C10 UNL     1       9.454   7.813   4.512  1.00  0.00     0.030 C 
HETATM   17  C11 UNL     1       8.352   8.662   5.090  1.00  0.00    -0.012 C 
HETATM   18  C12 UNL     1       8.794   9.934   5.733  1.00  0.00     0.010 C 
HETATM   19  C18 UNL     1       7.505   9.186   3.941  1.00  0.00     0.010 C 
HETATM   20  C13 UNL     1       9.073  10.898   4.630  1.00  0.00    -0.010 C 
HETATM   21  C14 UNL     1      10.518  11.002   4.231  1.00  0.00     0.011 C 
HETATM   22  C17 UNL     1       8.338  10.335   3.433  1.00  0.00    -0.010 C 
HETATM   23  C15 UNL     1      10.687   9.703   3.425  1.00  0.00     0.009 C 
HETATM   24  C16 UNL     1       9.441   9.740   2.578  1.00  0.00     0.011 C 
ENDBRANCH   3  15
TORSDOF 3
ENDMDL
MODEL 4
REMARK VINA RESULT: -8.032429283      1.723      2.486
REMARK  3 active torsions:
REMARK  status: ('A' for Active; 'I' for Inactive)
REMARK    1  A    between atoms: N2_8  and  C7_9 
REMARK    2  A    between atoms: C7_9  and  C8_10 
REMARK       I    between atoms: C8_10  and  N3_12 
REMARK    3  A    between atoms: N3_12  and  C9_14 
ROOT
HETATM    1  C8  UNL     1      12.429  10.507   2.026  1.00  0.00     0.246 C 
HETATM    2  O1  UNL     1      12.430  11.681   2.439  1.00  0.00    -0.272 OA
HETATM    3  N3  UNL     1      11.417   9.612   2.427  1.00  0.00    -0.355 N 
ATOM      4  H3  UNL     1      11.480   8.667   2.047  1.00  0.00     0.162 HD
ENDROOT
BRANCH   1   5
HETATM    5  C7  UNL     1      13.473  10.029   1.120  1.00  0.00     0.374 C 
BRANCH   5   6
HETATM    6  N2  UNL     1      14.753   9.716   1.709  1.00  0.00     0.099 N 
HETATM    7  C6  UNL     1      14.600   9.064   2.981  1.00  0.00     0.308 C 
HETATM    8  C5  UNL     1      15.171   7.713   3.129  1.00  0.00     0.251 C 
HETATM    9  N1  UNL     1      16.596   7.823   3.364  1.00  0.00     0.091 N 
HETATM   10  C4  UNL     1      15.118   6.931   1.822  1.00  0.00     0.045 C 
HETATM   11  C1  UNL     1      17.060   6.899   4.344  1.00  0.00     0.310 C 
HETATM   12  C2  UNL     1      17.263   7.758   2.108  1.00  0.00     0.279 C 
HETATM   13  C3  UNL     1      16.154   7.763   1.048  1.00  0.00     0.044 C 
HETATM   14  C19 UNL     1      15.705   9.160   0.833  1.00  0.00     0.279 C 
ENDBRANCH   5   6
ENDBRANCH   1   5
BRANCH   3  15
HETATM   15  C9  UNL     1      10.313   9.864   3.301  1.00  0.00     0.088 C 
HETATM   16  C10 UNL     1      10.664   9.526   4.709  1.00  0.00     0.030 C 
HETATM   17  C11 UNL     1       9.667  10.030   5.719  1.00  0.00    -0.012 C 
HETATM   18  C12 UNL     1       8.710  11.057   5.214  1.00  0.00     0.010 C 
HETATM   19  C18 UNL     1       8.726   8.888   6.067  1.00  0.00     0.010 C 
HETATM   20  C13 UNL     1       7.672  10.328   4.429  1.00  0.00    -0.010 C 
HETATM   21  C14 UNL     1       7.900  10.309   2.943  1.00  0.00     0.011 C 
HETATM   22  C17 UNL     1       7.778   8.891   4.895  1.00  0.00    -0.010 C 
HETATM   23  C15 UNL     1       9.021   9.263   2.838  1.00  0.00     0.009 C 
HETATM   24  C16 UNL     1       8.485   8.190   3.750  1.00  0.00     0.011 C 
ENDBRANCH   3  15
TORSDOF 3
ENDMDL
MODEL 5
REMARK VINA RESULT: -8.010039976      1.335      2.196
REMARK  3 active torsions:
REMARK  status: ('A' for Active; 'I' for Inactive)
REMARK    1  A    between atoms: N2_8  and  C7_9 
REMARK    2  A    between atoms: C7_9  and  C8_10 
REMARK       I    between atoms: C8_10  and  N3_12 
REMARK    3  A    between atoms: N3_12  and  C9_14 
ROOT
HETATM    1  C8  UNL     1      13.334   7.771   3.777  1.00  0.00     0.246 C 
HETATM    2  O1  UNL     1      13.666   8.104   4.929  1.00  0.00    -0.272 OA
HETATM    3  N3  UNL     1      12.047   8.076   3.290  1.00  0.00    -0.355 N 
ATOM      4  H3  UNL     1      11.847   7.774   2.336  1.00  0.00     0.162 HD
ENDROOT
BRANCH   1   5
HETATM    5  C7  UNL     1      14.266   7.056   2.904  1.00  0.00     0.374 C 
BRANCH   5   6
HETATM    6  N2  UNL     1      14.604   7.691   1.654  1.00  0.00     0.099 N 
HETATM    7  C6  UNL     1      15.053   9.042   1.855  1.00  0.00     0.308 C 
HETATM    8  C5  UNL     1      16.414   9.383   1.405  1.00  0.00     0.251 C 
HETATM    9  N1  UNL     1      16.399   9.609  -0.026  1.00  0.00     0.091 N 
HETATM   10  C4  UNL     1      17.366   8.200   1.536  1.00  0.00     0.045 C 
HETATM   11  C1  UNL     1      17.211  10.713  -0.414  1.00  0.00     0.310 C 
HETATM   12  C2  UNL     1      16.700   8.378  -0.676  1.00  0.00     0.279 C 
HETATM   13  C3  UNL     1      16.747   7.322   0.436  1.00  0.00     0.044 C 
HETATM   14  C19 UNL     1      15.361   6.908   0.760  1.00  0.00     0.279 C 
ENDBRANCH   5   6
ENDBRANCH   1   5
BRANCH   3  15
HETATM   15  C9  UNL     1      10.988   8.758   3.967  1.00  0.00     0.088 C 
HETATM   16  C10 UNL     1       9.872   7.821   4.284  1.00  0.00     0.030 C 
HETATM   17  C11 UNL     1       8.859   8.390   5.241  1.00  0.00    -0.012 C 
HETATM   18  C12 UNL     1       9.291   9.614   5.978  1.00  0.00     0.010 C 
HETATM   19  C18 UNL     1       7.689   8.925   4.430  1.00  0.00     0.010 C 
HETATM   20  C13 UNL     1       9.159  10.756   5.028  1.00  0.00    -0.010 C 
HETATM   21  C14 UNL     1      10.430  11.147   4.328  1.00  0.00     0.011 C 
HETATM   22  C17 UNL     1       8.217  10.254   3.954  1.00  0.00    -0.010 C 
HETATM   23  C15 UNL     1      10.545  10.019   3.290  1.00  0.00     0.009 C 
HETATM   24  C16 UNL     1       9.130   9.972   2.775  1.00  0.00     0.011 C 
ENDBRANCH   3  15
TORSDOF 3
ENDMDL
