MODEL 1
REMARK VINA RESULT: -8.732742679      0.000      0.000
REMARK  2 active torsions:
REMARK  status: ('A' for Active; 'I' for Inactive)
REMARK    1  A    between atoms: C1_2  and  C2_3 
REMARK       I    between atoms: C1_2  and  N1_8 
REMARK       I    between atoms: N2_12  and  C10_13 
REMARK    2  A    between atoms: C10_13  and  C11_15 
ROOT
HETATM    1  O1  UNL     1       6.454   9.035   2.070  1.00  0.00    -0.273 OA
HETATM    2  C1  UNL     1       6.939   9.622   3.085  1.00  0.00     0.224 C 
HETATM    3  N1  UNL     1       8.285   9.372   3.423  1.00  0.00    -0.351 N 
HETATM    4  C7  UNL     1       8.999   9.954   4.548  1.00  0.00     0.132 C 
HETATM    5  C8  UNL     1      10.184   9.095   4.624  1.00  0.00     0.029 C 
HETATM    6  C9  UNL     1      11.480   9.614   5.063  1.00  0.00     0.132 C 
HETATM    7  N2  UNL     1      12.400   8.768   4.278  1.00  0.00    -0.351 N 
HETATM    8  C10 UNL     1      13.791   8.659   4.555  1.00  0.00     0.224 C 
HETATM    9  O2  UNL     1      14.289   9.317   5.519  1.00  0.00    -0.273 OA
HETATM   10  C16 UNL     1      11.665   8.101   3.214  1.00  0.00     0.132 C 
HETATM   11  C17 UNL     1      10.490   9.003   3.105  1.00  0.00     0.029 C 
HETATM   12  C18 UNL     1       9.191   8.473   2.676  1.00  0.00     0.132 C 
ENDROOT
BRANCH   8  13
HETATM   13  C11 UNL     1      14.727   7.801   3.768  1.00  0.00     0.081 C 
HETATM   14  C12 UNL     1      15.654   8.681   3.013  1.00  0.00     0.041 C 
HETATM   15  C13 UNL     1      17.060   8.247   2.875  1.00  0.00     0.233 C 
HETATM   16  N3  UNL     1      17.549   7.476   4.003  1.00  0.00    -0.075 N 
HETATM   17  C14 UNL     1      16.675   6.320   4.092  1.00  0.00     0.233 C 
ATOM     18  H32 UNL     1      18.539   7.237   3.938  1.00  0.00     0.277 HD
ATOM     19  H31 UNL     1      17.610   8.011   4.869  1.00  0.00     0.277 HD
HETATM   20  C15 UNL     1      15.371   6.835   4.714  1.00  0.00     0.041 C 
ENDBRANCH   8  13
BRANCH   2  21
HETATM   21  C2  UNL     1       6.029  10.522   3.820  1.00  0.00     0.078 C 
HETATM   22  C3  UNL     1       6.078  10.411   5.298  1.00  0.00     0.014 C 
HETATM   23  C4  UNL     1       4.650  10.393   5.749  1.00  0.00     0.001 C 
HETATM   24  C5  UNL     1       3.915   9.725   4.626  1.00  0.00     0.001 C 
HETATM   25  C6  UNL     1       4.583  10.316   3.381  1.00  0.00     0.014 C 
ENDBRANCH   2  21
TORSDOF 2
ENDMDL
MODEL 2
REMARK VINA RESULT: -8.551127706      1.935      2.274
REMARK  2 active torsions:
REMARK  status: ('A' for Active; 'I' for Inactive)
REMARK    1  A    between atoms: C1_2  and  C2_3 
REMARK       I    between atoms: C1_2  and  N1_8 
REMARK       I    between atoms: N2_12  and  C10_13 
REMARK    2  A    between atoms: C10_13  and  C11_15 
ROOT
HETATM    1  O1  UNL     1       7.622   8.316   5.657  1.00  0.00    -0.273 OA
HETATM    2  C1  UNL     1       7.938   9.343   4.981  1.00  0.00     0.224 C 
HETATM    3  N1  UNL     1       9.211   9.383   4.379  1.00  0.00    -0.351 N 
HETATM    4  C7  UNL     1       9.736  10.475   3.575  1.00  0.00     0.132 C 
HETATM    5  C8  UNL     1      11.164  10.149   3.527  1.00  0.00     0.029 C 
HETATM    6  C9  UNL     1      11.985  10.472   2.359  1.00  0.00     0.132 C 
HETATM    7  N2  UNL     1      12.964   9.369   2.392  1.00  0.00    -0.351 N 
HETATM    8  C10 UNL     1      14.175   9.375   1.645  1.00  0.00     0.224 C 
HETATM    9  O2  UNL     1      14.446  10.367   0.902  1.00  0.00    -0.273 OA
HETATM   10  C16 UNL     1      12.489   8.318   3.280  1.00  0.00     0.132 C 
HETATM   11  C17 UNL     1      11.035   8.621   3.285  1.00  0.00     0.029 C 
HETATM   12  C18 UNL     1      10.222   8.305   4.465  1.00  0.00     0.132 C 
ENDROOT
BRANCH   8  13
HETATM   13  C11 UNL     1      15.173   8.264   1.678  1.00  0.00     0.081 C 
HETATM   14  C12 UNL     1      15.860   8.205   0.362  1.00  0.00     0.041 C 
HETATM   15  C13 UNL     1      17.302   7.883   0.349  1.00  0.00     0.233 C 
HETATM   16  N3  UNL     1      18.018   8.353   1.521  1.00  0.00    -0.075 N 
HETATM   17  C14 UNL     1      17.373   7.714   2.654  1.00  0.00     0.233 C 
ATOM     18  H32 UNL     1      19.025   8.192   1.478  1.00  0.00     0.277 HD
ATOM     19  H31 UNL     1      18.061   9.369   1.595  1.00  0.00     0.277 HD
HETATM   20  C15 UNL     1      16.059   8.477   2.866  1.00  0.00     0.041 C 
ENDBRANCH   8  13
BRANCH   2  21
HETATM   21  C2  UNL     1       6.921  10.409   4.896  1.00  0.00     0.078 C 
HETATM   22  C3  UNL     1       5.948  10.454   6.014  1.00  0.00     0.014 C 
HETATM   23  C4  UNL     1       4.606  10.639   5.374  1.00  0.00     0.001 C 
HETATM   24  C5  UNL     1       4.725   9.936   4.054  1.00  0.00     0.001 C 
HETATM   25  C6  UNL     1       6.135  10.314   3.592  1.00  0.00     0.014 C 
ENDBRANCH   2  21
TORSDOF 2
ENDMDL
MODEL 3
REMARK VINA RESULT: -8.497979400      3.512      4.330
REMARK  2 active torsions:
REMARK  status: ('A' for Active; 'I' for Inactive)
REMARK    1  A    between atoms: C1_2  and  C2_3 
REMARK       I    between atoms: C1_2  and  N1_8 
REMARK       I    between atoms: N2_12  and  C10_13 
REMARK    2  A    between atoms: C10_13  and  C11_15 
ROOT
HETATM    1  O1  UNL     1       9.774   8.301   4.555  1.00  0.00    -0.273 OA
HETATM    2  C1  UNL     1       9.926   9.462   4.066  1.00  0.00     0.224 C 
HETATM    3  N1  UNL     1      11.068   9.714   3.279  1.00  0.00    -0.351 N 
HETATM    4  C7  UNL     1      11.400  10.980   2.645  1.00  0.00     0.132 C 
HETATM    5  C8  UNL     1      12.807  10.774   2.290  1.00  0.00     0.029 C 
HETATM    6  C9  UNL     1      13.391  11.383   1.095  1.00  0.00     0.132 C 
HETATM    7  N2  UNL     1      14.401  10.369   0.731  1.00  0.00    -0.351 N 
HETATM    8  C10 UNL     1      15.456  10.612  -0.191  1.00  0.00     0.224 C 
HETATM    9  O2  UNL     1      15.553  11.749  -0.745  1.00  0.00    -0.273 OA
HETATM   10  C16 UNL     1      14.132   9.131   1.446  1.00  0.00     0.132 C 
HETATM   11  C17 UNL     1      12.692   9.320   1.760  1.00  0.00     0.029 C 
HETATM   12  C18 UNL     1      12.116   8.717   2.967  1.00  0.00     0.132 C 
ENDROOT
BRANCH   8  13
HETATM   13  C11 UNL     1      16.484   9.592  -0.560  1.00  0.00     0.081 C 
HETATM   14  C12 UNL     1      16.720   9.666  -2.024  1.00  0.00     0.041 C 
HETATM   15  C13 UNL     1      18.103   9.473  -2.512  1.00  0.00     0.233 C 
HETATM   16  N3  UNL     1      19.120   9.938  -1.588  1.00  0.00    -0.075 N 
HETATM   17  C14 UNL     1      18.911   9.183  -0.365  1.00  0.00     0.233 C 
ATOM     18  H32 UNL     1      20.070   9.868  -1.955  1.00  0.00     0.277 HD
ATOM     19  H31 UNL     1      19.118  10.948  -1.451  1.00  0.00     0.277 HD
HETATM   20  C15 UNL     1      17.685   9.816   0.306  1.00  0.00     0.041 C 
ENDBRANCH   8  13
BRANCH   2  21
HETATM   21  C2  UNL     1       8.872  10.448   4.378  1.00  0.00     0.078 C 
HETATM   22  C3  UNL     1       8.464  10.516   5.802  1.00  0.00     0.014 C 
HETATM   23  C4  UNL     1       6.967  10.558   5.790  1.00  0.00     0.001 C 
HETATM   24  C5  UNL     1       6.582   9.762   4.579  1.00  0.00     0.001 C 
HETATM   25  C6  UNL     1       7.621  10.195   3.541  1.00  0.00     0.014 C 
ENDBRANCH   2  21
TORSDOF 2
ENDMDL
MODEL 4
REMARK VINA RESULT: -8.492176897      1.993      2.525
REMARK  2 active torsions:
REMARK  status: ('A' for Active; 'I' for Inactive)
REMARK    1  A    between atoms: C1_2  and  C2_3 
REMARK       I    between atoms: C1_2  and  N1_8 
REMARK       I    between atoms: N2_12  and  C10_13 
REMARK    2  A    between atoms: C10_13  and  C11_15 
ROOT
HETATM    1  O1  UNL     1       7.236  10.898   2.056  1.00  0.00    -0.273 OA
HETATM    2  C1  UNL     1       7.652   9.955   2.796  1.00  0.00     0.224 C 
HETATM    3  N1  UNL     1       8.963   9.477   2.596  1.00  0.00    -0.351 N 
HETATM    4  C7  UNL     1       9.599   8.407   3.348  1.00  0.00     0.132 C 
HETATM    5  C8  UNL     1      10.759   8.102   2.506  1.00  0.00     0.029 C 
HETATM    6  C9  UNL     1      12.026   7.651   3.083  1.00  0.00     0.132 C 
HETATM    7  N2  UNL     1      12.989   8.216   2.117  1.00  0.00    -0.351 N 
HETATM    8  C10 UNL     1      14.353   7.816   2.048  1.00  0.00     0.224 C 
HETATM    9  O2  UNL     1      14.787   6.934   2.849  1.00  0.00    -0.273 OA
HETATM   10  C16 UNL     1      12.326   9.214   1.291  1.00  0.00     0.132 C 
HETATM   11  C17 UNL     1      11.180   9.558   2.170  1.00  0.00     0.029 C 
HETATM   12  C18 UNL     1       9.908   9.997   1.584  1.00  0.00     0.132 C 
ENDROOT
BRANCH   8  13
HETATM   13  C11 UNL     1      15.331   8.380   1.069  1.00  0.00     0.081 C 
HETATM   14  C12 UNL     1      15.989   9.561   1.685  1.00  0.00     0.041 C 
HETATM   15  C13 UNL     1      17.425   9.775   1.407  1.00  0.00     0.233 C 
HETATM   16  N3  UNL     1      18.173   8.547   1.212  1.00  0.00    -0.075 N 
HETATM   17  C14 UNL     1      17.541   7.880   0.088  1.00  0.00     0.233 C 
ATOM     18  H32 UNL     1      19.176   8.693   1.090  1.00  0.00     0.277 HD
ATOM     19  H31 UNL     1      18.236   7.968   2.049  1.00  0.00     0.277 HD
HETATM   20  C15 UNL     1      16.246   7.273   0.644  1.00  0.00     0.041 C 
ENDBRANCH   8  13
BRANCH   2  21
HETATM   21  C2  UNL     1       6.704   9.447   3.807  1.00  0.00     0.078 C 
HETATM   22  C3  UNL     1       5.368  10.091   3.809  1.00  0.00     0.014 C 
HETATM   23  C4  UNL     1       5.053  10.362   5.248  1.00  0.00     0.001 C 
HETATM   24  C5  UNL     1       6.390  10.615   5.879  1.00  0.00     0.001 C 
HETATM   25  C6  UNL     1       7.286   9.567   5.212  1.00  0.00     0.014 C 
ENDBRANCH   2  21
TORSDOF 2
ENDMDL
MODEL 5
REMARK VINA RESULT: -8.262370320      4.020      9.159
REMARK  2 active torsions:
REMARK  status: ('A' for Active; 'I' for Inactive)
REMARK    1  A    between atoms: C1_2  and  C2_3 
REMARK       I    between atoms: C1_2  and  N1_8 
REMARK       I    between atoms: N2_12  and  C10_13 
REMARK    2  A    between atoms: C10_13  and  C11_15 
ROOT
HETATM    1  O1  UNL     1      15.424  11.439  -2.248  1.00  0.00    -0.273 OA
HETATM    2  C1  UNL     1      15.622  10.529  -1.387  1.00  0.00     0.224 C 
HETATM    3  N1  UNL     1      14.701  10.397  -0.328  1.00  0.00    -0.351 N 
HETATM    4  C7  UNL     1      14.773   9.415   0.742  1.00  0.00     0.132 C 
HETATM    5  C8  UNL     1      13.815   9.958   1.709  1.00  0.00     0.029 C 
HETATM    6  C9  UNL     1      13.018   9.084   2.570  1.00  0.00     0.132 C 
HETATM    7  N2  UNL     1      11.787   9.886   2.718  1.00  0.00    -0.351 N 
HETATM    8  C10 UNL     1      10.799   9.626   3.707  1.00  0.00     0.224 C 
HETATM    9  O2  UNL     1      10.959   8.658   4.512  1.00  0.00    -0.273 OA
HETATM   10  C16 UNL     1      11.764  10.937   1.712  1.00  0.00     0.132 C 
HETATM   11  C17 UNL     1      12.696  10.360   0.711  1.00  0.00     0.029 C 
HETATM   12  C18 UNL     1      13.501  11.242  -0.140  1.00  0.00     0.132 C 
ENDROOT
BRANCH   8  13
HETATM   13  C11 UNL     1       9.553  10.436   3.866  1.00  0.00     0.081 C 
HETATM   14  C12 UNL     1       8.485   9.829   3.032  1.00  0.00     0.041 C 
HETATM   15  C13 UNL     1       7.108   9.826   3.570  1.00  0.00     0.233 C 
HETATM   16  N3  UNL     1       7.043   9.730   5.016  1.00  0.00    -0.075 N 
HETATM   17  C14 UNL     1       7.773  10.881   5.517  1.00  0.00     0.233 C 
ATOM     18  H32 UNL     1       6.093   9.657   5.380  1.00  0.00     0.277 HD
ATOM     19  H31 UNL     1       7.381   8.840   5.383  1.00  0.00     0.277 HD
HETATM   20  C15 UNL     1       9.257  10.542   5.330  1.00  0.00     0.041 C 
ENDBRANCH   8  13
BRANCH   2  21
HETATM   21  C2  UNL     1      16.818   9.686  -1.587  1.00  0.00     0.078 C 
HETATM   22  C3  UNL     1      18.013  10.390  -2.112  1.00  0.00     0.014 C 
HETATM   23  C4  UNL     1      18.561   9.505  -3.188  1.00  0.00     0.001 C 
HETATM   24  C5  UNL     1      17.353   8.824  -3.760  1.00  0.00     0.001 C 
HETATM   25  C6  UNL     1      16.514   8.516  -2.517  1.00  0.00     0.014 C 
ENDBRANCH   2  21
TORSDOF 2
ENDMDL
