MODEL 1
REMARK VINA RESULT: -8.145585897      0.000      0.000
REMARK  2 active torsions:
REMARK  status: ('A' for Active; 'I' for Inactive)
REMARK    1  A    between atoms: C5_6  and  C6_7 
REMARK       I    between atoms: N3_12  and  C9_13 
REMARK    2  A    between atoms: C9_13  and  C10_15 
ROOT
HETATM    1  C1  UNL     1      31.373  25.757   9.251  1.00  0.00     0.012 C 
HETATM    2  C2  UNL     1      30.263  25.341   9.466  1.00  0.00    -0.110 C 
HETATM    3  C3  UNL     1      28.950  24.823   9.731  1.00  0.00     0.104 C 
HETATM    4  C4  UNL     1      28.642  23.491   9.137  1.00  0.00     0.294 C 
HETATM    5  N1  UNL     1      27.231  23.444   8.939  1.00  0.00     0.127 N 
HETATM    6  C5  UNL     1      26.905  22.894   7.673  1.00  0.00     0.315 C 
HETATM    7  C7  UNL     1      25.417  22.814   7.401  1.00  0.00     0.065 C 
HETATM    8  C8  UNL     1      24.702  23.727   8.383  1.00  0.00     0.130 C 
HETATM    9  N3  UNL     1      25.478  24.981   8.534  1.00  0.00    -0.321 N 
HETATM   10  C9  UNL     1      24.922  26.146   8.024  1.00  0.00     0.225 C 
HETATM   11  O2  UNL     1      25.519  27.240   8.087  1.00  0.00    -0.273 OA
HETATM   12  C13 UNL     1      26.695  24.773   9.204  1.00  0.00     0.336 C 
HETATM   13  C14 UNL     1      27.827  25.695   9.120  1.00  0.00     0.017 C 
HETATM   14  C15 UNL     1      27.760  26.889  10.081  1.00  0.00     0.020 C 
HETATM   15  C16 UNL     1      28.329  26.073   7.769  1.00  0.00     0.020 C 
ENDROOT
BRANCH   6  16
HETATM   16  C6  UNL     1      27.409  21.496   7.586  1.00  0.00     0.264 C 
HETATM   17  N2  UNL     1      26.539  20.386   7.856  1.00  0.00    -0.060 NA
HETATM   18  O1  UNL     1      28.586  21.202   7.282  1.00  0.00    -0.274 OA
ENDBRANCH   6  16
BRANCH  10  19
HETATM   19  C10 UNL     1      23.577  26.224   7.363  1.00  0.00     0.070 C 
HETATM   20  C11 UNL     1      23.291  27.665   6.981  1.00  0.00     0.019 C 
HETATM   21  C12 UNL     1      22.467  25.852   8.333  1.00  0.00     0.019 C 
ENDBRANCH  10  19
TORSDOF 2
ENDMDL
MODEL 2
REMARK VINA RESULT: -7.633074300      1.727      4.884
REMARK  2 active torsions:
REMARK  status: ('A' for Active; 'I' for Inactive)
REMARK    1  A    between atoms: C5_6  and  C6_7 
REMARK       I    between atoms: N3_12  and  C9_13 
REMARK    2  A    between atoms: C9_13  and  C10_15 
ROOT
HETATM    1  C1  UNL     1      22.901  25.715   8.682  1.00  0.00     0.012 C 
HETATM    2  C2  UNL     1      23.961  25.402   8.202  1.00  0.00    -0.110 C 
HETATM    3  C3  UNL     1      25.212  25.017   7.613  1.00  0.00     0.104 C 
HETATM    4  C4  UNL     1      25.385  23.561   7.342  1.00  0.00     0.294 C 
HETATM    5  N1  UNL     1      26.785  23.296   7.391  1.00  0.00     0.127 N 
HETATM    6  C5  UNL     1      27.059  22.106   8.112  1.00  0.00     0.315 C 
HETATM    7  C7  UNL     1      28.533  21.767   8.200  1.00  0.00     0.065 C 
HETATM    8  C8  UNL     1      29.332  23.010   7.851  1.00  0.00     0.130 C 
HETATM    9  N3  UNL     1      28.688  24.192   8.474  1.00  0.00    -0.321 N 
HETATM   10  C9  UNL     1      29.364  24.820   9.511  1.00  0.00     0.225 C 
HETATM   11  O2  UNL     1      28.883  25.805  10.107  1.00  0.00    -0.273 OA
HETATM   12  C13 UNL     1      27.453  24.496   7.880  1.00  0.00     0.336 C 
HETATM   13  C14 UNL     1      26.422  25.300   8.534  1.00  0.00     0.017 C 
HETATM   14  C15 UNL     1      26.605  26.818   8.401  1.00  0.00     0.020 C 
HETATM   15  C16 UNL     1      25.969  24.895   9.895  1.00  0.00     0.020 C 
ENDROOT
BRANCH   6  16
HETATM   16  C6  UNL     1      26.415  20.948   7.436  1.00  0.00     0.264 C 
HETATM   17  N2  UNL     1      26.021  19.788   8.185  1.00  0.00    -0.060 NA
HETATM   18  O1  UNL     1      26.180  20.905   6.207  1.00  0.00    -0.274 OA
ENDBRANCH   6  16
BRANCH  10  19
HETATM   19  C10 UNL     1      30.714  24.403  10.018  1.00  0.00     0.070 C 
HETATM   20  C11 UNL     1      30.620  24.110  11.504  1.00  0.00     0.019 C 
HETATM   21  C12 UNL     1      31.717  25.540   9.908  1.00  0.00     0.019 C 
ENDBRANCH  10  19
TORSDOF 2
ENDMDL
MODEL 3
REMARK VINA RESULT: -7.397474407      1.648      2.164
REMARK  2 active torsions:
REMARK  status: ('A' for Active; 'I' for Inactive)
REMARK    1  A    between atoms: C5_6  and  C6_7 
REMARK       I    between atoms: N3_12  and  C9_13 
REMARK    2  A    between atoms: C9_13  and  C10_15 
ROOT
HETATM    1  C1  UNL     1      31.409  27.180   9.155  1.00  0.00     0.012 C 
HETATM    2  C2  UNL     1      30.662  26.271   9.417  1.00  0.00    -0.110 C 
HETATM    3  C3  UNL     1      29.792  25.175   9.737  1.00  0.00     0.104 C 
HETATM    4  C4  UNL     1      30.141  23.864   9.119  1.00  0.00     0.294 C 
HETATM    5  N1  UNL     1      28.926  23.129   8.997  1.00  0.00     0.127 N 
HETATM    6  C5  UNL     1      28.833  22.491   7.734  1.00  0.00     0.315 C 
HETATM    7  C7  UNL     1      27.561  21.690   7.541  1.00  0.00     0.065 C 
HETATM    8  C8  UNL     1      26.554  22.131   8.589  1.00  0.00     0.130 C 
HETATM    9  N3  UNL     1      26.623  23.605   8.737  1.00  0.00    -0.321 N 
HETATM   10  C9  UNL     1      25.535  24.347   8.295  1.00  0.00     0.225 C 
HETATM   11  O2  UNL     1      25.520  25.593   8.360  1.00  0.00    -0.273 OA
HETATM   12  C13 UNL     1      27.824  24.022   9.332  1.00  0.00     0.336 C 
HETATM   13  C14 UNL     1      28.350  25.382   9.216  1.00  0.00     0.017 C 
HETATM   14  C15 UNL     1      27.766  26.388  10.216  1.00  0.00     0.020 C 
HETATM   15  C16 UNL     1      28.515  25.959   7.852  1.00  0.00     0.020 C 
ENDROOT
BRANCH   6  16
HETATM   16  C6  UNL     1      29.951  21.522   7.576  1.00  0.00     0.264 C 
HETATM   17  N2  UNL     1      30.971  21.735   6.588  1.00  0.00    -0.060 NA
HETATM   18  O1  UNL     1      30.076  20.488   8.270  1.00  0.00    -0.274 OA
ENDBRANCH   6  16
BRANCH  10  19
HETATM   19  C10 UNL     1      24.286  23.753   7.711  1.00  0.00     0.070 C 
HETATM   20  C11 UNL     1      24.486  23.536   6.222  1.00  0.00     0.019 C 
HETATM   21  C12 UNL     1      23.120  24.723   7.809  1.00  0.00     0.019 C 
ENDBRANCH  10  19
TORSDOF 2
ENDMDL
MODEL 4
REMARK VINA RESULT: -7.376922676      6.106      8.306
REMARK  2 active torsions:
REMARK  status: ('A' for Active; 'I' for Inactive)
REMARK    1  A    between atoms: C5_6  and  C6_7 
REMARK       I    between atoms: N3_12  and  C9_13 
REMARK    2  A    between atoms: C9_13  and  C10_15 
ROOT
HETATM    1  C1  UNL     1      35.902  16.850  10.748  1.00  0.00     0.012 C 
HETATM    2  C2  UNL     1      34.909  17.395  10.337  1.00  0.00    -0.110 C 
HETATM    3  C3  UNL     1      33.724  18.028   9.830  1.00  0.00     0.104 C 
HETATM    4  C4  UNL     1      33.710  18.310   8.366  1.00  0.00     0.294 C 
HETATM    5  N1  UNL     1      32.854  19.432   8.170  1.00  0.00     0.127 N 
HETATM    6  C5  UNL     1      33.421  20.361   7.262  1.00  0.00     0.315 C 
HETATM    7  C7  UNL     1      32.556  21.580   7.008  1.00  0.00     0.065 C 
HETATM    8  C8  UNL     1      31.518  21.667   8.113  1.00  0.00     0.130 C 
HETATM    9  N3  UNL     1      32.155  21.324   9.407  1.00  0.00    -0.321 N 
HETATM   10  C9  UNL     1      32.307  22.343  10.338  1.00  0.00     0.225 C 
HETATM   11  O2  UNL     1      32.854  22.146  11.442  1.00  0.00    -0.273 OA
HETATM   12  C13 UNL     1      32.506  19.967   9.481  1.00  0.00     0.336 C 
HETATM   13  C14 UNL     1      33.503  19.444  10.414  1.00  0.00     0.017 C 
HETATM   14  C15 UNL     1      32.977  19.153  11.825  1.00  0.00     0.020 C 
HETATM   15  C16 UNL     1      34.856  20.069  10.423  1.00  0.00     0.020 C 
ENDROOT
BRANCH   6  16
HETATM   16  C6  UNL     1      33.611  19.716   5.934  1.00  0.00     0.264 C 
HETATM   17  N2  UNL     1      32.480  19.342   5.133  1.00  0.00    -0.060 NA
HETATM   18  O1  UNL     1      34.733  19.463   5.441  1.00  0.00    -0.274 OA
ENDBRANCH   6  16
BRANCH  10  19
HETATM   19  C10 UNL     1      31.838  23.754  10.134  1.00  0.00     0.070 C 
HETATM   20  C11 UNL     1      32.987  24.706  10.414  1.00  0.00     0.019 C 
HETATM   21  C12 UNL     1      30.767  24.129  11.145  1.00  0.00     0.019 C 
ENDBRANCH  10  19
TORSDOF 2
ENDMDL
MODEL 5
REMARK VINA RESULT: -7.299731267      6.332      8.787
REMARK  2 active torsions:
REMARK  status: ('A' for Active; 'I' for Inactive)
REMARK    1  A    between atoms: C5_6  and  C6_7 
REMARK       I    between atoms: N3_12  and  C9_13 
REMARK    2  A    between atoms: C9_13  and  C10_15 
ROOT
HETATM    1  C1  UNL     1      33.191  25.704  12.195  1.00  0.00     0.012 C 
HETATM    2  C2  UNL     1      32.834  24.561  12.068  1.00  0.00    -0.110 C 
HETATM    3  C3  UNL     1      32.406  23.196  11.942  1.00  0.00     0.104 C 
HETATM    4  C4  UNL     1      33.162  22.198  12.751  1.00  0.00     0.294 C 
HETATM    5  N1  UNL     1      33.071  20.953  12.062  1.00  0.00     0.127 N 
HETATM    6  C5  UNL     1      34.322  20.288  12.030  1.00  0.00     0.315 C 
HETATM    7  C7  UNL     1      34.292  18.955  11.311  1.00  0.00     0.065 C 
HETATM    8  C8  UNL     1      33.033  18.896  10.465  1.00  0.00     0.130 C 
HETATM    9  N3  UNL     1      32.813  20.217   9.828  1.00  0.00    -0.321 N 
HETATM   10  C9  UNL     1      32.972  20.300   8.451  1.00  0.00     0.225 C 
HETATM   11  O2  UNL     1      32.830  21.378   7.839  1.00  0.00    -0.273 OA
HETATM   12  C13 UNL     1      32.458  21.202  10.763  1.00  0.00     0.336 C 
HETATM   13  C14 UNL     1      32.600  22.636  10.512  1.00  0.00     0.017 C 
HETATM   14  C15 UNL     1      31.441  23.274   9.736  1.00  0.00     0.020 C 
HETATM   15  C16 UNL     1      33.931  23.148  10.078  1.00  0.00     0.020 C 
ENDROOT
BRANCH   6  16
HETATM   16  C6  UNL     1      34.769  19.990  13.418  1.00  0.00     0.264 C 
HETATM   17  N2  UNL     1      34.058  19.044  14.230  1.00  0.00    -0.060 NA
HETATM   18  O1  UNL     1      35.764  20.527  13.955  1.00  0.00    -0.274 OA
ENDBRANCH   6  16
BRANCH  10  19
HETATM   19  C10 UNL     1      33.316  19.138   7.566  1.00  0.00     0.070 C 
HETATM   20  C11 UNL     1      34.776  19.234   7.162  1.00  0.00     0.019 C 
HETATM   21  C12 UNL     1      32.546  19.198   6.257  1.00  0.00     0.019 C 
ENDBRANCH  10  19
TORSDOF 2
ENDMDL
