MODEL 1
REMARK VINA RESULT: -8.775698881      0.000      0.000
REMARK  7 active torsions:
REMARK  status: ('A' for Active; 'I' for Inactive)
REMARK    1  A    between atoms: O1_2  and  N1_3 
REMARK    2  A    between atoms: N1_3  and  C2_5 
REMARK    3  A    between atoms: N3_9  and  C4_11 
REMARK    4  A    between atoms: C4_11  and  N4_13 
REMARK    5  A    between atoms: N4_13  and  C5_15 
REMARK    6  A    between atoms: C10_27  and  C11_28 
REMARK    7  A    between atoms: C11_28  and  N9_32 
ROOT
HETATM    1  C2  UNL     1      15.954  39.976  24.259  1.00  0.00     0.171 A 
HETATM    2  N2  UNL     1      14.818  40.534  24.669  1.00  0.00    -0.172 N 
ATOM      3  H2  UNL     1      14.255  41.046  23.989  1.00  0.00     0.186 HD
HETATM    4  C3  UNL     1      14.362  40.454  25.980  1.00  0.00     0.688 A 
HETATM    5  N3  UNL     1      13.292  41.013  26.258  1.00  0.00    -0.166 N 
ATOM      6  H3  UNL     1      12.893  41.473  25.440  1.00  0.00     0.186 HD
HETATM    7  N6  UNL     1      15.130  39.776  26.836  1.00  0.00    -0.173 N 
ATOM      8  H6  UNL     1      14.815  39.705  27.804  1.00  0.00     0.186 HD
HETATM    9  C8  UNL     1      16.308  39.171  26.502  1.00  0.00     0.169 A 
HETATM   10  C9  UNL     1      16.701  39.289  25.188  1.00  0.00     0.127 A 
HETATM   11  N7  UNL     1      17.862  38.627  25.082  1.00  0.00    -0.332 N 
ATOM     12  H7  UNL     1      18.418  38.523  24.234  1.00  0.00     0.168 HD
HETATM   13  C10 UNL     1      18.166  38.120  26.306  1.00  0.00     0.168 A 
HETATM   14  N10 UNL     1      17.218  38.445  27.199  1.00  0.00    -0.212 N 
HETATM   15  C14 UNL     1      17.161  38.120  28.557  1.00  0.00     0.192 C 
HETATM   16  N11 UNL     1      17.135  37.845  29.681  1.00  0.00    -0.171 NA
ENDROOT
BRANCH  13  17
HETATM   17  C11 UNL     1      19.388  37.322  26.566  1.00  0.00     0.142 C 
HETATM   18  N8  UNL     1      19.587  36.920  27.795  1.00  0.00    -0.382 N 
ATOM     19  H82 UNL     1      18.939  37.140  28.551  1.00  0.00     0.157 HD
ATOM     20  H81 UNL     1      20.428  36.371  27.973  1.00  0.00     0.157 HD
BRANCH  17  21
HETATM   21  N9  UNL     1      20.282  37.018  25.522  1.00  0.00    -0.373 N 
HETATM   22  C12 UNL     1      20.209  35.754  24.842  1.00  0.00     0.150 C 
HETATM   23  C13 UNL     1      21.276  37.979  25.130  1.00  0.00     0.150 C 
ENDBRANCH  17  21
ENDBRANCH  13  17
BRANCH   1  24
HETATM   24  N1  UNL     1      16.318  40.081  23.032  1.00  0.00    -0.248 N 
ATOM     25  H1  UNL     1      15.624  40.046  22.285  1.00  0.00     0.196 HD
BRANCH  24  26
HETATM   26  O1  UNL     1      17.643  40.242  22.731  1.00  0.00    -0.284 OA
HETATM   27  C1  UNL     1      18.234  39.724  21.552  1.00  0.00     0.237 C 
ENDBRANCH  24  26
ENDBRANCH   1  24
BRANCH   5  28
HETATM   28  C4  UNL     1      12.507  41.182  27.343  1.00  0.00     0.191 C 
HETATM   29  S1  UNL     1      12.561  42.673  28.120  1.00  0.00    -0.040 SA
BRANCH  28  30
HETATM   30  N4  UNL     1      11.652  40.220  27.930  1.00  0.00    -0.326 N 
ATOM     31  H4  UNL     1      10.749  40.042  27.491  1.00  0.00     0.169 HD
BRANCH  30  32
HETATM   32  C5  UNL     1      11.990  39.492  29.098  1.00  0.00     0.094 A 
HETATM   33  C6  UNL     1      11.294  38.677  29.940  1.00  0.00     0.056 A 
HETATM   34  C7  UNL     1      11.957  38.128  30.971  1.00  0.00     0.099 A 
HETATM   35  N5  UNL     1      13.249  38.411  31.109  1.00  0.00    -0.335 N 
HETATM   36  S2  UNL     1      13.578  39.434  29.828  1.00  0.00     0.003 SA
ATOM     37  H5  UNL     1      13.891  38.081  31.829  1.00  0.00     0.173 HD
ENDBRANCH  30  32
ENDBRANCH  28  30
ENDBRANCH   5  28
TORSDOF 7
ENDMDL
MODEL 2
REMARK VINA RESULT: -8.678371906      1.124      1.188
REMARK  7 active torsions:
REMARK  status: ('A' for Active; 'I' for Inactive)
REMARK    1  A    between atoms: O1_2  and  N1_3 
REMARK    2  A    between atoms: N1_3  and  C2_5 
REMARK    3  A    between atoms: N3_9  and  C4_11 
REMARK    4  A    between atoms: C4_11  and  N4_13 
REMARK    5  A    between atoms: N4_13  and  C5_15 
REMARK    6  A    between atoms: C10_27  and  C11_28 
REMARK    7  A    between atoms: C11_28  and  N9_32 
ROOT
HETATM    1  C2  UNL     1      16.110  40.031  23.994  1.00  0.00     0.171 A 
HETATM    2  N2  UNL     1      14.980  40.655  24.313  1.00  0.00    -0.172 N 
ATOM      3  H2  UNL     1      14.477  41.154  23.579  1.00  0.00     0.186 HD
HETATM    4  C3  UNL     1      14.452  40.661  25.599  1.00  0.00     0.688 A 
HETATM    5  N3  UNL     1      13.394  41.277  25.790  1.00  0.00    -0.166 N 
ATOM      6  H3  UNL     1      13.060  41.711  24.930  1.00  0.00     0.186 HD
HETATM    7  N6  UNL     1      15.143  39.997  26.528  1.00  0.00    -0.173 N 
ATOM      8  H6  UNL     1      14.774  39.988  27.480  1.00  0.00     0.186 HD
HETATM    9  C8  UNL     1      16.309  39.327  26.290  1.00  0.00     0.169 A 
HETATM   10  C9  UNL     1      16.776  39.362  24.995  1.00  0.00     0.127 A 
HETATM   11  N7  UNL     1      17.911  38.648  24.986  1.00  0.00    -0.332 N 
ATOM     12  H7  UNL     1      18.506  38.477  24.176  1.00  0.00     0.168 HD
HETATM   13  C10 UNL     1      18.127  38.191  26.249  1.00  0.00     0.168 A 
HETATM   14  N10 UNL     1      17.148  38.600  27.070  1.00  0.00    -0.212 N 
HETATM   15  C14 UNL     1      17.005  38.349  28.437  1.00  0.00     0.192 C 
HETATM   16  N11 UNL     1      16.907  38.132  29.571  1.00  0.00    -0.171 NA
ENDROOT
BRANCH  13  17
HETATM   17  C11 UNL     1      19.297  37.358  26.614  1.00  0.00     0.142 C 
HETATM   18  N8  UNL     1      19.414  37.014  27.871  1.00  0.00    -0.382 N 
ATOM     19  H82 UNL     1      18.738  37.301  28.579  1.00  0.00     0.157 HD
ATOM     20  H81 UNL     1      20.219  36.441  28.122  1.00  0.00     0.157 HD
BRANCH  17  21
HETATM   21  N9  UNL     1      20.229  36.962  25.637  1.00  0.00    -0.373 N 
HETATM   22  C12 UNL     1      20.150  35.659  25.037  1.00  0.00     0.150 C 
HETATM   23  C13 UNL     1      21.269  37.868  25.232  1.00  0.00     0.150 C 
ENDBRANCH  17  21
ENDBRANCH  13  17
BRANCH   1  24
HETATM   24  N1  UNL     1      16.544  40.058  22.785  1.00  0.00    -0.248 N 
ATOM     25  H1  UNL     1      16.580  40.939  22.273  1.00  0.00     0.196 HD
BRANCH  24  26
HETATM   26  O1  UNL     1      16.957  38.898  22.189  1.00  0.00    -0.284 OA
HETATM   27  C1  UNL     1      18.080  38.833  21.328  1.00  0.00     0.237 C 
ENDBRANCH  24  26
ENDBRANCH   1  24
BRANCH   5  28
HETATM   28  C4  UNL     1      12.561  41.534  26.821  1.00  0.00     0.191 C 
HETATM   29  S1  UNL     1      13.012  42.736  27.907  1.00  0.00    -0.040 SA
BRANCH  28  30
HETATM   30  N4  UNL     1      11.345  40.874  27.113  1.00  0.00    -0.326 N 
ATOM     31  H4  UNL     1      10.489  41.217  26.676  1.00  0.00     0.169 HD
BRANCH  30  32
HETATM   32  C5  UNL     1      11.257  39.758  27.983  1.00  0.00     0.094 A 
HETATM   33  C6  UNL     1      11.707  39.502  29.242  1.00  0.00     0.056 A 
HETATM   34  C7  UNL     1      11.420  38.305  29.779  1.00  0.00     0.099 A 
HETATM   35  N5  UNL     1      10.716  37.444  29.052  1.00  0.00    -0.335 N 
HETATM   36  S2  UNL     1      10.435  38.258  27.620  1.00  0.00     0.003 SA
ATOM     37  H5  UNL     1      10.416  36.503  29.309  1.00  0.00     0.173 HD
ENDBRANCH  30  32
ENDBRANCH  28  30
ENDBRANCH   5  28
TORSDOF 7
ENDMDL
MODEL 3
REMARK VINA RESULT: -8.547822312      1.751      2.231
REMARK  7 active torsions:
REMARK  status: ('A' for Active; 'I' for Inactive)
REMARK    1  A    between atoms: O1_2  and  N1_3 
REMARK    2  A    between atoms: N1_3  and  C2_5 
REMARK    3  A    between atoms: N3_9  and  C4_11 
REMARK    4  A    between atoms: C4_11  and  N4_13 
REMARK    5  A    between atoms: N4_13  and  C5_15 
REMARK    6  A    between atoms: C10_27  and  C11_28 
REMARK    7  A    between atoms: C11_28  and  N9_32 
ROOT
HETATM    1  C2  UNL     1      15.726  40.286  24.299  1.00  0.00     0.171 A 
HETATM    2  N2  UNL     1      14.767  40.505  25.193  1.00  0.00    -0.172 N 
ATOM      3  H2  UNL     1      13.948  41.042  24.905  1.00  0.00     0.186 HD
HETATM    4  C3  UNL     1      14.826  40.039  26.501  1.00  0.00     0.688 A 
HETATM    5  N3  UNL     1      13.879  40.303  27.256  1.00  0.00    -0.166 N 
ATOM      6  H3  UNL     1      13.167  40.854  26.776  1.00  0.00     0.186 HD
HETATM    7  N6  UNL     1      15.915  39.343  26.836  1.00  0.00    -0.173 N 
ATOM      8  H6  UNL     1      15.981  38.992  27.791  1.00  0.00     0.186 HD
HETATM    9  C8  UNL     1      16.947  39.069  25.983  1.00  0.00     0.169 A 
HETATM   10  C9  UNL     1      16.824  39.560  24.703  1.00  0.00     0.127 A 
HETATM   11  N7  UNL     1      17.927  39.176  24.046  1.00  0.00    -0.332 N 
ATOM     12  H7  UNL     1      18.146  39.379  23.070  1.00  0.00     0.168 HD
HETATM   13  C10 UNL     1      18.702  38.468  24.910  1.00  0.00     0.168 A 
HETATM   14  N10 UNL     1      18.114  38.391  26.113  1.00  0.00    -0.212 N 
HETATM   15  C14 UNL     1      18.585  37.758  27.266  1.00  0.00     0.192 C 
HETATM   16  N11 UNL     1      18.995  37.231  28.213  1.00  0.00    -0.171 NA
ENDROOT
BRANCH  13  17
HETATM   17  C11 UNL     1      20.008  37.882  24.525  1.00  0.00     0.142 C 
HETATM   18  N8  UNL     1      21.084  38.523  24.904  1.00  0.00    -0.382 N 
ATOM     19  H82 UNL     1      21.040  39.389  25.441  1.00  0.00     0.157 HD
ATOM     20  H81 UNL     1      21.982  38.119  24.639  1.00  0.00     0.157 HD
BRANCH  17  21
HETATM   21  N9  UNL     1      20.068  36.687  23.784  1.00  0.00    -0.373 N 
HETATM   22  C12 UNL     1      20.258  35.426  24.447  1.00  0.00     0.150 C 
HETATM   23  C13 UNL     1      19.935  36.724  22.354  1.00  0.00     0.150 C 
ENDBRANCH  17  21
ENDBRANCH  13  17
BRANCH   1  24
HETATM   24  N1  UNL     1      15.610  40.739  23.102  1.00  0.00    -0.248 N 
ATOM     25  H1  UNL     1      16.422  40.777  22.486  1.00  0.00     0.196 HD
BRANCH  24  26
HETATM   26  O1  UNL     1      14.389  41.170  22.658  1.00  0.00    -0.284 OA
HETATM   27  C1  UNL     1      13.500  40.342  21.930  1.00  0.00     0.237 C 
ENDBRANCH  24  26
ENDBRANCH   1  24
BRANCH   5  28
HETATM   28  C4  UNL     1      13.527  40.064  28.537  1.00  0.00     0.191 C 
HETATM   29  S1  UNL     1      14.753  39.685  29.625  1.00  0.00    -0.040 SA
BRANCH  28  30
HETATM   30  N4  UNL     1      12.218  40.067  29.071  1.00  0.00    -0.326 N 
ATOM     31  H4  UNL     1      11.684  40.935  29.042  1.00  0.00     0.169 HD
BRANCH  30  32
HETATM   32  C5  UNL     1      11.612  38.921  29.646  1.00  0.00     0.094 A 
HETATM   33  C6  UNL     1      11.652  38.347  30.880  1.00  0.00     0.056 A 
HETATM   34  C7  UNL     1      10.919  37.240  31.081  1.00  0.00     0.099 A 
HETATM   35  N5  UNL     1      10.200  36.771  30.066  1.00  0.00    -0.335 N 
HETATM   36  S2  UNL     1      10.515  37.838  28.819  1.00  0.00     0.003 SA
ATOM     37  H5  UNL     1       9.595  35.949  30.052  1.00  0.00     0.173 HD
ENDBRANCH  30  32
ENDBRANCH  28  30
ENDBRANCH   5  28
TORSDOF 7
ENDMDL
MODEL 4
REMARK VINA RESULT: -8.489606747      1.871      4.008
REMARK  7 active torsions:
REMARK  status: ('A' for Active; 'I' for Inactive)
REMARK    1  A    between atoms: O1_2  and  N1_3 
REMARK    2  A    between atoms: N1_3  and  C2_5 
REMARK    3  A    between atoms: N3_9  and  C4_11 
REMARK    4  A    between atoms: C4_11  and  N4_13 
REMARK    5  A    between atoms: N4_13  and  C5_15 
REMARK    6  A    between atoms: C10_27  and  C11_28 
REMARK    7  A    between atoms: C11_28  and  N9_32 
ROOT
HETATM    1  C2  UNL     1      17.212  39.003  26.870  1.00  0.00     0.171 A 
HETATM    2  N2  UNL     1      16.194  39.335  27.659  1.00  0.00    -0.172 N 
ATOM      3  H2  UNL     1      16.308  39.231  28.668  1.00  0.00     0.186 HD
HETATM    4  C3  UNL     1      14.983  39.815  27.176  1.00  0.00     0.688 A 
HETATM    5  N3  UNL     1      14.097  40.091  27.998  1.00  0.00    -0.166 N 
ATOM      6  H3  UNL     1      14.410  39.910  28.952  1.00  0.00     0.186 HD
HETATM    7  N6  UNL     1      14.876  39.933  25.851  1.00  0.00    -0.173 N 
ATOM      8  H6  UNL     1      13.995  40.283  25.473  1.00  0.00     0.186 HD
HETATM    9  C8  UNL     1      15.869  39.618  24.967  1.00  0.00     0.169 A 
HETATM   10  C9  UNL     1      17.043  39.149  25.513  1.00  0.00     0.127 A 
HETATM   11  N7  UNL     1      17.867  38.911  24.483  1.00  0.00    -0.332 N 
ATOM     12  H7  UNL     1      18.821  38.555  24.546  1.00  0.00     0.168 HD
HETATM   13  C10 UNL     1      17.207  39.230  23.337  1.00  0.00     0.168 A 
HETATM   14  N10 UNL     1      15.970  39.669  23.615  1.00  0.00    -0.212 N 
HETATM   15  C14 UNL     1      14.980  40.088  22.721  1.00  0.00     0.192 C 
HETATM   16  N11 UNL     1      14.172  40.427  21.964  1.00  0.00    -0.171 NA
ENDROOT
BRANCH  13  17
HETATM   17  C11 UNL     1      17.816  39.094  21.993  1.00  0.00     0.142 C 
HETATM   18  N8  UNL     1      18.492  40.117  21.539  1.00  0.00    -0.382 N 
ATOM     19  H82 UNL     1      18.603  40.978  22.076  1.00  0.00     0.157 HD
ATOM     20  H81 UNL     1      18.911  40.024  20.614  1.00  0.00     0.157 HD
BRANCH  17  21
HETATM   21  N9  UNL     1      17.663  37.907  21.252  1.00  0.00    -0.373 N 
HETATM   22  C12 UNL     1      16.400  37.579  20.651  1.00  0.00     0.150 C 
HETATM   23  C13 UNL     1      18.778  37.014  21.094  1.00  0.00     0.150 C 
ENDBRANCH  17  21
ENDBRANCH  13  17
BRANCH   1  24
HETATM   24  N1  UNL     1      18.309  38.570  27.379  1.00  0.00    -0.248 N 
ATOM     25  H1  UNL     1      18.665  38.969  28.248  1.00  0.00     0.196 HD
BRANCH  24  26
HETATM   26  O1  UNL     1      18.998  37.570  26.750  1.00  0.00    -0.284 OA
HETATM   27  C1  UNL     1      19.732  36.581  27.450  1.00  0.00     0.237 C 
ENDBRANCH  24  26
ENDBRANCH   1  24
BRANCH   5  28
HETATM   28  C4  UNL     1      12.834  40.565  27.982  1.00  0.00     0.191 C 
HETATM   29  S1  UNL     1      12.625  42.226  27.813  1.00  0.00    -0.040 SA
BRANCH  28  30
HETATM   30  N4  UNL     1      11.644  39.813  28.124  1.00  0.00    -0.326 N 
ATOM     31  H4  UNL     1      10.888  39.971  27.459  1.00  0.00     0.169 HD
BRANCH  30  32
HETATM   32  C5  UNL     1      11.452  38.851  29.147  1.00  0.00     0.094 A 
HETATM   33  C6  UNL     1      10.681  37.734  29.263  1.00  0.00     0.056 A 
HETATM   34  C7  UNL     1      10.763  37.032  30.405  1.00  0.00     0.099 A 
HETATM   35  N5  UNL     1      11.588  37.467  31.352  1.00  0.00    -0.335 N 
HETATM   36  S2  UNL     1      12.267  38.846  30.694  1.00  0.00     0.003 SA
ATOM     37  H5  UNL     1      11.767  37.055  32.268  1.00  0.00     0.173 HD
ENDBRANCH  30  32
ENDBRANCH  28  30
ENDBRANCH   5  28
TORSDOF 7
ENDMDL
MODEL 5
REMARK VINA RESULT: -8.475553309      1.357      1.751
REMARK  7 active torsions:
REMARK  status: ('A' for Active; 'I' for Inactive)
REMARK    1  A    between atoms: O1_2  and  N1_3 
REMARK    2  A    between atoms: N1_3  and  C2_5 
REMARK    3  A    between atoms: N3_9  and  C4_11 
REMARK    4  A    between atoms: C4_11  and  N4_13 
REMARK    5  A    between atoms: N4_13  and  C5_15 
REMARK    6  A    between atoms: C10_27  and  C11_28 
REMARK    7  A    between atoms: C11_28  and  N9_32 
ROOT
HETATM    1  C2  UNL     1      16.227  40.023  24.293  1.00  0.00     0.171 A 
HETATM    2  N2  UNL     1      15.125  40.640  24.710  1.00  0.00    -0.172 N 
ATOM      3  H2  UNL     1      14.590  41.188  24.035  1.00  0.00     0.186 HD
HETATM    4  C3  UNL     1      14.669  40.576  26.021  1.00  0.00     0.688 A 
HETATM    5  N3  UNL     1      13.632  41.192  26.307  1.00  0.00    -0.166 N 
ATOM      6  H3  UNL     1      13.257  41.680  25.493  1.00  0.00     0.186 HD
HETATM    7  N6  UNL     1      15.399  39.850  26.871  1.00  0.00    -0.173 N 
ATOM      8  H6  UNL     1      15.083  39.790  27.839  1.00  0.00     0.186 HD
HETATM    9  C8  UNL     1      16.541  39.183  26.529  1.00  0.00     0.169 A 
HETATM   10  C9  UNL     1      16.937  39.288  25.215  1.00  0.00     0.127 A 
HETATM   11  N7  UNL     1      18.058  38.563  25.101  1.00  0.00    -0.332 N 
ATOM     12  H7  UNL     1      18.606  38.433  24.251  1.00  0.00     0.168 HD
HETATM   13  C10 UNL     1      18.336  38.030  26.321  1.00  0.00     0.168 A 
HETATM   14  N10 UNL     1      17.410  38.401  27.218  1.00  0.00    -0.212 N 
HETATM   15  C14 UNL     1      17.338  38.071  28.574  1.00  0.00     0.192 C 
HETATM   16  N11 UNL     1      17.299  37.789  29.696  1.00  0.00    -0.171 NA
ENDROOT
BRANCH  13  17
HETATM   17  C11 UNL     1      19.512  37.163  26.571  1.00  0.00     0.142 C 
HETATM   18  N8  UNL     1      19.703  36.760  27.801  1.00  0.00    -0.382 N 
ATOM     19  H82 UNL     1      19.080  37.024  28.564  1.00  0.00     0.157 HD
ATOM     20  H81 UNL     1      20.513  36.163  27.973  1.00  0.00     0.157 HD
BRANCH  17  21
HETATM   21  N9  UNL     1      20.372  36.799  25.519  1.00  0.00    -0.373 N 
HETATM   22  C12 UNL     1      20.183  35.559  24.817  1.00  0.00     0.150 C 
HETATM   23  C13 UNL     1      21.448  37.673  25.140  1.00  0.00     0.150 C 
ENDBRANCH  17  21
ENDBRANCH  13  17
BRANCH   1  24
HETATM   24  N1  UNL     1      16.594  40.116  23.065  1.00  0.00    -0.248 N 
ATOM     25  H1  UNL     1      16.493  40.999  22.566  1.00  0.00     0.196 HD
BRANCH  24  26
HETATM   26  O1  UNL     1      17.121  39.024  22.432  1.00  0.00    -0.284 OA
HETATM   27  C1  UNL     1      18.042  39.126  21.361  1.00  0.00     0.237 C 
ENDBRANCH  24  26
ENDBRANCH   1  24
BRANCH   5  28
HETATM   28  C4  UNL     1      12.860  41.398  27.395  1.00  0.00     0.191 C 
HETATM   29  S1  UNL     1      12.606  42.987  27.883  1.00  0.00    -0.040 SA
BRANCH  28  30
HETATM   30  N4  UNL     1      12.256  40.408  28.205  1.00  0.00    -0.326 N 
ATOM     31  H4  UNL     1      12.627  40.255  29.142  1.00  0.00     0.169 HD
BRANCH  30  32
HETATM   32  C5  UNL     1      11.159  39.618  27.776  1.00  0.00     0.094 A 
HETATM   33  C6  UNL     1      10.317  39.669  26.707  1.00  0.00     0.056 A 
HETATM   34  C7  UNL     1       9.371  38.721  26.609  1.00  0.00     0.099 A 
HETATM   35  N5  UNL     1       9.312  37.792  27.558  1.00  0.00    -0.335 N 
HETATM   36  S2  UNL     1      10.552  38.201  28.602  1.00  0.00     0.003 SA
ATOM     37  H5  UNL     1       8.661  37.010  27.633  1.00  0.00     0.173 HD
ENDBRANCH  30  32
ENDBRANCH  28  30
ENDBRANCH   5  28
TORSDOF 7
ENDMDL
