MODEL 1
REMARK VINA RESULT: -10.140305145      0.000      0.000
REMARK  5 active torsions:
REMARK  status: ('A' for Active; 'I' for Inactive)
REMARK    1  A    between atoms: N2_5  and  C4_6 
REMARK    2  A    between atoms: C5_9  and  C6_10 
REMARK    3  A    between atoms: C8_14  and  N5_15 
REMARK    4  A    between atoms: C11_25  and  N8_26 
REMARK    5  A    between atoms: N8_26  and  C12_28 
ROOT
HETATM    1  C4  UNL     1      15.740  39.524  25.545  1.00  0.00     0.135 A 
HETATM    2  N3  UNL     1      16.933  38.995  25.235  1.00  0.00    -0.326 N 
ATOM      3  H3  UNL     1      17.184  38.959  24.247  1.00  0.00     0.169 HD
HETATM    4  C5  UNL     1      17.817  38.512  26.107  1.00  0.00     0.120 A 
HETATM    5  N7  UNL     1      17.471  38.568  27.402  1.00  0.00    -0.334 N 
ATOM      6  H7  UNL     1      18.115  38.210  28.108  1.00  0.00     0.168 HD
HETATM    7  C10 UNL     1      16.269  39.095  27.797  1.00  0.00     0.110 A 
HETATM    8  S1  UNL     1      15.487  39.343  29.294  1.00  0.00    -0.034 SA
HETATM    9  C11 UNL     1      14.039  40.066  28.706  1.00  0.00     0.147 A 
HETATM   10  N10 UNL     1      14.242  40.076  27.390  1.00  0.00    -0.331 N 
ATOM     11  H10 UNL     1      13.534  40.458  26.762  1.00  0.00     0.168 HD
HETATM   12  C17 UNL     1      15.363  39.589  26.906  1.00  0.00     0.113 A 
ENDROOT
BRANCH   4  13
HETATM   13  C6  UNL     1      19.084  37.962  25.653  1.00  0.00     0.040 A 
HETATM   14  C7  UNL     1      19.575  38.224  24.395  1.00  0.00     0.122 A 
HETATM   15  N4  UNL     1      20.755  37.710  23.965  1.00  0.00    -0.201 N 
HETATM   16  C8  UNL     1      21.481  36.917  24.774  1.00  0.00     0.675 A 
ATOM     17  H4  UNL     1      21.091  37.923  23.026  1.00  0.00     0.183 HD
HETATM   18  N6  UNL     1      21.009  36.662  25.995  1.00  0.00    -0.201 N 
HETATM   19  C9  UNL     1      19.852  37.149  26.458  1.00  0.00     0.122 A 
ATOM     20  H6  UNL     1      21.560  36.063  26.610  1.00  0.00     0.183 HD
BRANCH  16  21
HETATM   21  N5  UNL     1      22.607  36.423  24.360  1.00  0.00    -0.234 N 
ATOM     22  H52 UNL     1      22.644  35.583  23.784  1.00  0.00     0.174 HD
ATOM     23  H51 UNL     1      23.486  36.876  24.608  1.00  0.00     0.174 HD
ENDBRANCH  16  21
ENDBRANCH   4  13
BRANCH   1  24
HETATM   24  N2  UNL     1      14.882  39.992  24.502  1.00  0.00    -0.362 N 
HETATM   25  C3  UNL     1      13.574  40.465  24.822  1.00  0.00     0.154 C 
HETATM   26  C2  UNL     1      13.130  41.604  23.936  1.00  0.00     0.291 C 
HETATM   27  N1  UNL     1      13.361  41.392  22.549  1.00  0.00     0.087 N 
HETATM   28  C1  UNL     1      12.142  41.514  21.796  1.00  0.00     0.310 C 
HETATM   29  C19 UNL     1      14.071  40.180  22.219  1.00  0.00     0.291 C 
HETATM   30  C18 UNL     1      15.282  40.010  23.111  1.00  0.00     0.154 C 
ENDBRANCH   1  24
BRANCH   9  31
HETATM   31  N8  UNL     1      13.025  40.508  29.391  1.00  0.00    -0.364 N 
ATOM     32  H8  UNL     1      12.883  41.517  29.431  1.00  0.00     0.162 HD
BRANCH  31  33
HETATM   33  C12 UNL     1      12.087  39.672  30.100  1.00  0.00     0.109 C 
HETATM   34  C13 UNL     1      11.231  38.914  29.138  1.00  0.00     0.028 C 
HETATM   35  C14 UNL     1      10.916  37.560  29.743  1.00  0.00     0.029 C 
HETATM   36  C15 UNL     1      10.620  37.802  31.212  1.00  0.00     0.232 C 
HETATM   37  N9  UNL     1      11.846  38.133  31.926  1.00  0.00    -0.073 N 
HETATM   38  C16 UNL     1      12.816  38.710  31.031  1.00  0.00     0.257 C 
ATOM     39  H92 UNL     1      11.666  38.737  32.729  1.00  0.00     0.277 HD
ATOM     40  H91 UNL     1      12.224  37.327  32.424  1.00  0.00     0.277 HD
ENDBRANCH  31  33
ENDBRANCH   9  31
TORSDOF 5
ENDMDL
MODEL 2
REMARK VINA RESULT: -9.870936775      2.849      8.382
REMARK  5 active torsions:
REMARK  status: ('A' for Active; 'I' for Inactive)
REMARK    1  A    between atoms: N2_5  and  C4_6 
REMARK    2  A    between atoms: C5_9  and  C6_10 
REMARK    3  A    between atoms: C8_14  and  N5_15 
REMARK    4  A    between atoms: C11_25  and  N8_26 
REMARK    5  A    between atoms: N8_26  and  C12_28 
ROOT
HETATM    1  C4  UNL     1      13.220  40.042  25.849  1.00  0.00     0.135 A 
HETATM    2  N3  UNL     1      12.881  39.493  27.025  1.00  0.00    -0.326 N 
ATOM      3  H3  UNL     1      13.598  38.959  27.514  1.00  0.00     0.169 HD
HETATM    4  C5  UNL     1      11.686  39.587  27.608  1.00  0.00     0.120 A 
HETATM    5  N7  UNL     1      10.754  40.293  26.951  1.00  0.00    -0.334 N 
ATOM      6  H7  UNL     1       9.823  40.393  27.358  1.00  0.00     0.168 HD
HETATM    7  C10 UNL     1      11.026  40.884  25.746  1.00  0.00     0.110 A 
HETATM    8  S1  UNL     1      10.145  41.838  24.636  1.00  0.00    -0.034 SA
HETATM    9  C11 UNL     1      11.382  42.068  23.462  1.00  0.00     0.147 A 
HETATM   10  N10 UNL     1      12.404  41.398  23.993  1.00  0.00    -0.331 N 
ATOM     11  H10 UNL     1      13.301  41.357  23.507  1.00  0.00     0.168 HD
HETATM   12  C17 UNL     1      12.247  40.791  25.147  1.00  0.00     0.113 A 
ENDROOT
BRANCH   4  13
HETATM   13  C6  UNL     1      11.434  38.948  28.890  1.00  0.00     0.040 A 
HETATM   14  C7  UNL     1      10.511  37.937  29.024  1.00  0.00     0.122 A 
HETATM   15  N4  UNL     1      10.270  37.341  30.219  1.00  0.00    -0.201 N 
HETATM   16  C8  UNL     1      10.940  37.735  31.317  1.00  0.00     0.675 A 
ATOM     17  H4  UNL     1       9.580  36.594  30.285  1.00  0.00     0.183 HD
HETATM   18  N6  UNL     1      11.836  38.715  31.192  1.00  0.00    -0.201 N 
HETATM   19  C9  UNL     1      12.104  39.328  30.033  1.00  0.00     0.122 A 
ATOM     20  H6  UNL     1      12.345  39.013  32.024  1.00  0.00     0.183 HD
BRANCH  16  21
HETATM   21  N5  UNL     1      10.705  37.167  32.460  1.00  0.00    -0.234 N 
ATOM     22  H52 UNL     1      11.294  37.337  33.275  1.00  0.00     0.174 HD
ATOM     23  H51 UNL     1       9.913  36.533  32.563  1.00  0.00     0.174 HD
ENDBRANCH  16  21
ENDBRANCH   4  13
BRANCH   1  24
HETATM   24  N2  UNL     1      14.539  39.849  25.333  1.00  0.00    -0.362 N 
HETATM   25  C3  UNL     1      14.748  39.818  23.922  1.00  0.00     0.154 C 
HETATM   26  C2  UNL     1      16.070  40.421  23.512  1.00  0.00     0.291 C 
HETATM   27  N1  UNL     1      17.179  39.982  24.287  1.00  0.00     0.087 N 
HETATM   28  C1  UNL     1      18.200  39.411  23.451  1.00  0.00     0.310 C 
HETATM   29  C19 UNL     1      16.856  39.119  25.396  1.00  0.00     0.291 C 
HETATM   30  C18 UNL     1      15.695  39.679  26.189  1.00  0.00     0.154 C 
ENDBRANCH   1  24
BRANCH   9  31
HETATM   31  N8  UNL     1      11.324  42.748  22.354  1.00  0.00    -0.364 N 
ATOM     32  H8  UNL     1      12.191  42.884  21.835  1.00  0.00     0.162 HD
BRANCH  31  33
HETATM   33  C12 UNL     1      10.120  43.325  21.808  1.00  0.00     0.109 C 
HETATM   34  C13 UNL     1      10.435  44.575  21.054  1.00  0.00     0.028 C 
HETATM   35  C14 UNL     1       9.474  44.683  19.886  1.00  0.00     0.029 C 
HETATM   36  C15 UNL     1       8.110  44.267  20.408  1.00  0.00     0.232 C 
HETATM   37  N9  UNL     1       8.078  42.829  20.647  1.00  0.00    -0.073 N 
HETATM   38  C16 UNL     1       9.403  42.327  20.906  1.00  0.00     0.257 C 
ATOM     39  H92 UNL     1       7.429  42.584  21.395  1.00  0.00     0.277 HD
ATOM     40  H91 UNL     1       7.626  42.328  19.882  1.00  0.00     0.277 HD
ENDBRANCH  31  33
ENDBRANCH   9  31
TORSDOF 5
ENDMDL
MODEL 3
REMARK VINA RESULT: -9.655914889      3.712      8.279
REMARK  5 active torsions:
REMARK  status: ('A' for Active; 'I' for Inactive)
REMARK    1  A    between atoms: N2_5  and  C4_6 
REMARK    2  A    between atoms: C5_9  and  C6_10 
REMARK    3  A    between atoms: C8_14  and  N5_15 
REMARK    4  A    between atoms: C11_25  and  N8_26 
REMARK    5  A    between atoms: N8_26  and  C12_28 
ROOT
HETATM    1  C4  UNL     1      12.334  40.111  25.812  1.00  0.00     0.135 A 
HETATM    2  N3  UNL     1      12.272  39.651  27.070  1.00  0.00    -0.326 N 
ATOM      3  H3  UNL     1      13.151  39.570  27.580  1.00  0.00     0.169 HD
HETATM    4  C5  UNL     1      11.159  39.292  27.710  1.00  0.00     0.120 A 
HETATM    5  N7  UNL     1      10.011  39.406  27.023  1.00  0.00    -0.334 N 
ATOM      6  H7  UNL     1       9.133  39.142  27.471  1.00  0.00     0.168 HD
HETATM    7  C10 UNL     1       9.995  39.869  25.735  1.00  0.00     0.110 A 
HETATM    8  S1  UNL     1       8.785  40.156  24.564  1.00  0.00    -0.034 SA
HETATM    9  C11 UNL     1       9.793  40.733  23.294  1.00  0.00     0.147 A 
HETATM   10  N10 UNL     1      11.005  40.672  23.844  1.00  0.00    -0.331 N 
ATOM     11  H10 UNL     1      11.827  40.960  23.313  1.00  0.00     0.168 HD
HETATM   12  C17 UNL     1      11.132  40.238  25.077  1.00  0.00     0.113 A 
ENDROOT
BRANCH   4  13
HETATM   13  C6  UNL     1      11.214  38.807  29.079  1.00  0.00     0.040 A 
HETATM   14  C7  UNL     1      10.397  37.792  29.520  1.00  0.00     0.122 A 
HETATM   15  N4  UNL     1      10.443  37.339  30.798  1.00  0.00    -0.201 N 
HETATM   16  C8  UNL     1      11.303  37.884  31.677  1.00  0.00     0.675 A 
ATOM     17  H4  UNL     1       9.823  36.585  31.093  1.00  0.00     0.183 HD
HETATM   18  N6  UNL     1      12.098  38.868  31.254  1.00  0.00    -0.201 N 
HETATM   19  C9  UNL     1      12.085  39.343  30.003  1.00  0.00     0.122 A 
ATOM     20  H6  UNL     1      12.752  39.281  31.920  1.00  0.00     0.183 HD
BRANCH  16  21
HETATM   21  N5  UNL     1      11.342  37.453  32.900  1.00  0.00    -0.234 N 
ATOM     22  H52 UNL     1      10.507  37.113  33.377  1.00  0.00     0.174 HD
ATOM     23  H51 UNL     1      12.225  37.446  33.412  1.00  0.00     0.174 HD
ENDBRANCH  16  21
ENDBRANCH   4  13
BRANCH   1  24
HETATM   24  N2  UNL     1      13.602  40.448  25.244  1.00  0.00    -0.362 N 
HETATM   25  C3  UNL     1      14.636  39.466  25.191  1.00  0.00     0.154 C 
HETATM   26  C2  UNL     1      15.501  39.592  23.960  1.00  0.00     0.291 C 
HETATM   27  N1  UNL     1      15.928  40.919  23.678  1.00  0.00     0.087 N 
HETATM   28  C1  UNL     1      17.362  40.996  23.599  1.00  0.00     0.310 C 
HETATM   29  C19 UNL     1      15.388  41.939  24.542  1.00  0.00     0.291 C 
HETATM   30  C18 UNL     1      13.894  41.762  24.711  1.00  0.00     0.154 C 
ENDBRANCH   1  24
BRANCH   9  31
HETATM   31  N8  UNL     1       9.441  41.143  22.110  1.00  0.00    -0.364 N 
ATOM     32  H8  UNL     1       9.529  42.139  21.908  1.00  0.00     0.162 HD
BRANCH  31  33
HETATM   33  C12 UNL     1       8.933  40.290  21.064  1.00  0.00     0.109 C 
HETATM   34  C13 UNL     1       9.539  38.928  21.160  1.00  0.00     0.028 C 
HETATM   35  C14 UNL     1       8.504  37.913  20.715  1.00  0.00     0.029 C 
HETATM   36  C15 UNL     1       7.810  38.506  19.501  1.00  0.00     0.232 C 
HETATM   37  N9  UNL     1       6.946  39.609  19.902  1.00  0.00    -0.073 N 
HETATM   38  C16 UNL     1       7.413  40.200  21.130  1.00  0.00     0.257 C 
ATOM     39  H92 UNL     1       6.849  40.303  19.161  1.00  0.00     0.277 HD
ATOM     40  H91 UNL     1       5.970  39.320  19.969  1.00  0.00     0.277 HD
ENDBRANCH  31  33
ENDBRANCH   9  31
TORSDOF 5
ENDMDL
MODEL 4
REMARK VINA RESULT: -9.592574485      2.858      8.440
REMARK  5 active torsions:
REMARK  status: ('A' for Active; 'I' for Inactive)
REMARK    1  A    between atoms: N2_5  and  C4_6 
REMARK    2  A    between atoms: C5_9  and  C6_10 
REMARK    3  A    between atoms: C8_14  and  N5_15 
REMARK    4  A    between atoms: C11_25  and  N8_26 
REMARK    5  A    between atoms: N8_26  and  C12_28 
ROOT
HETATM    1  C4  UNL     1      13.247  40.264  25.439  1.00  0.00     0.135 A 
HETATM    2  N3  UNL     1      12.921  39.675  26.599  1.00  0.00    -0.326 N 
ATOM      3  H3  UNL     1      13.647  39.133  27.066  1.00  0.00     0.169 HD
HETATM    4  C5  UNL     1      11.729  39.738  27.192  1.00  0.00     0.120 A 
HETATM    5  N7  UNL     1      10.785  40.456  26.564  1.00  0.00    -0.334 N 
ATOM      6  H7  UNL     1       9.857  40.533  26.979  1.00  0.00     0.168 HD
HETATM    7  C10 UNL     1      11.043  41.087  25.376  1.00  0.00     0.110 A 
HETATM    8  S1  UNL     1      10.146  42.067  24.302  1.00  0.00    -0.034 SA
HETATM    9  C11 UNL     1      11.374  42.347  23.129  1.00  0.00     0.147 A 
HETATM   10  N10 UNL     1      12.405  41.670  23.632  1.00  0.00    -0.331 N 
ATOM     11  H10 UNL     1      13.299  41.654  23.140  1.00  0.00     0.168 HD
HETATM   12  C17 UNL     1      12.262  41.025  24.767  1.00  0.00     0.113 A 
ENDROOT
BRANCH   4  13
HETATM   13  C6  UNL     1      11.491  39.056  28.454  1.00  0.00     0.040 A 
HETATM   14  C7  UNL     1      10.700  37.934  28.532  1.00  0.00     0.122 A 
HETATM   15  N4  UNL     1      10.472  37.297  29.708  1.00  0.00    -0.201 N 
HETATM   16  C8  UNL     1      11.025  37.760  30.844  1.00  0.00     0.675 A 
ATOM     17  H4  UNL     1       9.881  36.467  29.731  1.00  0.00     0.183 HD
HETATM   18  N6  UNL     1      11.794  38.847  30.773  1.00  0.00    -0.201 N 
HETATM   19  C9  UNL     1      12.044  39.504  29.635  1.00  0.00     0.122 A 
ATOM     20  H6  UNL     1      12.215  39.197  31.634  1.00  0.00     0.183 HD
BRANCH  16  21
HETATM   21  N5  UNL     1      10.803  37.152  31.968  1.00  0.00    -0.234 N 
ATOM     22  H52 UNL     1      10.194  36.337  32.027  1.00  0.00     0.174 HD
ATOM     23  H51 UNL     1      11.244  37.486  32.826  1.00  0.00     0.174 HD
ENDBRANCH  16  21
ENDBRANCH   4  13
BRANCH   1  24
HETATM   24  N2  UNL     1      14.564  40.101  24.909  1.00  0.00    -0.362 N 
HETATM   25  C3  UNL     1      15.680  40.036  25.796  1.00  0.00     0.154 C 
HETATM   26  C2  UNL     1      16.764  39.105  25.306  1.00  0.00     0.291 C 
HETATM   27  N1  UNL     1      17.104  39.272  23.936  1.00  0.00     0.087 N 
HETATM   28  C1  UNL     1      18.508  39.540  23.780  1.00  0.00     0.310 C 
HETATM   29  C19 UNL     1      16.297  40.221  23.210  1.00  0.00     0.291 C 
HETATM   30  C18 UNL     1      14.826  39.998  23.489  1.00  0.00     0.154 C 
ENDBRANCH   1  24
BRANCH   9  31
HETATM   31  N8  UNL     1      11.301  43.061  22.044  1.00  0.00    -0.364 N 
ATOM     32  H8  UNL     1      12.175  43.307  21.579  1.00  0.00     0.162 HD
BRANCH  31  33
HETATM   33  C12 UNL     1      10.073  43.531  21.451  1.00  0.00     0.109 C 
HETATM   34  C13 UNL     1      10.307  44.803  20.703  1.00  0.00     0.028 C 
HETATM   35  C14 UNL     1       9.384  44.825  19.500  1.00  0.00     0.029 C 
HETATM   36  C15 UNL     1       8.043  44.294  19.974  1.00  0.00     0.232 C 
HETATM   37  N9  UNL     1       8.126  42.860  20.218  1.00  0.00    -0.073 N 
HETATM   38  C16 UNL     1       9.479  42.474  20.528  1.00  0.00     0.257 C 
ATOM     39  H92 UNL     1       7.473  42.560  20.943  1.00  0.00     0.277 HD
ATOM     40  H91 UNL     1       7.748  42.320  19.439  1.00  0.00     0.277 HD
ENDBRANCH  31  33
ENDBRANCH   9  31
TORSDOF 5
ENDMDL
MODEL 5
REMARK VINA RESULT: -9.578169414      3.579      8.443
REMARK  5 active torsions:
REMARK  status: ('A' for Active; 'I' for Inactive)
REMARK    1  A    between atoms: N2_5  and  C4_6 
REMARK    2  A    between atoms: C5_9  and  C6_10 
REMARK    3  A    between atoms: C8_14  and  N5_15 
REMARK    4  A    between atoms: C11_25  and  N8_26 
REMARK    5  A    between atoms: N8_26  and  C12_28 
ROOT
HETATM    1  C4  UNL     1      12.615  40.221  25.573  1.00  0.00     0.135 A 
HETATM    2  N3  UNL     1      12.526  39.753  26.827  1.00  0.00    -0.326 N 
ATOM      3  H3  UNL     1      13.400  39.596  27.329  1.00  0.00     0.169 HD
HETATM    4  C5  UNL     1      11.394  39.476  27.473  1.00  0.00     0.120 A 
HETATM    5  N7  UNL     1      10.253  39.689  26.799  1.00  0.00    -0.334 N 
ATOM      6  H7  UNL     1       9.361  39.491  27.251  1.00  0.00     0.168 HD
HETATM    7  C10 UNL     1      10.263  40.166  25.515  1.00  0.00     0.110 A 
HETATM    8  S1  UNL     1       9.070  40.562  24.358  1.00  0.00    -0.034 SA
HETATM    9  C11 UNL     1      10.111  41.071  23.085  1.00  0.00     0.147 A 
HETATM   10  N10 UNL     1      11.318  40.908  23.624  1.00  0.00    -0.331 N 
ATOM     11  H10 UNL     1      12.156  41.136  23.089  1.00  0.00     0.168 HD
HETATM   12  C17 UNL     1      11.420  40.451  24.851  1.00  0.00     0.113 A 
ENDROOT
BRANCH   4  13
HETATM   13  C6  UNL     1      11.421  38.973  28.837  1.00  0.00     0.040 A 
HETATM   14  C7  UNL     1      10.705  37.861  29.211  1.00  0.00     0.122 A 
HETATM   15  N4  UNL     1      10.724  37.390  30.483  1.00  0.00    -0.201 N 
HETATM   16  C8  UNL     1      11.458  38.014  31.423  1.00  0.00     0.675 A 
ATOM     17  H4  UNL     1      10.182  36.562  30.728  1.00  0.00     0.183 HD
HETATM   18  N6  UNL     1      12.156  39.093  31.064  1.00  0.00    -0.201 N 
HETATM   19  C9  UNL     1      12.164  39.589  29.821  1.00  0.00     0.122 A 
ATOM     20  H6  UNL     1      12.713  39.565  31.776  1.00  0.00     0.183 HD
BRANCH  16  21
HETATM   21  N5  UNL     1      11.472  37.565  32.640  1.00  0.00    -0.234 N 
ATOM     22  H52 UNL     1      10.620  37.491  33.195  1.00  0.00     0.174 HD
ATOM     23  H51 UNL     1      12.352  37.274  33.067  1.00  0.00     0.174 HD
ENDBRANCH  16  21
ENDBRANCH   4  13
BRANCH   1  24
HETATM   24  N2  UNL     1      13.900  40.462  24.998  1.00  0.00    -0.362 N 
HETATM   25  C3  UNL     1      14.854  39.403  24.930  1.00  0.00     0.154 C 
HETATM   26  C2  UNL     1      15.718  39.471  23.693  1.00  0.00     0.291 C 
HETATM   27  N1  UNL     1      16.245  40.762  23.417  1.00  0.00     0.087 N 
HETATM   28  C1  UNL     1      17.679  40.727  23.326  1.00  0.00     0.310 C 
HETATM   29  C19 UNL     1      15.792  41.815  24.292  1.00  0.00     0.291 C 
HETATM   30  C18 UNL     1      14.290  41.753  24.471  1.00  0.00     0.154 C 
ENDBRANCH   1  24
BRANCH   9  31
HETATM   31  N8  UNL     1       9.783  41.521  21.909  1.00  0.00    -0.364 N 
ATOM     32  H8  UNL     1       9.510  40.840  21.200  1.00  0.00     0.162 HD
BRANCH  31  33
HETATM   33  C12 UNL     1       9.776  42.914  21.537  1.00  0.00     0.109 C 
HETATM   34  C13 UNL     1      10.953  43.229  20.671  1.00  0.00     0.028 C 
HETATM   35  C14 UNL     1      10.540  44.293  19.673  1.00  0.00     0.029 C 
HETATM   36  C15 UNL     1       9.690  45.294  20.434  1.00  0.00     0.232 C 
HETATM   37  N9  UNL     1       8.392  44.713  20.756  1.00  0.00    -0.073 N 
HETATM   38  C16 UNL     1       8.480  43.277  20.821  1.00  0.00     0.257 C 
ATOM     39  H92 UNL     1       8.003  45.107  21.612  1.00  0.00     0.277 HD
ATOM     40  H91 UNL     1       7.669  45.019  20.104  1.00  0.00     0.277 HD
ENDBRANCH  31  33
ENDBRANCH   9  31
TORSDOF 5
ENDMDL
