MODEL 1
REMARK VINA RESULT: -9.425917315      0.000      0.000
REMARK  6 active torsions:
REMARK  status: ('A' for Active; 'I' for Inactive)
REMARK    1  A    between atoms: O1_2  and  C2_3 
REMARK    2  A    between atoms: C4_5  and  O2_6 
REMARK    3  A    between atoms: C6_8  and  N1_9 
REMARK    4  A    between atoms: C15_21  and  N3_22 
REMARK    5  A    between atoms: C16_27  and  N5_28 
REMARK    6  A    between atoms: N5_28  and  N6_30 
ROOT
HETATM    1  C2  UNL     1      13.238  40.222  26.881  1.00  0.00     0.085 A 
HETATM    2  C3  UNL     1      12.048  40.838  26.550  1.00  0.00     0.076 A 
HETATM    3  C4  UNL     1      11.781  41.222  25.242  1.00  0.00     0.098 A 
HETATM    4  C6  UNL     1      12.705  40.993  24.248  1.00  0.00     0.071 A 
HETATM    5  C11 UNL     1      13.930  40.367  24.541  1.00  0.00    -0.010 A 
HETATM    6  C12 UNL     1      14.127  40.018  25.846  1.00  0.00     0.050 A 
HETATM    7  C13 UNL     1      15.421  39.448  26.198  1.00  0.00     0.123 A 
HETATM    8  N2  UNL     1      15.876  38.946  27.386  1.00  0.00    -0.335 N 
ATOM      9  H2  UNL     1      15.352  38.941  28.261  1.00  0.00     0.168 HD
HETATM   10  C14 UNL     1      17.111  38.465  27.226  1.00  0.00     0.123 A 
HETATM   11  C15 UNL     1      18.042  37.855  28.058  1.00  0.00     0.145 A 
HETATM   12  N4  UNL     1      19.225  37.499  27.502  1.00  0.00    -0.173 N 
ATOM     13  H4  UNL     1      19.922  37.048  28.094  1.00  0.00     0.186 HD
HETATM   14  C16 UNL     1      19.525  37.709  26.208  1.00  0.00     0.699 A 
HETATM   15  N7  UNL     1      18.616  38.306  25.397  1.00  0.00    -0.172 N 
ATOM     16  H7  UNL     1      18.828  38.474  24.414  1.00  0.00     0.186 HD
HETATM   17  C17 UNL     1      17.438  38.670  25.913  1.00  0.00     0.155 A 
HETATM   18  N8  UNL     1      16.382  39.281  25.290  1.00  0.00    -0.316 N 
HETATM   19  C18 UNL     1      16.255  39.746  23.959  1.00  0.00     0.137 C 
HETATM   20  C19 UNL     1      14.887  40.043  23.510  1.00  0.00     0.062 C 
ENDROOT
BRANCH   4  21
HETATM   21  N1  UNL     1      12.475  41.362  22.908  1.00  0.00    -0.374 N 
HETATM   22  C7  UNL     1      11.880  40.422  22.004  1.00  0.00     0.149 C 
HETATM   23  C8  UNL     1      11.111  41.005  20.858  1.00  0.00     0.187 C 
HETATM   24  O3  UNL     1      10.963  42.388  20.959  1.00  0.00    -0.388 OA
HETATM   25  C9  UNL     1      12.264  42.885  21.009  1.00  0.00     0.187 C 
HETATM   26  C10 UNL     1      12.825  42.656  22.391  1.00  0.00     0.149 C 
ENDBRANCH   4  21
BRANCH   3  27
HETATM   27  O2  UNL     1      10.590  41.843  24.899  1.00  0.00    -0.354 OA
HETATM   28  C5  UNL     1       9.418  41.098  24.650  1.00  0.00     0.210 C 
ENDBRANCH   3  27
BRANCH   1  29
HETATM   29  O1  UNL     1      13.499  39.841  28.183  1.00  0.00    -0.355 OA
HETATM   30  C1  UNL     1      12.564  39.897  29.216  1.00  0.00     0.210 C 
ENDBRANCH   1  29
BRANCH  11  31
HETATM   31  N3  UNL     1      17.779  37.646  29.284  1.00  0.00    -0.383 N 
ATOM     32  H32 UNL     1      17.737  38.402  29.968  1.00  0.00     0.157 HD
ATOM     33  H31 UNL     1      17.601  36.702  29.626  1.00  0.00     0.157 HD
ENDBRANCH  11  31
BRANCH  14  34
HETATM   34  N5  UNL     1      20.677  37.337  25.765  1.00  0.00    -0.138 N 
ATOM     35  H5  UNL     1      21.147  36.563  26.235  1.00  0.00     0.205 HD
BRANCH  34  36
HETATM   36  N6  UNL     1      21.311  37.934  24.684  1.00  0.00    -0.331 N 
ATOM     37  H62 UNL     1      20.796  38.659  24.183  1.00  0.00     0.177 HD
ATOM     38  H61 UNL     1      22.250  37.684  24.375  1.00  0.00     0.177 HD
ENDBRANCH  34  36
ENDBRANCH  14  34
TORSDOF 6
ENDMDL
MODEL 2
REMARK VINA RESULT: -9.353571043      3.186      3.812
REMARK  6 active torsions:
REMARK  status: ('A' for Active; 'I' for Inactive)
REMARK    1  A    between atoms: O1_2  and  C2_3 
REMARK    2  A    between atoms: C4_5  and  O2_6 
REMARK    3  A    between atoms: C6_8  and  N1_9 
REMARK    4  A    between atoms: C15_21  and  N3_22 
REMARK    5  A    between atoms: C16_27  and  N5_28 
REMARK    6  A    between atoms: N5_28  and  N6_30 
ROOT
HETATM    1  C2  UNL     1      10.263  39.940  25.647  1.00  0.00     0.085 A 
HETATM    2  C3  UNL     1       9.331  40.068  24.637  1.00  0.00     0.076 A 
HETATM    3  C4  UNL     1       9.637  40.743  23.462  1.00  0.00     0.098 A 
HETATM    4  C6  UNL     1      10.884  41.299  23.285  1.00  0.00     0.071 A 
HETATM    5  C11 UNL     1      11.864  41.191  24.288  1.00  0.00    -0.010 A 
HETATM    6  C12 UNL     1      11.494  40.517  25.416  1.00  0.00     0.050 A 
HETATM    7  C13 UNL     1      12.457  40.464  26.509  1.00  0.00     0.123 A 
HETATM    8  N2  UNL     1      12.401  39.814  27.710  1.00  0.00    -0.335 N 
ATOM      9  H2  UNL     1      11.604  39.274  28.050  1.00  0.00     0.168 HD
HETATM   10  C14 UNL     1      13.546  39.993  28.371  1.00  0.00     0.123 A 
HETATM   11  C15 UNL     1      14.043  39.581  29.602  1.00  0.00     0.145 A 
HETATM   12  N4  UNL     1      15.296  39.984  29.926  1.00  0.00    -0.173 N 
ATOM     13  H4  UNL     1      15.681  39.692  30.824  1.00  0.00     0.186 HD
HETATM   14  C16 UNL     1      16.056  40.750  29.123  1.00  0.00     0.699 A 
HETATM   15  N7  UNL     1      15.568  41.152  27.923  1.00  0.00    -0.172 N 
ATOM     16  H7  UNL     1      16.131  41.733  27.302  1.00  0.00     0.186 HD
HETATM   17  C17 UNL     1      14.336  40.772  27.571  1.00  0.00     0.155 A 
HETATM   18  N8  UNL     1      13.648  41.056  26.421  1.00  0.00    -0.316 N 
HETATM   19  C18 UNL     1      14.011  41.867  25.319  1.00  0.00     0.137 C 
HETATM   20  C19 UNL     1      13.204  41.696  24.102  1.00  0.00     0.062 C 
ENDROOT
BRANCH   4  21
HETATM   21  N1  UNL     1      11.239  41.989  22.109  1.00  0.00    -0.374 N 
HETATM   22  C7  UNL     1      11.957  41.305  21.074  1.00  0.00     0.149 C 
HETATM   23  C8  UNL     1      11.765  41.828  19.683  1.00  0.00     0.187 C 
HETATM   24  O3  UNL     1      10.773  42.805  19.608  1.00  0.00    -0.388 OA
HETATM   25  C9  UNL     1      11.192  43.808  20.479  1.00  0.00     0.187 C 
HETATM   26  C10 UNL     1      10.920  43.374  21.898  1.00  0.00     0.149 C 
ENDBRANCH   4  21
BRANCH   3  27
HETATM   27  O2  UNL     1       8.708  40.878  22.442  1.00  0.00    -0.354 OA
HETATM   28  C5  UNL     1       8.338  39.782  21.635  1.00  0.00     0.210 C 
ENDBRANCH   3  27
BRANCH   1  29
HETATM   29  O1  UNL     1       9.954  39.267  26.813  1.00  0.00    -0.355 OA
HETATM   30  C1  UNL     1       8.781  38.541  27.009  1.00  0.00     0.210 C 
ENDBRANCH   1  29
BRANCH  11  31
HETATM   31  N3  UNL     1      13.343  38.857  30.377  1.00  0.00    -0.383 N 
ATOM     32  H32 UNL     1      12.323  38.842  30.333  1.00  0.00     0.157 HD
ATOM     33  H31 UNL     1      13.786  38.261  31.076  1.00  0.00     0.157 HD
ENDBRANCH  11  31
BRANCH  14  34
HETATM   34  N5  UNL     1      17.236  41.086  29.515  1.00  0.00    -0.138 N 
ATOM     35  H5  UNL     1      18.028  40.858  28.913  1.00  0.00     0.205 HD
BRANCH  34  36
HETATM   36  N6  UNL     1      17.488  41.742  30.712  1.00  0.00    -0.331 N 
ATOM     37  H62 UNL     1      17.465  42.762  30.699  1.00  0.00     0.177 HD
ATOM     38  H61 UNL     1      17.692  41.258  31.587  1.00  0.00     0.177 HD
ENDBRANCH  34  36
ENDBRANCH  14  34
TORSDOF 6
ENDMDL
MODEL 3
REMARK VINA RESULT: -9.310937595      0.826      1.226
REMARK  6 active torsions:
REMARK  status: ('A' for Active; 'I' for Inactive)
REMARK    1  A    between atoms: O1_2  and  C2_3 
REMARK    2  A    between atoms: C4_5  and  O2_6 
REMARK    3  A    between atoms: C6_8  and  N1_9 
REMARK    4  A    between atoms: C15_21  and  N3_22 
REMARK    5  A    between atoms: C16_27  and  N5_28 
REMARK    6  A    between atoms: N5_28  and  N6_30 
ROOT
HETATM    1  C2  UNL     1      13.503  40.040  26.574  1.00  0.00     0.085 A 
HETATM    2  C3  UNL     1      12.240  40.574  26.420  1.00  0.00     0.076 A 
HETATM    3  C4  UNL     1      11.794  41.007  25.177  1.00  0.00     0.098 A 
HETATM    4  C6  UNL     1      12.611  40.909  24.073  1.00  0.00     0.071 A 
HETATM    5  C11 UNL     1      13.905  40.370  24.186  1.00  0.00    -0.010 A 
HETATM    6  C12 UNL     1      14.278  39.967  25.436  1.00  0.00     0.050 A 
HETATM    7  C13 UNL     1      15.643  39.485  25.604  1.00  0.00     0.123 A 
HETATM    8  N2  UNL     1      16.270  38.958  26.698  1.00  0.00    -0.335 N 
ATOM      9  H2  UNL     1      15.853  38.861  27.625  1.00  0.00     0.168 HD
HETATM   10  C14 UNL     1      17.510  38.589  26.370  1.00  0.00     0.123 A 
HETATM   11  C15 UNL     1      18.575  38.011  27.052  1.00  0.00     0.145 A 
HETATM   12  N4  UNL     1      19.708  37.784  26.346  1.00  0.00    -0.173 N 
ATOM     13  H4  UNL     1      20.502  37.360  26.826  1.00  0.00     0.186 HD
HETATM   14  C16 UNL     1      19.839  38.090  25.042  1.00  0.00     0.699 A 
HETATM   15  N7  UNL     1      18.800  38.654  24.378  1.00  0.00    -0.172 N 
ATOM     16  H7  UNL     1      18.882  38.892  23.390  1.00  0.00     0.186 HD
HETATM   17  C17 UNL     1      17.666  38.892  25.045  1.00  0.00     0.155 A 
HETATM   18  N8  UNL     1      16.501  39.448  24.585  1.00  0.00    -0.316 N 
HETATM   19  C18 UNL     1      16.186  39.974  23.309  1.00  0.00     0.137 C 
HETATM   20  C19 UNL     1      14.757  40.183  23.036  1.00  0.00     0.062 C 
ENDROOT
BRANCH   4  21
HETATM   21  N1  UNL     1      12.200  41.332  22.793  1.00  0.00    -0.374 N 
HETATM   22  C7  UNL     1      12.359  42.705  22.413  1.00  0.00     0.149 C 
HETATM   23  C8  UNL     1      12.507  42.970  20.946  1.00  0.00     0.187 C 
HETATM   24  O3  UNL     1      12.634  41.800  20.199  1.00  0.00    -0.388 OA
HETATM   25  C9  UNL     1      11.477  41.073  20.474  1.00  0.00     0.187 C 
HETATM   26  C10 UNL     1      11.607  40.439  21.837  1.00  0.00     0.149 C 
ENDBRANCH   4  21
BRANCH   3  27
HETATM   27  O2  UNL     1      10.528  41.546  25.010  1.00  0.00    -0.354 OA
HETATM   28  C5  UNL     1       9.380  40.893  25.504  1.00  0.00     0.210 C 
ENDBRANCH   3  27
BRANCH   1  29
HETATM   29  O1  UNL     1      13.942  39.610  27.812  1.00  0.00    -0.355 OA
HETATM   30  C1  UNL     1      13.453  40.093  29.025  1.00  0.00     0.210 C 
ENDBRANCH   1  29
BRANCH  11  31
HETATM   31  N3  UNL     1      18.473  37.714  28.284  1.00  0.00    -0.383 N 
ATOM     32  H32 UNL     1      18.085  38.363  28.970  1.00  0.00     0.157 HD
ATOM     33  H31 UNL     1      18.781  36.805  28.629  1.00  0.00     0.157 HD
ENDBRANCH  11  31
BRANCH  14  34
HETATM   34  N5  UNL     1      20.955  37.838  24.451  1.00  0.00    -0.138 N 
ATOM     35  H5  UNL     1      21.812  38.218  24.854  1.00  0.00     0.205 HD
BRANCH  34  36
HETATM   36  N6  UNL     1      21.055  37.076  23.295  1.00  0.00    -0.331 N 
ATOM     37  H62 UNL     1      20.835  37.538  22.412  1.00  0.00     0.177 HD
ATOM     38  H61 UNL     1      21.333  36.095  23.290  1.00  0.00     0.177 HD
ENDBRANCH  34  36
ENDBRANCH  14  34
TORSDOF 6
ENDMDL
MODEL 4
REMARK VINA RESULT: -8.881504812      2.372      4.230
REMARK  6 active torsions:
REMARK  status: ('A' for Active; 'I' for Inactive)
REMARK    1  A    between atoms: O1_2  and  C2_3 
REMARK    2  A    between atoms: C4_5  and  O2_6 
REMARK    3  A    between atoms: C6_8  and  N1_9 
REMARK    4  A    between atoms: C15_21  and  N3_22 
REMARK    5  A    between atoms: C16_27  and  N5_28 
REMARK    6  A    between atoms: N5_28  and  N6_30 
ROOT
HETATM    1  C2  UNL     1      15.357  39.534  27.782  1.00  0.00     0.085 A 
HETATM    2  C3  UNL     1      14.429  39.721  28.786  1.00  0.00     0.076 A 
HETATM    3  C4  UNL     1      13.118  40.076  28.492  1.00  0.00     0.098 A 
HETATM    4  C6  UNL     1      12.723  40.247  27.184  1.00  0.00     0.071 A 
HETATM    5  C11 UNL     1      13.636  40.064  26.130  1.00  0.00    -0.010 A 
HETATM    6  C12 UNL     1      14.906  39.719  26.492  1.00  0.00     0.050 A 
HETATM    7  C13 UNL     1      15.897  39.608  25.430  1.00  0.00     0.123 A 
HETATM    8  N2  UNL     1      17.207  39.217  25.475  1.00  0.00    -0.335 N 
ATOM      9  H2  UNL     1      17.718  38.972  26.323  1.00  0.00     0.168 HD
HETATM   10  C14 UNL     1      17.714  39.204  24.241  1.00  0.00     0.123 A 
HETATM   11  C15 UNL     1      18.954  38.899  23.692  1.00  0.00     0.145 A 
HETATM   12  N4  UNL     1      19.077  39.011  22.348  1.00  0.00    -0.173 N 
ATOM     13  H4  UNL     1      19.978  38.791  21.924  1.00  0.00     0.186 HD
HETATM   14  C16 UNL     1      18.070  39.399  21.544  1.00  0.00     0.699 A 
HETATM   15  N7  UNL     1      16.861  39.697  22.081  1.00  0.00    -0.172 N 
ATOM     16  H7  UNL     1      16.087  39.992  21.486  1.00  0.00     0.186 HD
HETATM   17  C17 UNL     1      16.704  39.597  23.404  1.00  0.00     0.155 A 
HETATM   18  N8  UNL     1      15.586  39.844  24.156  1.00  0.00    -0.316 N 
HETATM   19  C18 UNL     1      14.313  40.325  23.764  1.00  0.00     0.137 C 
HETATM   20  C19 UNL     1      13.234  40.160  24.747  1.00  0.00     0.062 C 
ENDROOT
BRANCH   4  21
HETATM   21  N1  UNL     1      11.404  40.602  26.839  1.00  0.00    -0.374 N 
HETATM   22  C7  UNL     1      11.076  41.978  26.605  1.00  0.00     0.149 C 
HETATM   23  C8  UNL     1       9.926  42.235  25.681  1.00  0.00     0.187 C 
HETATM   24  O3  UNL     1       9.464  41.074  25.062  1.00  0.00    -0.388 OA
HETATM   25  C9  UNL     1       9.102  40.230  26.110  1.00  0.00     0.187 C 
HETATM   26  C10 UNL     1      10.348  39.635  26.717  1.00  0.00     0.149 C 
ENDBRANCH   4  21
BRANCH   3  27
HETATM   27  O2  UNL     1      12.178  40.268  29.492  1.00  0.00    -0.354 OA
HETATM   28  C5  UNL     1      11.785  39.214  30.343  1.00  0.00     0.210 C 
ENDBRANCH   3  27
BRANCH   1  29
HETATM   29  O1  UNL     1      16.659  39.181  28.080  1.00  0.00    -0.355 OA
HETATM   30  C1  UNL     1      17.038  38.487  29.229  1.00  0.00     0.210 C 
ENDBRANCH   1  29
BRANCH  11  31
HETATM   31  N3  UNL     1      19.919  38.531  24.433  1.00  0.00    -0.383 N 
ATOM     32  H32 UNL     1      20.558  39.199  24.866  1.00  0.00     0.157 HD
ATOM     33  H31 UNL     1      20.086  37.542  24.619  1.00  0.00     0.157 HD
ENDBRANCH  11  31
BRANCH  14  34
HETATM   34  N5  UNL     1      18.279  39.478  20.275  1.00  0.00    -0.138 N 
ATOM     35  H5  UNL     1      17.473  39.461  19.651  1.00  0.00     0.205 HD
BRANCH  34  36
HETATM   36  N6  UNL     1      19.544  39.584  19.712  1.00  0.00    -0.331 N 
ATOM     37  H62 UNL     1      19.957  40.516  19.667  1.00  0.00     0.177 HD
ATOM     38  H61 UNL     1      20.067  38.787  19.350  1.00  0.00     0.177 HD
ENDBRANCH  34  36
ENDBRANCH  14  34
TORSDOF 6
ENDMDL
MODEL 5
REMARK VINA RESULT: -8.556907860      3.824      5.861
REMARK  6 active torsions:
REMARK  status: ('A' for Active; 'I' for Inactive)
REMARK    1  A    between atoms: O1_2  and  C2_3 
REMARK    2  A    between atoms: C4_5  and  O2_6 
REMARK    3  A    between atoms: C6_8  and  N1_9 
REMARK    4  A    between atoms: C15_21  and  N3_22 
REMARK    5  A    between atoms: C16_27  and  N5_28 
REMARK    6  A    between atoms: N5_28  and  N6_30 
ROOT
HETATM    1  C2  UNL     1      12.940  41.516  24.315  1.00  0.00     0.085 A 
HETATM    2  C3  UNL     1      12.925  42.040  23.038  1.00  0.00     0.076 A 
HETATM    3  C4  UNL     1      11.789  41.953  22.242  1.00  0.00     0.098 A 
HETATM    4  C6  UNL     1      10.653  41.339  22.719  1.00  0.00     0.071 A 
HETATM    5  C11 UNL     1      10.625  40.792  24.015  1.00  0.00    -0.010 A 
HETATM    6  C12 UNL     1      11.776  40.912  24.740  1.00  0.00     0.050 A 
HETATM    7  C13 UNL     1      11.809  40.280  26.052  1.00  0.00     0.123 A 
HETATM    8  N2  UNL     1      12.776  40.289  27.018  1.00  0.00    -0.335 N 
ATOM      9  H2  UNL     1      13.689  40.736  26.931  1.00  0.00     0.168 HD
HETATM   10  C14 UNL     1      12.344  39.626  28.092  1.00  0.00     0.123 A 
HETATM   11  C15 UNL     1      12.879  39.320  29.338  1.00  0.00     0.145 A 
HETATM   12  N4  UNL     1      12.101  38.602  30.184  1.00  0.00    -0.173 N 
ATOM     13  H4  UNL     1      12.473  38.368  31.104  1.00  0.00     0.186 HD
HETATM   14  C16 UNL     1      10.861  38.184  29.870  1.00  0.00     0.699 A 
HETATM   15  N7  UNL     1      10.340  38.482  28.654  1.00  0.00    -0.172 N 
ATOM     16  H7  UNL     1       9.403  38.173  28.400  1.00  0.00     0.186 HD
HETATM   17  C17 UNL     1      11.081  39.189  27.795  1.00  0.00     0.155 A 
HETATM   18  N8  UNL     1      10.764  39.601  26.527  1.00  0.00    -0.316 N 
HETATM   19  C18 UNL     1       9.606  39.353  25.752  1.00  0.00     0.137 C 
HETATM   20  C19 UNL     1       9.427  40.211  24.572  1.00  0.00     0.062 C 
ENDROOT
BRANCH   4  21
HETATM   21  N1  UNL     1       9.478  41.231  21.950  1.00  0.00    -0.374 N 
HETATM   22  C7  UNL     1       8.658  42.387  21.739  1.00  0.00     0.149 C 
HETATM   23  C8  UNL     1       7.837  42.395  20.486  1.00  0.00     0.187 C 
HETATM   24  O3  UNL     1       8.141  41.331  19.638  1.00  0.00    -0.388 OA
HETATM   25  C9  UNL     1       7.904  40.188  20.399  1.00  0.00     0.187 C 
HETATM   26  C10 UNL     1       9.048  39.992  21.363  1.00  0.00     0.149 C 
ENDBRANCH   4  21
BRANCH   3  27
HETATM   27  O2  UNL     1      11.763  42.475  20.959  1.00  0.00    -0.354 OA
HETATM   28  C5  UNL     1      12.183  41.714  19.848  1.00  0.00     0.210 C 
ENDBRANCH   3  27
BRANCH   1  29
HETATM   29  O1  UNL     1      14.072  41.606  25.102  1.00  0.00    -0.355 OA
HETATM   30  C1  UNL     1      15.374  41.583  24.604  1.00  0.00     0.210 C 
ENDBRANCH   1  29
BRANCH  11  31
HETATM   31  N3  UNL     1      14.048  39.705  29.656  1.00  0.00    -0.383 N 
ATOM     32  H32 UNL     1      14.883  39.183  29.391  1.00  0.00     0.157 HD
ATOM     33  H31 UNL     1      14.187  40.561  30.193  1.00  0.00     0.157 HD
ENDBRANCH  11  31
BRANCH  14  34
HETATM   34  N5  UNL     1      10.193  37.505  30.738  1.00  0.00    -0.138 N 
ATOM     35  H5  UNL     1       9.230  37.252  30.516  1.00  0.00     0.205 HD
BRANCH  34  36
HETATM   36  N6  UNL     1      10.714  37.101  31.960  1.00  0.00    -0.331 N 
ATOM     37  H62 UNL     1      11.106  37.825  32.562  1.00  0.00     0.177 HD
ATOM     38  H61 UNL     1      10.720  36.131  32.275  1.00  0.00     0.177 HD
ENDBRANCH  34  36
ENDBRANCH  14  34
TORSDOF 6
ENDMDL
