MODEL 1
REMARK VINA RESULT: -9.441463452      0.000      0.000
REMARK  7 active torsions:
REMARK  status: ('A' for Active; 'I' for Inactive)
REMARK    1  A    between atoms: C3_3  and  C4_4 
REMARK    2  A    between atoms: C4_4  and  C5_5 
REMARK       I    between atoms: C5_5  and  N1_7 
REMARK    3  A    between atoms: N1_7  and  C6_9 
REMARK    4  A    between atoms: C10_18  and  N5_19 
REMARK    5  A    between atoms: N5_19  and  C11_21 
REMARK    6  A    between atoms: C14_28  and  N8_29 
REMARK    7  A    between atoms: C15_34  and  S1_35 
ROOT
HETATM    1  C1  UNL     1      10.981  44.138  21.044  1.00  0.00     0.112 C 
HETATM    2  C2  UNL     1      11.702  43.065  21.762  1.00  0.00    -0.111 C 
HETATM    3  C3  UNL     1      12.290  42.185  22.340  1.00  0.00    -0.098 C 
ENDROOT
BRANCH   3   4
HETATM    4  C4  UNL     1      12.996  41.110  23.025  1.00  0.00     0.197 C 
BRANCH   4   5
HETATM    5  C5  UNL     1      13.774  41.643  24.170  1.00  0.00     0.234 C 
HETATM    6  O1  UNL     1      14.509  42.643  23.981  1.00  0.00    -0.272 OA
HETATM    7  N1  UNL     1      13.734  41.084  25.474  1.00  0.00    -0.309 N 
ATOM      8  H1  UNL     1      12.910  41.248  26.053  1.00  0.00     0.170 HD
BRANCH   7   9
HETATM    9  C6  UNL     1      14.704  40.376  25.954  1.00  0.00     0.153 A 
HETATM   10  N2  UNL     1      15.704  39.910  25.161  1.00  0.00    -0.346 N 
HETATM   11  C7  UNL     1      16.699  39.176  25.692  1.00  0.00     0.131 A 
ATOM     12  H2  UNL     1      15.701  40.116  24.162  1.00  0.00     0.167 HD
HETATM   13  C8  UNL     1      16.709  38.893  27.041  1.00  0.00     0.131 A 
HETATM   14  C9  UNL     1      17.772  38.103  27.636  1.00  0.00     0.119 C 
HETATM   15  N4  UNL     1      15.701  39.373  27.790  1.00  0.00    -0.330 N 
HETATM   16  N3  UNL     1      18.612  37.473  28.125  1.00  0.00    -0.190 NA
HETATM   17  C10 UNL     1      14.684  40.111  27.308  1.00  0.00     0.153 A 
ATOM     18  H4  UNL     1      15.707  39.164  28.788  1.00  0.00     0.168 HD
BRANCH  17  19
HETATM   19  N5  UNL     1      13.621  40.615  28.107  1.00  0.00    -0.324 N 
ATOM     20  H5  UNL     1      13.337  41.594  28.058  1.00  0.00     0.169 HD
BRANCH  19  21
HETATM   21  C11 UNL     1      13.028  39.782  28.898  1.00  0.00     0.137 A 
HETATM   22  N6  UNL     1      13.574  39.380  30.074  1.00  0.00    -0.337 N 
HETATM   23  C12 UNL     1      12.951  38.513  30.889  1.00  0.00     0.182 A 
ATOM     24  H6  UNL     1      14.485  39.747  30.347  1.00  0.00     0.168 HD
HETATM   25  N7  UNL     1      11.749  38.043  30.508  1.00  0.00    -0.347 N 
HETATM   26  C13 UNL     1      11.159  38.406  29.356  1.00  0.00     0.108 A 
ATOM     27  H7  UNL     1      11.265  37.386  31.119  1.00  0.00     0.167 HD
HETATM   28  C14 UNL     1       9.932  37.882  29.042  1.00  0.00     0.130 A 
HETATM   29  C17 UNL     1      11.808  39.298  28.524  1.00  0.00     0.109 A 
HETATM   30  N9  UNL     1       9.381  38.277  27.874  1.00  0.00    -0.321 N 
HETATM   31  C15 UNL     1      10.008  39.145  27.060  1.00  0.00     0.146 A 
ATOM     32  H9  UNL     1       8.469  37.909  27.603  1.00  0.00     0.169 HD
HETATM   33  N10 UNL     1      11.224  39.674  27.358  1.00  0.00    -0.332 N 
ATOM     34  H10 UNL     1      11.683  40.330  26.726  1.00  0.00     0.168 HD
BRANCH  28  35
HETATM   35  N8  UNL     1       9.345  37.045  29.843  1.00  0.00    -0.384 N 
ATOM     36  H82 UNL     1       9.758  36.149  30.098  1.00  0.00     0.157 HD
ATOM     37  H81 UNL     1       8.435  37.265  30.248  1.00  0.00     0.157 HD
ENDBRANCH  28  35
BRANCH  31  38
HETATM   38  S1  UNL     1       9.196  39.600  25.548  1.00  0.00    -0.098 SA
HETATM   39  C16 UNL     1       9.786  41.238  25.058  1.00  0.00     0.099 C 
ENDBRANCH  31  38
ENDBRANCH  19  21
ENDBRANCH  17  19
ENDBRANCH   7   9
ENDBRANCH   4   5
ENDBRANCH   3   4
TORSDOF 7
ENDMDL
MODEL 2
REMARK VINA RESULT: -9.390463552      2.996      6.745
REMARK  7 active torsions:
REMARK  status: ('A' for Active; 'I' for Inactive)
REMARK    1  A    between atoms: C3_3  and  C4_4 
REMARK    2  A    between atoms: C4_4  and  C5_5 
REMARK       I    between atoms: C5_5  and  N1_7 
REMARK    3  A    between atoms: N1_7  and  C6_9 
REMARK    4  A    between atoms: C10_18  and  N5_19 
REMARK    5  A    between atoms: N5_19  and  C11_21 
REMARK    6  A    between atoms: C14_28  and  N8_29 
REMARK    7  A    between atoms: C15_34  and  S1_35 
ROOT
HETATM    1  C1  UNL     1      11.743  39.008  30.105  1.00  0.00     0.112 C 
HETATM    2  C2  UNL     1      10.988  38.591  28.903  1.00  0.00    -0.111 C 
HETATM    3  C3  UNL     1      10.377  38.243  27.923  1.00  0.00    -0.098 C 
ENDROOT
BRANCH   3   4
HETATM    4  C4  UNL     1       9.651  37.808  26.737  1.00  0.00     0.197 C 
BRANCH   4   5
HETATM    5  C5  UNL     1       9.065  38.972  26.029  1.00  0.00     0.234 C 
HETATM    6  O1  UNL     1       7.954  38.831  25.462  1.00  0.00    -0.272 OA
HETATM    7  N1  UNL     1       9.693  40.242  25.953  1.00  0.00    -0.309 N 
ATOM      8  H1  UNL     1       9.693  40.840  26.780  1.00  0.00     0.170 HD
BRANCH   7   9
HETATM    9  C6  UNL     1      10.265  40.670  24.874  1.00  0.00     0.153 A 
HETATM   10  N2  UNL     1       9.541  41.140  23.825  1.00  0.00    -0.346 N 
HETATM   11  C7  UNL     1      10.166  41.578  22.717  1.00  0.00     0.131 A 
ATOM     12  H2  UNL     1       8.523  41.162  23.877  1.00  0.00     0.167 HD
HETATM   13  C8  UNL     1      11.543  41.551  22.640  1.00  0.00     0.131 A 
HETATM   14  C9  UNL     1      12.239  42.018  21.455  1.00  0.00     0.119 C 
HETATM   15  N4  UNL     1      12.220  41.078  23.701  1.00  0.00    -0.330 N 
HETATM   16  N3  UNL     1      12.809  42.385  20.516  1.00  0.00    -0.190 NA
HETATM   17  C10 UNL     1      11.643  40.630  24.830  1.00  0.00     0.153 A 
ATOM     18  H4  UNL     1      13.239  41.058  23.645  1.00  0.00     0.168 HD
BRANCH  17  19
HETATM   19  N5  UNL     1      12.368  40.130  25.948  1.00  0.00    -0.324 N 
ATOM     20  H5  UNL     1      12.463  39.128  26.114  1.00  0.00     0.169 HD
BRANCH  19  21
HETATM   21  C11 UNL     1      12.901  40.998  26.744  1.00  0.00     0.137 A 
HETATM   22  N6  UNL     1      12.255  42.129  27.126  1.00  0.00    -0.337 N 
HETATM   23  C12 UNL     1      12.817  43.025  27.953  1.00  0.00     0.182 A 
ATOM     24  H6  UNL     1      11.314  42.303  26.774  1.00  0.00     0.168 HD
HETATM   25  N7  UNL     1      14.059  42.772  28.406  1.00  0.00    -0.347 N 
HETATM   26  C13 UNL     1      14.746  41.669  28.062  1.00  0.00     0.108 A 
ATOM     27  H7  UNL     1      14.496  43.444  29.035  1.00  0.00     0.167 HD
HETATM   28  C14 UNL     1      16.008  41.486  28.568  1.00  0.00     0.130 A 
HETATM   29  C17 UNL     1      14.160  40.753  27.210  1.00  0.00     0.109 A 
HETATM   30  N9  UNL     1      16.658  40.363  28.194  1.00  0.00    -0.321 N 
HETATM   31  C15 UNL     1      16.092  39.468  27.365  1.00  0.00     0.146 A 
ATOM     32  H9  UNL     1      17.598  40.190  28.548  1.00  0.00     0.169 HD
HETATM   33  N10 UNL     1      14.842  39.635  26.855  1.00  0.00    -0.332 N 
ATOM     34  H10 UNL     1      14.432  38.944  26.227  1.00  0.00     0.168 HD
BRANCH  28  35
HETATM   35  N8  UNL     1      16.534  42.364  29.367  1.00  0.00    -0.384 N 
ATOM     36  H82 UNL     1      16.334  42.385  30.367  1.00  0.00     0.157 HD
ATOM     37  H81 UNL     1      17.176  43.072  29.012  1.00  0.00     0.157 HD
ENDBRANCH  28  35
BRANCH  31  38
HETATM   38  S1  UNL     1      17.031  38.025  26.935  1.00  0.00    -0.098 SA
HETATM   39  C16 UNL     1      18.048  37.564  28.360  1.00  0.00     0.099 C 
ENDBRANCH  31  38
ENDBRANCH  19  21
ENDBRANCH  17  19
ENDBRANCH   7   9
ENDBRANCH   4   5
ENDBRANCH   3   4
TORSDOF 7
ENDMDL
MODEL 3
REMARK VINA RESULT: -9.091815485      2.266      5.566
REMARK  7 active torsions:
REMARK  status: ('A' for Active; 'I' for Inactive)
REMARK    1  A    between atoms: C3_3  and  C4_4 
REMARK    2  A    between atoms: C4_4  and  C5_5 
REMARK       I    between atoms: C5_5  and  N1_7 
REMARK    3  A    between atoms: N1_7  and  C6_9 
REMARK    4  A    between atoms: C10_18  and  N5_19 
REMARK    5  A    between atoms: N5_19  and  C11_21 
REMARK    6  A    between atoms: C14_28  and  N8_29 
REMARK    7  A    between atoms: C15_34  and  S1_35 
ROOT
HETATM    1  C1  UNL     1       9.457  41.001  21.779  1.00  0.00     0.112 C 
HETATM    2  C2  UNL     1       9.468  40.910  23.255  1.00  0.00    -0.111 C 
HETATM    3  C3  UNL     1       9.470  40.830  24.458  1.00  0.00    -0.098 C 
ENDROOT
BRANCH   3   4
HETATM    4  C4  UNL     1       9.457  40.724  25.911  1.00  0.00     0.197 C 
BRANCH   4   5
HETATM    5  C5  UNL     1       9.702  39.324  26.334  1.00  0.00     0.234 C 
HETATM    6  O1  UNL     1       8.838  38.455  26.060  1.00  0.00    -0.272 OA
HETATM    7  N1  UNL     1      10.864  38.907  27.035  1.00  0.00    -0.309 N 
ATOM      8  H1  UNL     1      11.743  38.828  26.524  1.00  0.00     0.170 HD
BRANCH   7   9
HETATM    9  C6  UNL     1      10.848  38.623  28.297  1.00  0.00     0.153 A 
HETATM   10  N2  UNL     1       9.998  37.692  28.805  1.00  0.00    -0.346 N 
HETATM   11  C7  UNL     1      10.007  37.420  30.122  1.00  0.00     0.131 A 
ATOM     12  H2  UNL     1       9.354  37.199  28.187  1.00  0.00     0.167 HD
HETATM   13  C8  UNL     1      10.875  38.083  30.963  1.00  0.00     0.131 A 
HETATM   14  C9  UNL     1      10.902  37.807  32.388  1.00  0.00     0.119 C 
HETATM   15  N4  UNL     1      11.699  38.997  30.419  1.00  0.00    -0.330 N 
HETATM   16  N3  UNL     1      10.934  37.598  33.527  1.00  0.00    -0.190 NA
HETATM   17  C10 UNL     1      11.730  39.305  29.110  1.00  0.00     0.153 A 
ATOM     18  H4  UNL     1      12.341  39.488  31.040  1.00  0.00     0.168 HD
BRANCH  17  19
HETATM   19  N5  UNL     1      12.604  40.273  28.543  1.00  0.00    -0.324 N 
ATOM     20  H5  UNL     1      12.273  41.205  28.292  1.00  0.00     0.169 HD
BRANCH  19  21
HETATM   21  C11 UNL     1      13.835  39.924  28.359  1.00  0.00     0.137 A 
HETATM   22  N6  UNL     1      14.640  39.528  29.378  1.00  0.00    -0.337 N 
HETATM   23  C12 UNL     1      15.918  39.167  29.177  1.00  0.00     0.182 A 
ATOM     24  H6  UNL     1      14.262  39.505  30.325  1.00  0.00     0.168 HD
HETATM   25  N7  UNL     1      16.392  39.205  27.918  1.00  0.00    -0.347 N 
HETATM   26  C13 UNL     1      15.642  39.587  26.870  1.00  0.00     0.108 A 
ATOM     27  H7  UNL     1      17.360  38.932  27.753  1.00  0.00     0.167 HD
HETATM   28  C14 UNL     1      16.202  39.597  25.619  1.00  0.00     0.130 A 
HETATM   29  C17 UNL     1      14.329  39.957  27.087  1.00  0.00     0.109 A 
HETATM   30  N9  UNL     1      15.408  39.988  24.599  1.00  0.00    -0.321 N 
HETATM   31  C15 UNL     1      14.128  40.349  24.804  1.00  0.00     0.146 A 
ATOM     32  H9  UNL     1      15.787  40.010  23.652  1.00  0.00     0.169 HD
HETATM   33  N10 UNL     1      13.559  40.344  26.038  1.00  0.00    -0.332 N 
ATOM     34  H10 UNL     1      12.587  40.623  26.172  1.00  0.00     0.168 HD
BRANCH  28  35
HETATM   35  N8  UNL     1      17.439  39.244  25.445  1.00  0.00    -0.384 N 
ATOM     36  H82 UNL     1      18.104  39.814  24.922  1.00  0.00     0.157 HD
ATOM     37  H81 UNL     1      17.789  38.368  25.833  1.00  0.00     0.157 HD
ENDBRANCH  28  35
BRANCH  31  38
HETATM   38  S1  UNL     1      13.171  40.847  23.395  1.00  0.00    -0.098 SA
HETATM   39  C16 UNL     1      13.908  40.107  21.917  1.00  0.00     0.099 C 
ENDBRANCH  31  38
ENDBRANCH  19  21
ENDBRANCH  17  19
ENDBRANCH   7   9
ENDBRANCH   4   5
ENDBRANCH   3   4
TORSDOF 7
ENDMDL
MODEL 4
REMARK VINA RESULT: -8.966926914      2.572      5.785
REMARK  7 active torsions:
REMARK  status: ('A' for Active; 'I' for Inactive)
REMARK    1  A    between atoms: C3_3  and  C4_4 
REMARK    2  A    between atoms: C4_4  and  C5_5 
REMARK       I    between atoms: C5_5  and  N1_7 
REMARK    3  A    between atoms: N1_7  and  C6_9 
REMARK    4  A    between atoms: C10_18  and  N5_19 
REMARK    5  A    between atoms: N5_19  and  C11_21 
REMARK    6  A    between atoms: C14_28  and  N8_29 
REMARK    7  A    between atoms: C15_34  and  S1_35 
ROOT
HETATM    1  C1  UNL     1      10.394  36.483  30.008  1.00  0.00     0.112 C 
HETATM    2  C2  UNL     1      11.074  37.797  30.018  1.00  0.00    -0.111 C 
HETATM    3  C3  UNL     1      11.625  38.869  30.036  1.00  0.00    -0.098 C 
ENDROOT
BRANCH   3   4
HETATM    4  C4  UNL     1      12.285  40.168  30.074  1.00  0.00     0.197 C 
BRANCH   4   5
HETATM    5  C5  UNL     1      12.991  40.432  28.797  1.00  0.00     0.234 C 
HETATM    6  O1  UNL     1      12.386  40.207  27.720  1.00  0.00    -0.272 OA
HETATM    7  N1  UNL     1      14.319  40.928  28.722  1.00  0.00    -0.309 N 
ATOM      8  H1  UNL     1      14.489  41.911  28.933  1.00  0.00     0.170 HD
BRANCH   7   9
HETATM    9  C6  UNL     1      15.321  40.177  28.394  1.00  0.00     0.153 A 
HETATM   10  N2  UNL     1      15.863  39.293  29.272  1.00  0.00    -0.346 N 
HETATM   11  C7  UNL     1      16.904  38.527  28.901  1.00  0.00     0.131 A 
ATOM     12  H2  UNL     1      15.479  39.209  30.214  1.00  0.00     0.167 HD
HETATM   13  C8  UNL     1      17.427  38.636  27.630  1.00  0.00     0.131 A 
HETATM   14  C9  UNL     1      18.551  37.820  27.207  1.00  0.00     0.119 C 
HETATM   15  N4  UNL     1      16.862  39.523  26.793  1.00  0.00    -0.330 N 
HETATM   16  N3  UNL     1      19.448  37.177  26.855  1.00  0.00    -0.190 NA
HETATM   17  C10 UNL     1      15.820  40.311  27.115  1.00  0.00     0.153 A 
ATOM     18  H4  UNL     1      17.248  39.605  25.853  1.00  0.00     0.168 HD
BRANCH  17  19
HETATM   19  N5  UNL     1      15.228  41.248  26.224  1.00  0.00    -0.324 N 
ATOM     20  H5  UNL     1      14.914  42.164  26.548  1.00  0.00     0.169 HD
BRANCH  19  21
HETATM   21  C11 UNL     1      15.104  40.892  24.988  1.00  0.00     0.137 A 
HETATM   22  N6  UNL     1      16.158  40.480  24.239  1.00  0.00    -0.337 N 
HETATM   23  C12 UNL     1      16.020  40.112  22.955  1.00  0.00     0.182 A 
ATOM     24  H6  UNL     1      17.084  40.448  24.666  1.00  0.00     0.168 HD
HETATM   25  N7  UNL     1      14.788  40.160  22.416  1.00  0.00    -0.347 N 
HETATM   26  C13 UNL     1      13.707  40.560  23.108  1.00  0.00     0.108 A 
ATOM     27  H7  UNL     1      14.669  39.883  21.442  1.00  0.00     0.167 HD
HETATM   28  C14 UNL     1      12.486  40.580  22.484  1.00  0.00     0.130 A 
HETATM   29  C17 UNL     1      13.860  40.937  24.428  1.00  0.00     0.109 A 
HETATM   30  N9  UNL     1      11.431  40.989  23.221  1.00  0.00    -0.321 N 
HETATM   31  C15 UNL     1      11.574  41.357  24.507  1.00  0.00     0.146 A 
ATOM     32  H9  UNL     1      10.506  41.019  22.794  1.00  0.00     0.169 HD
HETATM   33  N10 UNL     1      12.777  41.342  25.140  1.00  0.00    -0.332 N 
ATOM     34  H10 UNL     1      12.863  41.626  26.116  1.00  0.00     0.168 HD
BRANCH  28  35
HETATM   35  N8  UNL     1      12.372  40.220  21.242  1.00  0.00    -0.384 N 
ATOM     36  H82 UNL     1      12.779  39.358  20.881  1.00  0.00     0.157 HD
ATOM     37  H81 UNL     1      11.862  40.801  20.577  1.00  0.00     0.157 HD
ENDBRANCH  28  35
BRANCH  31  38
HETATM   38  S1  UNL     1      10.123  41.877  25.387  1.00  0.00    -0.098 SA
HETATM   39  C16 UNL     1       9.133  40.411  25.768  1.00  0.00     0.099 C 
ENDBRANCH  31  38
ENDBRANCH  19  21
ENDBRANCH  17  19
ENDBRANCH   7   9
ENDBRANCH   4   5
ENDBRANCH   3   4
TORSDOF 7
ENDMDL
MODEL 5
REMARK VINA RESULT: -8.949842264      2.443      6.142
REMARK  7 active torsions:
REMARK  status: ('A' for Active; 'I' for Inactive)
REMARK    1  A    between atoms: C3_3  and  C4_4 
REMARK    2  A    between atoms: C4_4  and  C5_5 
REMARK       I    between atoms: C5_5  and  N1_7 
REMARK    3  A    between atoms: N1_7  and  C6_9 
REMARK    4  A    between atoms: C10_18  and  N5_19 
REMARK    5  A    between atoms: N5_19  and  C11_21 
REMARK    6  A    between atoms: C14_28  and  N8_29 
REMARK    7  A    between atoms: C15_34  and  S1_35 
ROOT
HETATM    1  C1  UNL     1      10.941  37.828  33.064  1.00  0.00     0.112 C 
HETATM    2  C2  UNL     1      10.734  37.710  31.604  1.00  0.00    -0.111 C 
HETATM    3  C3  UNL     1      10.574  37.609  30.413  1.00  0.00    -0.098 C 
ENDROOT
BRANCH   3   4
HETATM    4  C4  UNL     1      10.397  37.481  28.972  1.00  0.00     0.197 C 
BRANCH   4   5
HETATM    5  C5  UNL     1      11.010  38.632  28.267  1.00  0.00     0.234 C 
HETATM    6  O1  UNL     1      11.062  38.608  27.013  1.00  0.00    -0.272 OA
HETATM    7  N1  UNL     1      11.545  39.766  28.932  1.00  0.00    -0.309 N 
ATOM      8  H1  UNL     1      10.903  40.450  29.332  1.00  0.00     0.170 HD
BRANCH   7   9
HETATM    9  C6  UNL     1      12.819  39.964  29.049  1.00  0.00     0.153 A 
HETATM   10  N2  UNL     1      13.565  39.279  29.955  1.00  0.00    -0.346 N 
HETATM   11  C7  UNL     1      14.886  39.508  30.051  1.00  0.00     0.131 A 
ATOM     12  H2  UNL     1      13.122  38.589  30.562  1.00  0.00     0.167 HD
HETATM   13  C8  UNL     1      15.491  40.439  29.233  1.00  0.00     0.131 A 
HETATM   14  C9  UNL     1      16.915  40.703  29.319  1.00  0.00     0.119 C 
HETATM   15  N4  UNL     1      14.716  41.095  28.351  1.00  0.00    -0.330 N 
HETATM   16  N3  UNL     1      18.051  40.926  29.377  1.00  0.00    -0.190 NA
HETATM   17  C10 UNL     1      13.392  40.902  28.216  1.00  0.00     0.153 A 
ATOM     18  H4  UNL     1      15.163  41.784  27.746  1.00  0.00     0.168 HD
BRANCH  17  19
HETATM   19  N5  UNL     1      12.580  41.602  27.280  1.00  0.00    -0.324 N 
ATOM     20  H5  UNL     1      11.665  41.971  27.543  1.00  0.00     0.169 HD
BRANCH  19  21
HETATM   21  C11 UNL     1      13.048  41.749  26.084  1.00  0.00     0.137 A 
HETATM   22  N6  UNL     1      14.275  42.276  25.842  1.00  0.00    -0.337 N 
HETATM   23  C12 UNL     1      14.752  42.426  24.596  1.00  0.00     0.182 A 
ATOM     24  H6  UNL     1      14.852  42.567  26.631  1.00  0.00     0.168 HD
HETATM   25  N7  UNL     1      13.973  42.033  23.572  1.00  0.00    -0.347 N 
HETATM   26  C13 UNL     1      12.751  41.504  23.751  1.00  0.00     0.108 A 
ATOM     27  H7  UNL     1      14.325  42.141  22.621  1.00  0.00     0.167 HD
HETATM   28  C14 UNL     1      12.020  41.128  22.652  1.00  0.00     0.130 A 
HETATM   29  C17 UNL     1      12.267  41.355  25.036  1.00  0.00     0.109 A 
HETATM   30  N9  UNL     1      10.798  40.602  22.884  1.00  0.00    -0.321 N 
HETATM   31  C15 UNL     1      10.323  40.454  24.134  1.00  0.00     0.146 A 
ATOM     32  H9  UNL     1      10.223  40.310  22.094  1.00  0.00     0.169 HD
HETATM   33  N10 UNL     1      11.035  40.821  25.232  1.00  0.00    -0.332 N 
ATOM     34  H10 UNL     1      10.655  40.701  26.171  1.00  0.00     0.168 HD
BRANCH  28  35
HETATM   35  N8  UNL     1      12.499  41.281  21.455  1.00  0.00    -0.384 N 
ATOM     36  H82 UNL     1      11.944  41.110  20.617  1.00  0.00     0.157 HD
ATOM     37  H81 UNL     1      13.463  41.581  21.316  1.00  0.00     0.157 HD
ENDBRANCH  28  35
BRANCH  31  38
HETATM   38  S1  UNL     1       8.705  39.751  24.328  1.00  0.00    -0.098 SA
HETATM   39  C16 UNL     1       8.209  39.023  22.748  1.00  0.00     0.099 C 
ENDBRANCH  31  38
ENDBRANCH  19  21
ENDBRANCH  17  19
ENDBRANCH   7   9
ENDBRANCH   4   5
ENDBRANCH   3   4
TORSDOF 7
ENDMDL
