MODEL 1
REMARK VINA RESULT: -8.900063029      0.000      0.000
REMARK  11 active torsions:
REMARK  status: ('A' for Active; 'I' for Inactive)
REMARK    1  A    between atoms: O1_2  and  N1_3 
REMARK    2  A    between atoms: C2_5  and  N2_6 
REMARK    3  A    between atoms: C2_5  and  C7_16 
REMARK    4  A    between atoms: N2_6  and  C3_8 
REMARK    5  A    between atoms: C3_8  and  O2_9 
REMARK    6  A    between atoms: C3_8  and  C4_11 
REMARK    7  A    between atoms: C4_11  and  O3_14 
REMARK    8  A    between atoms: C7_16  and  N3_18 
REMARK    9  A    between atoms: N3_18  and  C9_20 
REMARK   10  A    between atoms: C9_20  and  C10_21 
REMARK   11  A    between atoms: C11_22  and  N4_23 
ROOT
HETATM    1  C9  UNL     1      17.320  35.596  22.062  1.00  0.00     0.111 C 
HETATM    2  N6  UNL     1      16.506  36.501  22.002  1.00  0.00    -0.280 N 
ATOM      3  H6  UNL     1      16.801  37.172  22.711  1.00  0.00     0.179 HD
HETATM    4  C16 UNL     1      15.434  37.023  21.464  1.00  0.00     0.183 C 
HETATM    5  N7  UNL     1      14.501  37.497  21.011  1.00  0.00    -0.172 NA
ENDROOT
BRANCH   1   6
HETATM    6  N3  UNL     1      18.418  35.686  23.040  1.00  0.00    -0.365 N 
ATOM      7  H3  UNL     1      19.358  35.408  22.759  1.00  0.00     0.162 HD
BRANCH   6   8
HETATM    8  C7  UNL     1      18.201  36.155  24.378  1.00  0.00     0.148 C 
HETATM    9  C8  UNL     1      18.695  37.598  24.427  1.00  0.00     0.040 C 
BRANCH   8  10
HETATM   10  C2  UNL     1      18.928  35.315  25.348  1.00  0.00     0.122 C 
HETATM   11  N1  UNL     1      20.207  35.247  25.287  1.00  0.00    -0.253 N 
ATOM     12  H1  UNL     1      20.683  34.659  25.972  1.00  0.00     0.195 HD
BRANCH  11  13
HETATM   13  O1  UNL     1      20.978  35.904  24.373  1.00  0.00    -0.284 OA
HETATM   14  C1  UNL     1      22.272  36.358  24.719  1.00  0.00     0.237 C 
ENDBRANCH  11  13
BRANCH  10  15
HETATM   15  N2  UNL     1      18.254  34.578  26.351  1.00  0.00    -0.348 N 
ATOM     16  H2  UNL     1      17.477  33.958  26.122  1.00  0.00     0.163 HD
BRANCH  15  17
HETATM   17  C3  UNL     1      18.711  34.740  27.718  1.00  0.00     0.252 C 
BRANCH  17  18
HETATM   18  O2  UNL     1      18.221  35.886  28.295  1.00  0.00    -0.374 OA
ATOM     19  H2  UNL     1      18.612  36.668  27.925  1.00  0.00     0.212 HD
ENDBRANCH  17  18
BRANCH  17  20
HETATM   20  C4  UNL     1      18.355  33.553  28.580  1.00  0.00     0.094 C 
HETATM   21  C5  UNL     1      19.408  33.486  29.683  1.00  0.00     0.050 C 
HETATM   22  C6  UNL     1      18.318  32.270  27.776  1.00  0.00     0.050 C 
BRANCH  20  23
HETATM   23  O3  UNL     1      17.110  33.705  29.187  1.00  0.00    -0.386 OA
ATOM     24  H3  UNL     1      17.157  33.584  30.127  1.00  0.00     0.210 HD
ENDBRANCH  20  23
ENDBRANCH  17  20
ENDBRANCH  15  17
ENDBRANCH  10  15
ENDBRANCH   8  10
ENDBRANCH   6   8
ENDBRANCH   1   6
BRANCH   1  25
HETATM   25  C10 UNL     1      17.344  34.365  21.240  1.00  0.00     0.066 C 
HETATM   26  C11 UNL     1      17.215  34.351  19.960  1.00  0.00     0.105 C 
BRANCH  26  27
HETATM   27  N4  UNL     1      17.222  33.241  19.074  1.00  0.00    -0.285 N 
HETATM   28  C12 UNL     1      16.035  32.882  18.474  1.00  0.00     0.106 A 
HETATM   29  C13 UNL     1      15.952  31.825  17.607  1.00  0.00     0.092 A 
HETATM   30  C14 UNL     1      17.061  31.072  17.298  1.00  0.00     0.250 A 
HETATM   31  O4  UNL     1      16.996  30.101  16.504  1.00  0.00    -0.268 OA
HETATM   32  N5  UNL     1      18.205  31.430  17.885  1.00  0.00    -0.275 N 
HETATM   33  C15 UNL     1      18.270  32.494  18.754  1.00  0.00     0.333 A 
ATOM     34  H5  UNL     1      19.053  30.900  17.684  1.00  0.00     0.173 HD
HETATM   35  O5  UNL     1      19.397  32.729  19.238  1.00  0.00    -0.246 OA
ENDBRANCH  26  27
ENDBRANCH   1  25
TORSDOF 11
ENDMDL
MODEL 2
REMARK VINA RESULT: -8.894373166      2.914      5.203
REMARK  11 active torsions:
REMARK  status: ('A' for Active; 'I' for Inactive)
REMARK    1  A    between atoms: O1_2  and  N1_3 
REMARK    2  A    between atoms: C2_5  and  N2_6 
REMARK    3  A    between atoms: C2_5  and  C7_16 
REMARK    4  A    between atoms: N2_6  and  C3_8 
REMARK    5  A    between atoms: C3_8  and  O2_9 
REMARK    6  A    between atoms: C3_8  and  C4_11 
REMARK    7  A    between atoms: C4_11  and  O3_14 
REMARK    8  A    between atoms: C7_16  and  N3_18 
REMARK    9  A    between atoms: N3_18  and  C9_20 
REMARK   10  A    between atoms: C9_20  and  C10_21 
REMARK   11  A    between atoms: C11_22  and  N4_23 
ROOT
HETATM    1  C9  UNL     1      17.226  35.708  22.049  1.00  0.00     0.111 C 
HETATM    2  N6  UNL     1      17.341  34.782  21.264  1.00  0.00    -0.280 N 
ATOM      3  H6  UNL     1      18.252  34.373  21.468  1.00  0.00     0.179 HD
HETATM    4  C16 UNL     1      16.855  34.063  20.286  1.00  0.00     0.183 C 
HETATM    5  N7  UNL     1      16.452  33.423  19.433  1.00  0.00    -0.172 NA
ENDROOT
BRANCH   1   6
HETATM    6  N3  UNL     1      18.317  35.978  23.001  1.00  0.00    -0.365 N 
ATOM      7  H3  UNL     1      19.283  35.875  22.691  1.00  0.00     0.162 HD
BRANCH   6   8
HETATM    8  C7  UNL     1      18.058  36.381  24.352  1.00  0.00     0.148 C 
HETATM    9  C8  UNL     1      18.537  37.825  24.483  1.00  0.00     0.040 C 
BRANCH   8  10
HETATM   10  C2  UNL     1      18.765  35.503  25.302  1.00  0.00     0.122 C 
HETATM   11  N1  UNL     1      20.037  35.368  25.209  1.00  0.00    -0.253 N 
ATOM     12  H1  UNL     1      20.499  34.754  25.880  1.00  0.00     0.195 HD
BRANCH  11  13
HETATM   13  O1  UNL     1      20.817  35.986  24.276  1.00  0.00    -0.284 OA
HETATM   14  C1  UNL     1      22.181  36.253  24.542  1.00  0.00     0.237 C 
ENDBRANCH  11  13
BRANCH  10  15
HETATM   15  N2  UNL     1      18.079  34.799  26.322  1.00  0.00    -0.348 N 
ATOM     16  H2  UNL     1      17.218  34.288  26.126  1.00  0.00     0.163 HD
BRANCH  15  17
HETATM   17  C3  UNL     1      18.649  34.834  27.654  1.00  0.00     0.252 C 
BRANCH  17  18
HETATM   18  O2  UNL     1      18.244  35.940  28.362  1.00  0.00    -0.374 OA
ATOM     19  H2  UNL     1      18.979  36.443  28.690  1.00  0.00     0.212 HD
ENDBRANCH  17  18
BRANCH  17  20
HETATM   20  C4  UNL     1      18.325  33.589  28.444  1.00  0.00     0.094 C 
HETATM   21  C5  UNL     1      19.420  33.444  29.496  1.00  0.00     0.050 C 
HETATM   22  C6  UNL     1      18.253  32.366  27.552  1.00  0.00     0.050 C 
BRANCH  20  23
HETATM   23  O3  UNL     1      17.105  33.696  29.108  1.00  0.00    -0.386 OA
ATOM     24  H3  UNL     1      16.861  32.885  29.536  1.00  0.00     0.210 HD
ENDBRANCH  20  23
ENDBRANCH  17  20
ENDBRANCH  15  17
ENDBRANCH  10  15
ENDBRANCH   8  10
ENDBRANCH   6   8
ENDBRANCH   1   6
BRANCH   1  25
HETATM   25  C10 UNL     1      16.078  36.635  22.169  1.00  0.00     0.066 C 
HETATM   26  C11 UNL     1      14.846  36.264  22.134  1.00  0.00     0.105 C 
BRANCH  26  27
HETATM   27  N4  UNL     1      13.672  37.056  22.239  1.00  0.00    -0.285 N 
HETATM   28  C12 UNL     1      13.687  38.315  21.681  1.00  0.00     0.106 A 
HETATM   29  C13 UNL     1      12.599  39.146  21.736  1.00  0.00     0.092 A 
HETATM   30  C14 UNL     1      11.437  38.752  22.357  1.00  0.00     0.250 A 
HETATM   31  O4  UNL     1      10.433  39.504  22.412  1.00  0.00    -0.268 OA
HETATM   32  N5  UNL     1      11.434  37.529  22.894  1.00  0.00    -0.275 N 
HETATM   33  C15 UNL     1      12.536  36.709  22.829  1.00  0.00     0.333 A 
ATOM     34  H5  UNL     1      10.593  37.195  23.364  1.00  0.00     0.173 HD
HETATM   35  O5  UNL     1      12.409  35.590  23.368  1.00  0.00    -0.246 OA
ENDBRANCH  26  27
ENDBRANCH   1  25
TORSDOF 11
ENDMDL
MODEL 3
REMARK VINA RESULT: -8.856556296      3.281      7.559
REMARK  11 active torsions:
REMARK  status: ('A' for Active; 'I' for Inactive)
REMARK    1  A    between atoms: O1_2  and  N1_3 
REMARK    2  A    between atoms: C2_5  and  N2_6 
REMARK    3  A    between atoms: C2_5  and  C7_16 
REMARK    4  A    between atoms: N2_6  and  C3_8 
REMARK    5  A    between atoms: C3_8  and  O2_9 
REMARK    6  A    between atoms: C3_8  and  C4_11 
REMARK    7  A    between atoms: C4_11  and  O3_14 
REMARK    8  A    between atoms: C7_16  and  N3_18 
REMARK    9  A    between atoms: N3_18  and  C9_20 
REMARK   10  A    between atoms: C9_20  and  C10_21 
REMARK   11  A    between atoms: C11_22  and  N4_23 
ROOT
HETATM    1  C9  UNL     1      18.266  35.864  25.822  1.00  0.00     0.111 C 
HETATM    2  N6  UNL     1      17.976  35.740  27.000  1.00  0.00    -0.280 N 
ATOM      3  H6  UNL     1      17.108  36.263  27.117  1.00  0.00     0.179 HD
HETATM    4  C16 UNL     1      18.245  35.256  28.185  1.00  0.00     0.183 C 
HETATM    5  N7  UNL     1      18.459  34.845  29.227  1.00  0.00    -0.172 NA
ENDROOT
BRANCH   1   6
HETATM    6  N3  UNL     1      17.382  36.656  24.949  1.00  0.00    -0.365 N 
ATOM      7  H3  UNL     1      16.624  37.194  25.367  1.00  0.00     0.162 HD
BRANCH   6   8
HETATM    8  C7  UNL     1      17.561  36.690  23.527  1.00  0.00     0.148 C 
HETATM    9  C8  UNL     1      17.933  38.125  23.161  1.00  0.00     0.040 C 
BRANCH   8  10
HETATM   10  C2  UNL     1      16.326  36.274  22.837  1.00  0.00     0.122 C 
HETATM   11  N1  UNL     1      16.340  35.228  22.096  1.00  0.00    -0.253 N 
ATOM     12  H1  UNL     1      15.470  34.964  21.632  1.00  0.00     0.195 HD
BRANCH  11  13
HETATM   13  O1  UNL     1      17.434  34.442  21.882  1.00  0.00    -0.284 OA
HETATM   14  C1  UNL     1      17.750  33.988  20.580  1.00  0.00     0.237 C 
ENDBRANCH  11  13
BRANCH  10  15
HETATM   15  N2  UNL     1      15.115  36.998  22.970  1.00  0.00    -0.348 N 
ATOM     16  H2  UNL     1      14.569  36.963  23.830  1.00  0.00     0.163 HD
BRANCH  15  17
HETATM   17  C3  UNL     1      14.685  37.790  21.834  1.00  0.00     0.252 C 
BRANCH  17  18
HETATM   18  O2  UNL     1      14.947  37.164  20.639  1.00  0.00    -0.374 OA
ATOM     19  H2  UNL     1      14.184  36.714  20.296  1.00  0.00     0.212 HD
ENDBRANCH  17  18
BRANCH  17  20
HETATM   20  C4  UNL     1      13.217  38.135  21.906  1.00  0.00     0.094 C 
HETATM   21  C5  UNL     1      12.557  37.053  22.755  1.00  0.00     0.050 C 
HETATM   22  C6  UNL     1      12.594  38.211  20.527  1.00  0.00     0.050 C 
BRANCH  20  23
HETATM   23  O3  UNL     1      13.001  39.361  22.532  1.00  0.00    -0.386 OA
ATOM     24  H3  UNL     1      13.034  39.287  23.478  1.00  0.00     0.210 HD
ENDBRANCH  20  23
ENDBRANCH  17  20
ENDBRANCH  15  17
ENDBRANCH  10  15
ENDBRANCH   8  10
ENDBRANCH   6   8
ENDBRANCH   1   6
BRANCH   1  25
HETATM   25  C10 UNL     1      19.445  35.296  25.132  1.00  0.00     0.066 C 
HETATM   26  C11 UNL     1      20.602  35.153  25.679  1.00  0.00     0.105 C 
BRANCH  26  27
HETATM   27  N4  UNL     1      21.795  34.625  25.120  1.00  0.00    -0.285 N 
HETATM   28  C12 UNL     1      22.036  33.276  25.264  1.00  0.00     0.106 A 
HETATM   29  C13 UNL     1      23.162  32.683  24.756  1.00  0.00     0.092 A 
HETATM   30  C14 UNL     1      24.105  33.418  24.076  1.00  0.00     0.250 A 
HETATM   31  O4  UNL     1      25.141  32.885  23.606  1.00  0.00    -0.268 OA
HETATM   32  N5  UNL     1      23.860  34.724  23.944  1.00  0.00    -0.275 N 
HETATM   33  C15 UNL     1      22.725  35.302  24.461  1.00  0.00     0.333 A 
ATOM     34  H5  UNL     1      24.533  35.308  23.447  1.00  0.00     0.173 HD
HETATM   35  O5  UNL     1      22.609  36.531  24.271  1.00  0.00    -0.246 OA
ENDBRANCH  26  27
ENDBRANCH   1  25
TORSDOF 11
ENDMDL
MODEL 4
REMARK VINA RESULT: -8.776383776      3.204      7.718
REMARK  11 active torsions:
REMARK  status: ('A' for Active; 'I' for Inactive)
REMARK    1  A    between atoms: O1_2  and  N1_3 
REMARK    2  A    between atoms: C2_5  and  N2_6 
REMARK    3  A    between atoms: C2_5  and  C7_16 
REMARK    4  A    between atoms: N2_6  and  C3_8 
REMARK    5  A    between atoms: C3_8  and  O2_9 
REMARK    6  A    between atoms: C3_8  and  C4_11 
REMARK    7  A    between atoms: C4_11  and  O3_14 
REMARK    8  A    between atoms: C7_16  and  N3_18 
REMARK    9  A    between atoms: N3_18  and  C9_20 
REMARK   10  A    between atoms: C9_20  and  C10_21 
REMARK   11  A    between atoms: C11_22  and  N4_23 
ROOT
HETATM    1  C9  UNL     1      18.312  36.030  25.640  1.00  0.00     0.111 C 
HETATM    2  N6  UNL     1      18.051  35.765  26.801  1.00  0.00    -0.280 N 
ATOM      3  H6  UNL     1      17.116  36.142  26.957  1.00  0.00     0.179 HD
HETATM    4  C16 UNL     1      18.397  35.230  27.944  1.00  0.00     0.183 C 
HETATM    5  N7  UNL     1      18.677  34.771  28.949  1.00  0.00    -0.172 NA
ENDROOT
BRANCH   1   6
HETATM    6  N3  UNL     1      17.314  36.751  24.830  1.00  0.00    -0.365 N 
ATOM      7  H3  UNL     1      16.531  37.207  25.298  1.00  0.00     0.162 HD
BRANCH   6   8
HETATM    8  C7  UNL     1      17.415  36.829  23.402  1.00  0.00     0.148 C 
HETATM    9  C8  UNL     1      17.711  38.286  23.058  1.00  0.00     0.040 C 
BRANCH   8  10
HETATM   10  C2  UNL     1      16.163  36.381  22.767  1.00  0.00     0.122 C 
HETATM   11  N1  UNL     1      16.168  35.325  22.038  1.00  0.00    -0.253 N 
ATOM     12  H1  UNL     1      15.286  35.039  21.612  1.00  0.00     0.195 HD
BRANCH  11  13
HETATM   13  O1  UNL     1      17.268  34.558  21.792  1.00  0.00    -0.284 OA
HETATM   14  C1  UNL     1      17.487  34.007  20.507  1.00  0.00     0.237 C 
ENDBRANCH  11  13
BRANCH  10  15
HETATM   15  N2  UNL     1      14.945  37.084  22.938  1.00  0.00    -0.348 N 
ATOM     16  H2  UNL     1      14.428  37.042  23.816  1.00  0.00     0.163 HD
BRANCH  15  17
HETATM   17  C3  UNL     1      14.463  37.864  21.815  1.00  0.00     0.252 C 
BRANCH  17  18
HETATM   18  O2  UNL     1      14.711  37.247  20.612  1.00  0.00    -0.374 OA
ATOM     19  H2  UNL     1      14.709  37.862  19.888  1.00  0.00     0.212 HD
ENDBRANCH  17  18
BRANCH  17  20
HETATM   20  C4  UNL     1      12.989  38.169  21.926  1.00  0.00     0.094 C 
HETATM   21  C5  UNL     1      12.301  37.407  20.798  1.00  0.00     0.050 C 
HETATM   22  C6  UNL     1      12.718  39.656  21.831  1.00  0.00     0.050 C 
BRANCH  20  23
HETATM   23  O3  UNL     1      12.454  37.721  23.132  1.00  0.00    -0.386 OA
ATOM     24  H3  UNL     1      11.996  38.412  23.595  1.00  0.00     0.210 HD
ENDBRANCH  20  23
ENDBRANCH  17  20
ENDBRANCH  15  17
ENDBRANCH  10  15
ENDBRANCH   8  10
ENDBRANCH   6   8
ENDBRANCH   1   6
BRANCH   1  25
HETATM   25  C10 UNL     1      19.558  35.703  24.912  1.00  0.00     0.066 C 
HETATM   26  C11 UNL     1      20.727  35.695  25.451  1.00  0.00     0.105 C 
BRANCH  26  27
HETATM   27  N4  UNL     1      21.982  35.400  24.857  1.00  0.00    -0.285 N 
HETATM   28  C12 UNL     1      22.663  36.424  24.236  1.00  0.00     0.106 A 
HETATM   29  C13 UNL     1      23.880  36.227  23.637  1.00  0.00     0.092 A 
HETATM   30  C14 UNL     1      24.475  34.987  23.632  1.00  0.00     0.250 A 
HETATM   31  O4  UNL     1      25.590  34.796  23.087  1.00  0.00    -0.268 OA
HETATM   32  N5  UNL     1      23.805  34.003  24.236  1.00  0.00    -0.275 N 
HETATM   33  C15 UNL     1      22.585  34.219  24.832  1.00  0.00     0.333 A 
ATOM     34  H5  UNL     1      24.210  33.067  24.257  1.00  0.00     0.173 HD
HETATM   35  O5  UNL     1      22.059  33.219  25.364  1.00  0.00    -0.246 OA
ENDBRANCH  26  27
ENDBRANCH   1  25
TORSDOF 11
ENDMDL
MODEL 5
REMARK VINA RESULT: -8.725697840      3.160      5.382
REMARK  11 active torsions:
REMARK  status: ('A' for Active; 'I' for Inactive)
REMARK    1  A    between atoms: O1_2  and  N1_3 
REMARK    2  A    between atoms: C2_5  and  N2_6 
REMARK    3  A    between atoms: C2_5  and  C7_16 
REMARK    4  A    between atoms: N2_6  and  C3_8 
REMARK    5  A    between atoms: C3_8  and  O2_9 
REMARK    6  A    between atoms: C3_8  and  C4_11 
REMARK    7  A    between atoms: C4_11  and  O3_14 
REMARK    8  A    between atoms: C7_16  and  N3_18 
REMARK    9  A    between atoms: N3_18  and  C9_20 
REMARK   10  A    between atoms: C9_20  and  C10_21 
REMARK   11  A    between atoms: C11_22  and  N4_23 
ROOT
HETATM    1  C9  UNL     1      17.265  35.973  22.325  1.00  0.00     0.111 C 
HETATM    2  N6  UNL     1      17.795  35.167  21.579  1.00  0.00    -0.280 N 
ATOM      3  H6  UNL     1      18.579  34.788  22.111  1.00  0.00     0.179 HD
HETATM    4  C16 UNL     1      17.841  34.557  20.423  1.00  0.00     0.183 C 
HETATM    5  N7  UNL     1      17.901  34.013  19.423  1.00  0.00    -0.172 NA
ENDROOT
BRANCH   1   6
HETATM    6  N3  UNL     1      17.826  36.177  23.671  1.00  0.00    -0.365 N 
ATOM      7  H3  UNL     1      18.013  37.126  23.993  1.00  0.00     0.162 HD
BRANCH   6   8
HETATM    8  C7  UNL     1      18.117  35.076  24.542  1.00  0.00     0.148 C 
HETATM    9  C8  UNL     1      16.836  34.253  24.659  1.00  0.00     0.040 C 
BRANCH   8  10
HETATM   10  C2  UNL     1      18.555  35.560  25.864  1.00  0.00     0.122 C 
HETATM   11  N1  UNL     1      19.557  36.356  25.943  1.00  0.00    -0.253 N 
ATOM     12  H1  UNL     1      19.837  36.676  26.871  1.00  0.00     0.195 HD
BRANCH  11  13
HETATM   13  O1  UNL     1      20.276  36.809  24.875  1.00  0.00    -0.284 OA
HETATM   14  C1  UNL     1      21.671  36.586  24.802  1.00  0.00     0.237 C 
ENDBRANCH  11  13
BRANCH  10  15
HETATM   15  N2  UNL     1      17.900  35.170  27.058  1.00  0.00    -0.348 N 
ATOM     16  H2  UNL     1      16.887  35.059  27.094  1.00  0.00     0.163 HD
BRANCH  15  17
HETATM   17  C3  UNL     1      18.727  34.937  28.226  1.00  0.00     0.252 C 
BRANCH  17  18
HETATM   18  O2  UNL     1      18.015  35.058  29.396  1.00  0.00    -0.374 OA
ATOM     19  H2  UNL     1      18.477  34.682  30.135  1.00  0.00     0.212 HD
ENDBRANCH  17  18
BRANCH  17  20
HETATM   20  C4  UNL     1      19.397  33.585  28.186  1.00  0.00     0.094 C 
HETATM   21  C5  UNL     1      18.347  32.593  27.695  1.00  0.00     0.050 C 
HETATM   22  C6  UNL     1      19.935  33.189  29.545  1.00  0.00     0.050 C 
BRANCH  20  23
HETATM   23  O3  UNL     1      20.462  33.558  27.289  1.00  0.00    -0.386 OA
ATOM     24  H3  UNL     1      21.242  33.178  27.675  1.00  0.00     0.210 HD
ENDBRANCH  20  23
ENDBRANCH  17  20
ENDBRANCH  15  17
ENDBRANCH  10  15
ENDBRANCH   8  10
ENDBRANCH   6   8
ENDBRANCH   1   6
BRANCH   1  25
HETATM   25  C10 UNL     1      16.078  36.807  22.032  1.00  0.00     0.066 C 
HETATM   26  C11 UNL     1      14.902  36.578  22.503  1.00  0.00     0.105 C 
BRANCH  26  27
HETATM   27  N4  UNL     1      13.700  37.303  22.294  1.00  0.00    -0.285 N 
HETATM   28  C12 UNL     1      13.789  38.558  21.734  1.00  0.00     0.106 A 
HETATM   29  C13 UNL     1      12.679  39.327  21.498  1.00  0.00     0.092 A 
HETATM   30  C14 UNL     1      11.420  38.872  21.814  1.00  0.00     0.250 A 
HETATM   31  O4  UNL     1      10.397  39.567  21.601  1.00  0.00    -0.268 OA
HETATM   32  N5  UNL     1      11.347  37.654  22.356  1.00  0.00    -0.275 N 
HETATM   33  C15 UNL     1      12.472  36.896  22.587  1.00  0.00     0.333 A 
ATOM     34  H5  UNL     1      10.434  37.275  22.606  1.00  0.00     0.173 HD
HETATM   35  O5  UNL     1      12.273  35.775  23.098  1.00  0.00    -0.246 OA
ENDBRANCH  26  27
ENDBRANCH   1  25
TORSDOF 11
ENDMDL
