MODEL 1
REMARK VINA RESULT: -7.364830218      0.000      0.000
REMARK  11 active torsions:
REMARK  status: ('A' for Active; 'I' for Inactive)
REMARK    1  A    between atoms: C2_2  and  O1_3 
REMARK    2  A    between atoms: O1_3  and  C3_4 
REMARK    3  A    between atoms: C3_4  and  C4_5 
REMARK    4  A    between atoms: C4_5  and  N1_6 
REMARK    5  A    between atoms: N1_6  and  C5_8 
REMARK    6  A    between atoms: C6_11  and  N3_12 
REMARK    7  A    between atoms: C9_16  and  C10_17 
REMARK    8  A    between atoms: N5_18  and  N6_20 
REMARK    9  A    between atoms: N6_20  and  C11_22 
REMARK   10  A    between atoms: C14_29  and  O2_30 
REMARK   11  A    between atoms: C15_32  and  C16_33 
ROOT
HETATM    1  N3  UNL     1      18.561  33.803  27.341  1.00  0.00    -0.274 N 
HETATM    2  C7  UNL     1      17.487  33.047  26.728  1.00  0.00     0.170 C 
HETATM    3  C8  UNL     1      18.380  34.334  28.631  1.00  0.00     0.185 C 
HETATM    4  N4  UNL     1      18.228  34.765  29.694  1.00  0.00    -0.172 NA
ENDROOT
BRANCH   1   5
HETATM    5  C6  UNL     1      19.804  34.079  26.681  1.00  0.00     0.132 A 
HETATM    6  N2  UNL     1      20.893  33.341  27.056  1.00  0.00    -0.326 N 
HETATM    7  C5  UNL     1      22.121  33.472  26.543  1.00  0.00     0.124 A 
ATOM      8  H2  UNL     1      20.758  32.637  27.781  1.00  0.00     0.169 HD
HETATM    9  C15 UNL     1      22.296  34.444  25.545  1.00  0.00     0.107 A 
HETATM   10  C14 UNL     1      21.243  35.217  25.124  1.00  0.00     0.100 A 
HETATM   11  C9  UNL     1      19.973  35.027  25.708  1.00  0.00     0.060 A 
BRANCH   7  12
HETATM   12  N1  UNL     1      23.111  32.818  26.867  1.00  0.00    -0.353 N 
ATOM     13  H1  UNL     1      23.525  32.467  26.004  1.00  0.00     0.166 HD
BRANCH  12  14
HETATM   14  C4  UNL     1      23.894  32.360  27.894  1.00  0.00     0.088 C 
BRANCH  14  15
HETATM   15  C3  UNL     1      23.253  31.564  28.983  1.00  0.00     0.212 C 
BRANCH  15  16
HETATM   16  O1  UNL     1      24.006  30.434  29.295  1.00  0.00    -0.387 OA
BRANCH  16  17
HETATM   17  C2  UNL     1      24.975  30.114  28.384  1.00  0.00     0.163 C 
HETATM   18  C1  UNL     1      25.834  28.937  28.799  1.00  0.00     0.033 C 
ENDBRANCH  16  17
ENDBRANCH  15  16
ENDBRANCH  14  15
ENDBRANCH  12  14
ENDBRANCH   7  12
BRANCH   9  19
HETATM   19  C16 UNL     1      23.636  34.587  24.984  1.00  0.00     0.271 C 
HETATM   20  N9  UNL     1      23.980  34.004  23.737  1.00  0.00    -0.057 NA
HETATM   21  O3  UNL     1      24.546  35.229  25.573  1.00  0.00    -0.271 OA
ENDBRANCH   9  19
BRANCH  10  22
HETATM   22  O2  UNL     1      21.459  36.150  24.151  1.00  0.00    -0.358 OA
ATOM     23  H2  UNL     1      22.174  36.073  23.530  1.00  0.00     0.217 HD
ENDBRANCH  10  22
BRANCH  11  24
HETATM   24  C10 UNL     1      18.861  35.843  25.265  1.00  0.00     0.125 C 
HETATM   25  N5  UNL     1      18.920  37.115  25.245  1.00  0.00    -0.308 N 
ATOM     26  H5  UNL     1      19.772  37.585  25.548  1.00  0.00     0.186 HD
BRANCH  25  27
HETATM   27  N6  UNL     1      17.842  37.867  24.816  1.00  0.00    -0.272 N 
ATOM     28  H6  UNL     1      17.551  38.681  25.357  1.00  0.00     0.190 HD
BRANCH  27  29
HETATM   29  C11 UNL     1      17.123  37.519  23.618  1.00  0.00     0.190 C 
HETATM   30  N7  UNL     1      17.575  37.634  22.435  1.00  0.00    -0.360 N 
HETATM   31  C12 UNL     1      16.640  37.213  21.430  1.00  0.00     0.142 C 
ATOM     32  H7  UNL     1      18.506  37.991  22.222  1.00  0.00     0.162 HD
HETATM   33  C13 UNL     1      15.353  37.087  22.226  1.00  0.00     0.142 C 
HETATM   34  N8  UNL     1      15.809  37.000  23.599  1.00  0.00    -0.360 N 
ATOM     35  H8  UNL     1      15.284  36.635  24.394  1.00  0.00     0.162 HD
ENDBRANCH  27  29
ENDBRANCH  25  27
ENDBRANCH  11  24
ENDBRANCH   1   5
TORSDOF 11
ENDMDL
MODEL 2
REMARK VINA RESULT: -7.255391343      1.426      1.697
REMARK  11 active torsions:
REMARK  status: ('A' for Active; 'I' for Inactive)
REMARK    1  A    between atoms: C2_2  and  O1_3 
REMARK    2  A    between atoms: O1_3  and  C3_4 
REMARK    3  A    between atoms: C3_4  and  C4_5 
REMARK    4  A    between atoms: C4_5  and  N1_6 
REMARK    5  A    between atoms: N1_6  and  C5_8 
REMARK    6  A    between atoms: C6_11  and  N3_12 
REMARK    7  A    between atoms: C9_16  and  C10_17 
REMARK    8  A    between atoms: N5_18  and  N6_20 
REMARK    9  A    between atoms: N6_20  and  C11_22 
REMARK   10  A    between atoms: C14_29  and  O2_30 
REMARK   11  A    between atoms: C15_32  and  C16_33 
ROOT
HETATM    1  N3  UNL     1      19.009  33.372  27.772  1.00  0.00    -0.274 N 
HETATM    2  C7  UNL     1      18.258  32.187  27.409  1.00  0.00     0.170 C 
HETATM    3  C8  UNL     1      18.629  34.107  28.910  1.00  0.00     0.185 C 
HETATM    4  N4  UNL     1      18.315  34.705  29.850  1.00  0.00    -0.172 NA
ENDROOT
BRANCH   1   5
HETATM    5  C6  UNL     1      20.112  33.871  27.003  1.00  0.00     0.132 A 
HETATM    6  N2  UNL     1      21.362  33.423  27.330  1.00  0.00    -0.326 N 
HETATM    7  C5  UNL     1      22.493  33.787  26.716  1.00  0.00     0.124 A 
ATOM      8  H2  UNL     1      21.438  32.760  28.102  1.00  0.00     0.169 HD
HETATM    9  C15 UNL     1      22.377  34.700  25.655  1.00  0.00     0.107 A 
HETATM   10  C14 UNL     1      21.151  35.187  25.277  1.00  0.00     0.100 A 
HETATM   11  C9  UNL     1      19.998  34.761  25.969  1.00  0.00     0.060 A 
BRANCH   7  12
HETATM   12  N1  UNL     1      23.624  33.395  26.997  1.00  0.00    -0.353 N 
ATOM     13  H1  UNL     1      24.245  34.198  26.898  1.00  0.00     0.166 HD
BRANCH  12  14
HETATM   14  C4  UNL     1      24.406  32.340  27.385  1.00  0.00     0.088 C 
BRANCH  14  15
HETATM   15  C3  UNL     1      24.776  31.311  26.368  1.00  0.00     0.212 C 
BRANCH  15  16
HETATM   16  O1  UNL     1      25.043  31.895  25.131  1.00  0.00    -0.387 OA
BRANCH  16  17
HETATM   17  C2  UNL     1      26.329  32.324  24.958  1.00  0.00     0.163 C 
HETATM   18  C1  UNL     1      27.350  31.204  24.969  1.00  0.00     0.033 C 
ENDBRANCH  16  17
ENDBRANCH  15  16
ENDBRANCH  14  15
ENDBRANCH  12  14
ENDBRANCH   7  12
BRANCH   9  19
HETATM   19  C16 UNL     1      23.611  35.098  24.984  1.00  0.00     0.271 C 
HETATM   20  N9  UNL     1      23.828  34.813  23.611  1.00  0.00    -0.057 NA
HETATM   21  O3  UNL     1      24.535  35.708  25.583  1.00  0.00    -0.271 OA
ENDBRANCH   9  19
BRANCH  10  22
HETATM   22  O2  UNL     1      21.086  36.073  24.240  1.00  0.00    -0.358 OA
ATOM     23  H2  UNL     1      21.857  36.522  23.913  1.00  0.00     0.217 HD
ENDBRANCH  10  22
BRANCH  11  24
HETATM   24  C10 UNL     1      18.703  35.275  25.570  1.00  0.00     0.125 C 
HETATM   25  N5  UNL     1      18.468  36.523  25.482  1.00  0.00    -0.308 N 
ATOM     26  H5  UNL     1      19.207  37.192  25.697  1.00  0.00     0.186 HD
BRANCH  25  27
HETATM   27  N6  UNL     1      17.222  36.984  25.099  1.00  0.00    -0.272 N 
ATOM     28  H6  UNL     1      16.606  37.404  25.795  1.00  0.00     0.190 HD
BRANCH  27  29
HETATM   29  C11 UNL     1      16.779  36.880  23.732  1.00  0.00     0.190 C 
HETATM   30  N7  UNL     1      17.372  37.393  22.731  1.00  0.00    -0.360 N 
HETATM   31  C12 UNL     1      16.707  37.131  21.486  1.00  0.00     0.142 C 
ATOM     32  H7  UNL     1      18.232  37.937  22.806  1.00  0.00     0.162 HD
HETATM   33  C13 UNL     1      15.368  36.586  21.950  1.00  0.00     0.142 C 
HETATM   34  N8  UNL     1      15.619  36.187  23.321  1.00  0.00    -0.360 N 
ATOM     35  H8  UNL     1      15.066  35.536  23.878  1.00  0.00     0.162 HD
ENDBRANCH  27  29
ENDBRANCH  25  27
ENDBRANCH  11  24
ENDBRANCH   1   5
TORSDOF 11
ENDMDL
MODEL 3
REMARK VINA RESULT: -7.138031348      2.695      8.843
REMARK  11 active torsions:
REMARK  status: ('A' for Active; 'I' for Inactive)
REMARK    1  A    between atoms: C2_2  and  O1_3 
REMARK    2  A    between atoms: O1_3  and  C3_4 
REMARK    3  A    between atoms: C3_4  and  C4_5 
REMARK    4  A    between atoms: C4_5  and  N1_6 
REMARK    5  A    between atoms: N1_6  and  C5_8 
REMARK    6  A    between atoms: C6_11  and  N3_12 
REMARK    7  A    between atoms: C9_16  and  C10_17 
REMARK    8  A    between atoms: N5_18  and  N6_20 
REMARK    9  A    between atoms: N6_20  and  C11_22 
REMARK   10  A    between atoms: C14_29  and  O2_30 
REMARK   11  A    between atoms: C15_32  and  C16_33 
ROOT
HETATM    1  N3  UNL     1      23.195  33.511  26.138  1.00  0.00    -0.274 N 
HETATM    2  C7  UNL     1      24.445  34.130  26.526  1.00  0.00     0.170 C 
HETATM    3  C8  UNL     1      23.106  32.858  24.895  1.00  0.00     0.185 C 
HETATM    4  N4  UNL     1      23.040  32.318  23.873  1.00  0.00    -0.172 NA
ENDROOT
BRANCH   1   5
HETATM    5  C6  UNL     1      22.009  33.559  26.943  1.00  0.00     0.132 A 
HETATM    6  N2  UNL     1      20.940  34.254  26.449  1.00  0.00    -0.326 N 
HETATM    7  C5  UNL     1      19.764  34.397  27.070  1.00  0.00     0.124 A 
ATOM      8  H2  UNL     1      21.047  34.696  25.536  1.00  0.00     0.169 HD
HETATM    9  C15 UNL     1      19.627  33.784  28.326  1.00  0.00     0.107 A 
HETATM   10  C14 UNL     1      20.663  33.072  28.878  1.00  0.00     0.100 A 
HETATM   11  C9  UNL     1      21.877  32.961  28.168  1.00  0.00     0.060 A 
BRANCH   7  12
HETATM   12  N1  UNL     1      18.793  35.017  26.641  1.00  0.00    -0.353 N 
ATOM     13  H1  UNL     1      18.071  34.964  27.360  1.00  0.00     0.166 HD
BRANCH  12  14
HETATM   14  C4  UNL     1      18.267  35.748  25.609  1.00  0.00     0.088 C 
BRANCH  14  15
HETATM   15  C3  UNL     1      17.458  35.042  24.571  1.00  0.00     0.212 C 
BRANCH  15  16
HETATM   16  O1  UNL     1      16.496  35.886  24.018  1.00  0.00    -0.387 OA
BRANCH  16  17
HETATM   17  C2  UNL     1      16.859  37.201  23.933  1.00  0.00     0.163 C 
HETATM   18  C1  UNL     1      17.317  37.617  22.549  1.00  0.00     0.033 C 
ENDBRANCH  16  17
ENDBRANCH  15  16
ENDBRANCH  14  15
ENDBRANCH  12  14
ENDBRANCH   7  12
BRANCH   9  19
HETATM   19  C16 UNL     1      18.344  33.939  29.005  1.00  0.00     0.271 C 
HETATM   20  N9  UNL     1      18.256  34.543  30.286  1.00  0.00    -0.057 NA
HETATM   21  O3  UNL     1      17.262  33.549  28.493  1.00  0.00    -0.271 OA
ENDBRANCH   9  19
BRANCH  10  22
HETATM   22  O2  UNL     1      20.485  32.492  30.101  1.00  0.00    -0.358 OA
ATOM     23  H2  UNL     1      20.566  32.987  30.909  1.00  0.00     0.217 HD
ENDBRANCH  10  22
BRANCH  11  24
HETATM   24  C10 UNL     1      22.971  32.210  28.750  1.00  0.00     0.125 C 
HETATM   25  N5  UNL     1      22.789  31.098  29.343  1.00  0.00    -0.308 N 
ATOM     26  H5  UNL     1      21.847  30.714  29.417  1.00  0.00     0.186 HD
BRANCH  25  27
HETATM   27  N6  UNL     1      23.853  30.404  29.888  1.00  0.00    -0.272 N 
ATOM     28  H6  UNL     1      23.682  29.527  30.380  1.00  0.00     0.190 HD
BRANCH  27  29
HETATM   29  C11 UNL     1      25.201  30.900  29.773  1.00  0.00     0.190 C 
HETATM   30  N7  UNL     1      25.784  31.637  30.630  1.00  0.00    -0.360 N 
HETATM   31  C12 UNL     1      27.127  31.982  30.255  1.00  0.00     0.142 C 
ATOM     32  H7  UNL     1      25.343  31.950  31.494  1.00  0.00     0.162 HD
HETATM   33  C13 UNL     1      27.172  31.551  28.800  1.00  0.00     0.142 C 
HETATM   34  N8  UNL     1      26.058  30.630  28.683  1.00  0.00    -0.360 N 
ATOM     35  H8  UNL     1      25.922  29.927  27.957  1.00  0.00     0.162 HD
ENDBRANCH  27  29
ENDBRANCH  25  27
ENDBRANCH  11  24
ENDBRANCH   1   5
TORSDOF 11
ENDMDL
MODEL 4
REMARK VINA RESULT: -7.128057423      1.331      2.076
REMARK  11 active torsions:
REMARK  status: ('A' for Active; 'I' for Inactive)
REMARK    1  A    between atoms: C2_2  and  O1_3 
REMARK    2  A    between atoms: O1_3  and  C3_4 
REMARK    3  A    between atoms: C3_4  and  C4_5 
REMARK    4  A    between atoms: C4_5  and  N1_6 
REMARK    5  A    between atoms: N1_6  and  C5_8 
REMARK    6  A    between atoms: C6_11  and  N3_12 
REMARK    7  A    between atoms: C9_16  and  C10_17 
REMARK    8  A    between atoms: N5_18  and  N6_20 
REMARK    9  A    between atoms: N6_20  and  C11_22 
REMARK   10  A    between atoms: C14_29  and  O2_30 
REMARK   11  A    between atoms: C15_32  and  C16_33 
ROOT
HETATM    1  N3  UNL     1      18.486  33.701  27.531  1.00  0.00    -0.274 N 
HETATM    2  C7  UNL     1      17.458  32.819  27.018  1.00  0.00     0.170 C 
HETATM    3  C8  UNL     1      18.346  34.247  28.820  1.00  0.00     0.185 C 
HETATM    4  N4  UNL     1      18.228  34.688  29.884  1.00  0.00    -0.172 NA
ENDROOT
BRANCH   1   5
HETATM    5  C6  UNL     1      19.639  34.090  26.772  1.00  0.00     0.132 A 
HETATM    6  N2  UNL     1      20.829  33.493  27.084  1.00  0.00    -0.326 N 
HETATM    7  C5  UNL     1      21.995  33.741  26.477  1.00  0.00     0.124 A 
ATOM      8  H2  UNL     1      20.828  32.806  27.838  1.00  0.00     0.169 HD
HETATM    9  C15 UNL     1      21.986  34.689  25.441  1.00  0.00     0.107 A 
HETATM   10  C14 UNL     1      20.824  35.324  25.079  1.00  0.00     0.100 A 
HETATM   11  C9  UNL     1      19.629  35.015  25.762  1.00  0.00     0.060 A 
BRANCH   7  12
HETATM   12  N1  UNL     1      23.073  33.215  26.744  1.00  0.00    -0.353 N 
ATOM     13  H1  UNL     1      23.721  33.481  26.003  1.00  0.00     0.166 HD
BRANCH  12  14
HETATM   14  C4  UNL     1      23.776  32.422  27.613  1.00  0.00     0.088 C 
BRANCH  14  15
HETATM   15  C3  UNL     1      25.238  32.672  27.788  1.00  0.00     0.212 C 
BRANCH  15  16
HETATM   16  O1  UNL     1      25.634  33.839  27.136  1.00  0.00    -0.387 OA
BRANCH  16  17
HETATM   17  C2  UNL     1      26.362  34.709  27.899  1.00  0.00     0.163 C 
HETATM   18  C1  UNL     1      25.820  36.124  27.891  1.00  0.00     0.033 C 
ENDBRANCH  16  17
ENDBRANCH  15  16
ENDBRANCH  14  15
ENDBRANCH  12  14
ENDBRANCH   7  12
BRANCH   9  19
HETATM   19  C16 UNL     1      23.257  34.960  24.777  1.00  0.00     0.271 C 
HETATM   20  N9  UNL     1      23.814  34.044  23.847  1.00  0.00    -0.057 NA
HETATM   21  O3  UNL     1      23.918  36.010  24.994  1.00  0.00    -0.271 OA
ENDBRANCH   9  19
BRANCH  10  22
HETATM   22  O2  UNL     1      20.861  36.239  24.066  1.00  0.00    -0.358 OA
ATOM     23  H2  UNL     1      21.678  36.615  23.758  1.00  0.00     0.217 HD
ENDBRANCH  10  22
BRANCH  11  24
HETATM   24  C10 UNL     1      18.402  35.685  25.381  1.00  0.00     0.125 C 
HETATM   25  N5  UNL     1      18.353  36.939  25.167  1.00  0.00    -0.308 N 
ATOM     26  H5  UNL     1      19.200  37.500  25.263  1.00  0.00     0.186 HD
BRANCH  25  27
HETATM   27  N6  UNL     1      17.168  37.550  24.804  1.00  0.00    -0.272 N 
ATOM     28  H6  UNL     1      16.673  38.129  25.482  1.00  0.00     0.190 HD
BRANCH  27  29
HETATM   29  C11 UNL     1      16.620  37.383  23.483  1.00  0.00     0.190 C 
HETATM   30  N7  UNL     1      15.389  37.202  23.219  1.00  0.00    -0.360 N 
HETATM   31  C12 UNL     1      15.126  37.065  21.814  1.00  0.00     0.142 C 
ATOM     32  H7  UNL     1      14.662  37.159  23.934  1.00  0.00     0.162 HD
HETATM   33  C13 UNL     1      16.523  36.888  21.246  1.00  0.00     0.142 C 
HETATM   34  N8  UNL     1      17.385  37.397  22.295  1.00  0.00    -0.360 N 
ATOM     35  H8  UNL     1      18.352  37.704  22.194  1.00  0.00     0.162 HD
ENDBRANCH  27  29
ENDBRANCH  25  27
ENDBRANCH  11  24
ENDBRANCH   1   5
TORSDOF 11
ENDMDL
MODEL 5
REMARK VINA RESULT: -7.036539849      0.486      1.064
REMARK  11 active torsions:
REMARK  status: ('A' for Active; 'I' for Inactive)
REMARK    1  A    between atoms: C2_2  and  O1_3 
REMARK    2  A    between atoms: O1_3  and  C3_4 
REMARK    3  A    between atoms: C3_4  and  C4_5 
REMARK    4  A    between atoms: C4_5  and  N1_6 
REMARK    5  A    between atoms: N1_6  and  C5_8 
REMARK    6  A    between atoms: C6_11  and  N3_12 
REMARK    7  A    between atoms: C9_16  and  C10_17 
REMARK    8  A    between atoms: N5_18  and  N6_20 
REMARK    9  A    between atoms: N6_20  and  C11_22 
REMARK   10  A    between atoms: C14_29  and  O2_30 
REMARK   11  A    between atoms: C15_32  and  C16_33 
ROOT
HETATM    1  N3  UNL     1      18.549  34.040  27.361  1.00  0.00    -0.274 N 
HETATM    2  C7  UNL     1      18.291  34.532  28.699  1.00  0.00     0.170 C 
HETATM    3  C8  UNL     1      17.553  33.303  26.694  1.00  0.00     0.185 C 
HETATM    4  N4  UNL     1      16.729  32.702  26.148  1.00  0.00    -0.172 NA
ENDROOT
BRANCH   1   5
HETATM    5  C6  UNL     1      19.797  34.228  26.681  1.00  0.00     0.132 A 
HETATM    6  N2  UNL     1      20.859  33.471  27.092  1.00  0.00    -0.326 N 
HETATM    7  C5  UNL     1      22.088  33.523  26.567  1.00  0.00     0.124 A 
ATOM      8  H2  UNL     1      20.702  32.816  27.858  1.00  0.00     0.169 HD
HETATM    9  C15 UNL     1      22.294  34.428  25.513  1.00  0.00     0.107 A 
HETATM   10  C14 UNL     1      21.268  35.217  25.053  1.00  0.00     0.100 A 
HETATM   11  C9  UNL     1      19.996  35.111  25.653  1.00  0.00     0.060 A 
BRANCH   7  12
HETATM   12  N1  UNL     1      23.054  32.851  26.924  1.00  0.00    -0.353 N 
ATOM     13  H1  UNL     1      23.446  32.431  26.081  1.00  0.00     0.166 HD
BRANCH  12  14
HETATM   14  C4  UNL     1      23.827  32.425  27.971  1.00  0.00     0.088 C 
BRANCH  14  15
HETATM   15  C3  UNL     1      23.196  31.583  29.031  1.00  0.00     0.212 C 
BRANCH  15  16
HETATM   16  O1  UNL     1      23.806  30.333  29.113  1.00  0.00    -0.387 OA
BRANCH  16  17
HETATM   17  C2  UNL     1      24.947  30.194  28.373  1.00  0.00     0.163 C 
HETATM   18  C1  UNL     1      25.817  29.033  28.809  1.00  0.00     0.033 C 
ENDBRANCH  16  17
ENDBRANCH  15  16
ENDBRANCH  14  15
ENDBRANCH  12  14
ENDBRANCH   7  12
BRANCH   9  19
HETATM   19  C16 UNL     1      23.634  34.486  24.939  1.00  0.00     0.271 C 
HETATM   20  N9  UNL     1      23.943  33.829  23.719  1.00  0.00    -0.057 NA
HETATM   21  O3  UNL     1      24.575  35.115  25.490  1.00  0.00    -0.271 OA
ENDBRANCH   9  19
BRANCH  10  22
HETATM   22  O2  UNL     1      21.514  36.083  24.026  1.00  0.00    -0.358 OA
ATOM     23  H2  UNL     1      21.192  35.923  23.146  1.00  0.00     0.217 HD
ENDBRANCH  10  22
BRANCH  11  24
HETATM   24  C10 UNL     1      18.914  35.944  25.169  1.00  0.00     0.125 C 
HETATM   25  N5  UNL     1      18.956  37.214  25.233  1.00  0.00    -0.308 N 
ATOM     26  H5  UNL     1      19.773  37.672  25.636  1.00  0.00     0.186 HD
BRANCH  25  27
HETATM   27  N6  UNL     1      17.907  37.982  24.762  1.00  0.00    -0.272 N 
ATOM     28  H6  UNL     1      17.657  38.843  25.248  1.00  0.00     0.190 HD
BRANCH  27  29
HETATM   29  C11 UNL     1      17.161  37.586  23.595  1.00  0.00     0.190 C 
HETATM   30  N7  UNL     1      17.587  37.651  22.399  1.00  0.00    -0.360 N 
HETATM   31  C12 UNL     1      16.630  37.189  21.433  1.00  0.00     0.142 C 
ATOM     32  H7  UNL     1      18.514  37.996  22.151  1.00  0.00     0.162 HD
HETATM   33  C13 UNL     1      15.361  37.099  22.262  1.00  0.00     0.142 C 
HETATM   34  N8  UNL     1      15.847  37.068  23.627  1.00  0.00    -0.360 N 
ATOM     35  H8  UNL     1      15.340  36.738  24.448  1.00  0.00     0.162 HD
ENDBRANCH  27  29
ENDBRANCH  25  27
ENDBRANCH  11  24
ENDBRANCH   1   5
TORSDOF 11
ENDMDL
