MODEL 1
REMARK VINA RESULT: -6.495677799      0.000      0.000
REMARK  11 active torsions:
REMARK  status: ('A' for Active; 'I' for Inactive)
REMARK    1  A    between atoms: O1_2  and  C2_3 
REMARK    2  A    between atoms: C5_6  and  O2_7 
REMARK    3  A    between atoms: C8_11  and  O3_12 
REMARK    4  A    between atoms: C9_14  and  C10_15 
REMARK    5  A    between atoms: C9_14  and  C11_18 
REMARK    6  A    between atoms: C10_15  and  O4_16 
REMARK    7  A    between atoms: C11_18  and  O5_19 
REMARK    8  A    between atoms: O5_19  and  N1_20 
REMARK    9  A    between atoms: N1_20  and  S1_22 
REMARK   10  A    between atoms: S1_22  and  C12_25 
REMARK   11  A    between atoms: C12_25  and  N2_26 
ROOT
HETATM    1  C2  UNL     1      22.462  33.844  25.273  1.00  0.00     0.110 A 
HETATM    2  C3  UNL     1      23.188  33.317  26.313  1.00  0.00     0.008 A 
HETATM    3  C4  UNL     1      24.644  33.050  26.147  1.00  0.00     0.054 C 
HETATM    4  C5  UNL     1      22.570  33.031  27.524  1.00  0.00     0.089 A 
HETATM    5  C6  UNL     1      21.219  33.258  27.738  1.00  0.00     0.062 A 
HETATM    6  C7  UNL     1      20.494  33.788  26.695  1.00  0.00     0.016 A 
HETATM    7  C8  UNL     1      21.117  34.075  25.476  1.00  0.00     0.108 A 
HETATM    8  C9  UNL     1      19.094  33.976  27.134  1.00  0.00     0.104 A 
HETATM    9  C13 UNL     1      19.012  33.427  28.501  1.00  0.00     0.217 A 
HETATM   10  O8  UNL     1      17.968  33.343  29.183  1.00  0.00    -0.287 OA
HETATM   11  C14 UNL     1      20.343  33.019  28.883  1.00  0.00     0.232 A 
HETATM   12  O9  UNL     1      20.639  32.545  30.020  1.00  0.00    -0.283 OA
ENDROOT
BRANCH   8  13
HETATM   13  C10 UNL     1      18.145  33.164  26.284  1.00  0.00     0.189 C 
BRANCH  13  14
HETATM   14  O4  UNL     1      16.888  33.732  26.384  1.00  0.00    -0.399 OA
ATOM     15  H4  UNL     1      16.248  33.030  26.408  1.00  0.00     0.209 HD
ENDBRANCH  13  14
ENDBRANCH   8  13
BRANCH   8  16
HETATM   16  C11 UNL     1      18.675  35.417  27.248  1.00  0.00     0.227 C 
BRANCH  16  17
HETATM   17  O5  UNL     1      18.778  36.167  26.122  1.00  0.00    -0.269 OA
BRANCH  17  18
HETATM   18  N1  UNL     1      17.644  36.561  25.571  1.00  0.00    -0.191 N 
ATOM     19  H1  UNL     1      16.907  36.995  26.128  1.00  0.00     0.207 HD
BRANCH  18  20
HETATM   20  S1  UNL     1      17.458  36.320  23.907  1.00  0.00     0.273 S 
HETATM   21  O6  UNL     1      17.390  34.859  23.554  1.00  0.00    -0.202 OA
HETATM   22  O7  UNL     1      18.712  36.842  23.217  1.00  0.00    -0.202 OA
BRANCH  20  23
HETATM   23  C12 UNL     1      16.067  37.174  23.218  1.00  0.00     0.393 C 
BRANCH  23  24
HETATM   24  N2  UNL     1      14.998  36.230  22.947  1.00  0.00    -0.065 N 
ATOM     25  H23 UNL     1      15.326  35.420  22.420  1.00  0.00     0.275 HD
ATOM     26  H22 UNL     1      14.693  35.743  23.790  1.00  0.00     0.275 HD
ATOM     27  H21 UNL     1      14.228  36.707  22.479  1.00  0.00     0.275 HD
ENDBRANCH  23  24
ENDBRANCH  20  23
ENDBRANCH  18  20
ENDBRANCH  17  18
ENDBRANCH  16  17
ENDBRANCH   8  16
BRANCH   7  28
HETATM   28  O3  UNL     1      20.401  34.604  24.417  1.00  0.00    -0.357 OA
ATOM     29  H3  UNL     1      19.648  34.111  24.114  1.00  0.00     0.217 HD
ENDBRANCH   7  28
BRANCH   4  30
HETATM   30  O2  UNL     1      23.325  32.500  28.558  1.00  0.00    -0.359 OA
ATOM     31  H2  UNL     1      22.924  31.872  29.148  1.00  0.00     0.217 HD
ENDBRANCH   4  30
BRANCH   1  32
HETATM   32  O1  UNL     1      23.073  34.138  24.043  1.00  0.00    -0.352 OA
HETATM   33  C1  UNL     1      23.551  35.456  23.872  1.00  0.00     0.210 C 
ENDBRANCH   1  32
TORSDOF 11
ENDMDL
MODEL 2
REMARK VINA RESULT: -6.476479941      1.172      1.341
REMARK  11 active torsions:
REMARK  status: ('A' for Active; 'I' for Inactive)
REMARK    1  A    between atoms: O1_2  and  C2_3 
REMARK    2  A    between atoms: C5_6  and  O2_7 
REMARK    3  A    between atoms: C8_11  and  O3_12 
REMARK    4  A    between atoms: C9_14  and  C10_15 
REMARK    5  A    between atoms: C9_14  and  C11_18 
REMARK    6  A    between atoms: C10_15  and  O4_16 
REMARK    7  A    between atoms: C11_18  and  O5_19 
REMARK    8  A    between atoms: O5_19  and  N1_20 
REMARK    9  A    between atoms: N1_20  and  S1_22 
REMARK   10  A    between atoms: S1_22  and  C12_25 
REMARK   11  A    between atoms: C12_25  and  N2_26 
ROOT
HETATM    1  C2  UNL     1      22.548  33.336  25.979  1.00  0.00     0.110 A 
HETATM    2  C3  UNL     1      22.967  32.845  27.191  1.00  0.00     0.008 A 
HETATM    3  C4  UNL     1      24.366  32.362  27.356  1.00  0.00     0.054 C 
HETATM    4  C5  UNL     1      22.090  32.795  28.267  1.00  0.00     0.089 A 
HETATM    5  C6  UNL     1      20.777  33.231  28.174  1.00  0.00     0.062 A 
HETATM    6  C7  UNL     1      20.359  33.724  26.959  1.00  0.00     0.016 A 
HETATM    7  C8  UNL     1      21.243  33.772  25.875  1.00  0.00     0.108 A 
HETATM    8  C9  UNL     1      18.950  34.154  27.079  1.00  0.00     0.104 A 
HETATM    9  C13 UNL     1      18.521  33.792  28.443  1.00  0.00     0.217 A 
HETATM   10  O8  UNL     1      17.365  33.935  28.898  1.00  0.00    -0.287 OA
HETATM   11  C14 UNL     1      19.671  33.255  29.129  1.00  0.00     0.232 A 
HETATM   12  O9  UNL     1      19.664  32.886  30.341  1.00  0.00    -0.283 OA
ENDROOT
BRANCH   8  13
HETATM   13  C10 UNL     1      18.064  33.383  26.128  1.00  0.00     0.189 C 
BRANCH  13  14
HETATM   14  O4  UNL     1      16.874  34.076  25.994  1.00  0.00    -0.399 OA
ATOM     15  H4  UNL     1      16.179  33.539  26.357  1.00  0.00     0.209 HD
ENDBRANCH  13  14
ENDBRANCH   8  13
BRANCH   8  16
HETATM   16  C11 UNL     1      18.750  35.642  26.970  1.00  0.00     0.227 C 
BRANCH  16  17
HETATM   17  O5  UNL     1      18.807  36.171  25.722  1.00  0.00    -0.269 OA
BRANCH  17  18
HETATM   18  N1  UNL     1      17.788  36.927  25.356  1.00  0.00    -0.191 N 
ATOM     19  H1  UNL     1      17.243  37.449  26.042  1.00  0.00     0.207 HD
BRANCH  18  20
HETATM   20  S1  UNL     1      17.420  36.998  23.707  1.00  0.00     0.273 S 
HETATM   21  O6  UNL     1      18.023  38.207  23.047  1.00  0.00    -0.202 OA
HETATM   22  O7  UNL     1      15.913  37.177  23.572  1.00  0.00    -0.202 OA
BRANCH  20  23
HETATM   23  C12 UNL     1      17.872  35.535  22.815  1.00  0.00     0.393 C 
BRANCH  23  24
HETATM   24  N2  UNL     1      16.810  34.551  22.918  1.00  0.00    -0.065 N 
ATOM     25  H23 UNL     1      16.621  34.095  22.026  1.00  0.00     0.275 HD
ATOM     26  H22 UNL     1      17.100  33.728  23.446  1.00  0.00     0.275 HD
ATOM     27  H21 UNL     1      15.976  34.985  23.312  1.00  0.00     0.275 HD
ENDBRANCH  23  24
ENDBRANCH  20  23
ENDBRANCH  18  20
ENDBRANCH  17  18
ENDBRANCH  16  17
ENDBRANCH   8  16
BRANCH   7  28
HETATM   28  O3  UNL     1      20.836  34.262  24.647  1.00  0.00    -0.357 OA
ATOM     29  H3  UNL     1      20.351  35.079  24.645  1.00  0.00     0.217 HD
ENDBRANCH   7  28
BRANCH   4  30
HETATM   30  O2  UNL     1      22.539  32.295  29.480  1.00  0.00    -0.359 OA
ATOM     31  H2  UNL     1      23.465  32.111  29.589  1.00  0.00     0.217 HD
ENDBRANCH   4  30
BRANCH   1  32
HETATM   32  O1  UNL     1      23.421  33.392  24.881  1.00  0.00    -0.352 OA
HETATM   33  C1  UNL     1      24.086  34.619  24.662  1.00  0.00     0.210 C 
ENDBRANCH   1  32
TORSDOF 11
ENDMDL
MODEL 3
REMARK VINA RESULT: -6.462015209      1.672      4.172
REMARK  11 active torsions:
REMARK  status: ('A' for Active; 'I' for Inactive)
REMARK    1  A    between atoms: O1_2  and  C2_3 
REMARK    2  A    between atoms: C5_6  and  O2_7 
REMARK    3  A    between atoms: C8_11  and  O3_12 
REMARK    4  A    between atoms: C9_14  and  C10_15 
REMARK    5  A    between atoms: C9_14  and  C11_18 
REMARK    6  A    between atoms: C10_15  and  O4_16 
REMARK    7  A    between atoms: C11_18  and  O5_19 
REMARK    8  A    between atoms: O5_19  and  N1_20 
REMARK    9  A    between atoms: N1_20  and  S1_22 
REMARK   10  A    between atoms: S1_22  and  C12_25 
REMARK   11  A    between atoms: C12_25  and  N2_26 
ROOT
HETATM    1  C2  UNL     1      19.464  33.930  27.917  1.00  0.00     0.110 A 
HETATM    2  C3  UNL     1      20.581  33.165  28.152  1.00  0.00     0.008 A 
HETATM    3  C4  UNL     1      20.563  32.130  29.224  1.00  0.00     0.054 C 
HETATM    4  C5  UNL     1      21.729  33.351  27.394  1.00  0.00     0.089 A 
HETATM    5  C6  UNL     1      21.805  34.297  26.383  1.00  0.00     0.062 A 
HETATM    6  C7  UNL     1      20.685  35.062  26.147  1.00  0.00     0.016 A 
HETATM    7  C8  UNL     1      19.529  34.874  26.913  1.00  0.00     0.108 A 
HETATM    8  C9  UNL     1      20.963  35.982  25.024  1.00  0.00     0.104 A 
HETATM    9  C13 UNL     1      22.378  35.775  24.661  1.00  0.00     0.217 A 
HETATM   10  O8  UNL     1      23.003  36.425  23.795  1.00  0.00    -0.287 OA
HETATM   11  C14 UNL     1      22.883  34.702  25.483  1.00  0.00     0.232 A 
HETATM   12  O9  UNL     1      24.057  34.235  25.395  1.00  0.00    -0.283 OA
ENDROOT
BRANCH   8  13
HETATM   13  C10 UNL     1      20.834  37.424  25.458  1.00  0.00     0.189 C 
BRANCH  13  14
HETATM   14  O4  UNL     1      19.582  37.874  25.080  1.00  0.00    -0.399 OA
ATOM     15  H4  UNL     1      19.245  38.425  25.776  1.00  0.00     0.209 HD
ENDBRANCH  13  14
ENDBRANCH   8  13
BRANCH   8  16
HETATM   16  C11 UNL     1      20.175  35.684  23.777  1.00  0.00     0.227 C 
BRANCH  16  17
HETATM   17  O5  UNL     1      18.849  35.449  23.942  1.00  0.00    -0.269 OA
BRANCH  17  18
HETATM   18  N1  UNL     1      18.064  35.769  22.929  1.00  0.00    -0.191 N 
ATOM     19  H1  UNL     1      18.055  35.217  22.071  1.00  0.00     0.207 HD
BRANCH  18  20
HETATM   20  S1  UNL     1      17.073  37.128  23.107  1.00  0.00     0.273 S 
HETATM   21  O6  UNL     1      17.808  38.404  22.801  1.00  0.00    -0.202 OA
HETATM   22  O7  UNL     1      16.681  37.231  24.575  1.00  0.00    -0.202 OA
BRANCH  20  23
HETATM   23  C12 UNL     1      15.581  37.047  22.154  1.00  0.00     0.393 C 
BRANCH  23  24
HETATM   24  N2  UNL     1      14.681  36.070  22.737  1.00  0.00    -0.065 N 
ATOM     25  H23 UNL     1      15.155  35.195  22.958  1.00  0.00     0.275 HD
ATOM     26  H22 UNL     1      14.396  36.327  23.682  1.00  0.00     0.275 HD
ATOM     27  H21 UNL     1      13.880  35.928  22.120  1.00  0.00     0.275 HD
ENDBRANCH  23  24
ENDBRANCH  20  23
ENDBRANCH  18  20
ENDBRANCH  17  18
ENDBRANCH  16  17
ENDBRANCH   8  16
BRANCH   7  28
HETATM   28  O3  UNL     1      18.396  35.638  26.691  1.00  0.00    -0.357 OA
ATOM     29  H3  UNL     1      17.603  35.175  26.448  1.00  0.00     0.217 HD
ENDBRANCH   7  28
BRANCH   4  30
HETATM   30  O2  UNL     1      22.842  32.565  27.651  1.00  0.00    -0.359 OA
ATOM     31  H2  UNL     1      23.682  32.986  27.791  1.00  0.00     0.217 HD
ENDBRANCH   4  30
BRANCH   1  32
HETATM   32  O1  UNL     1      18.296  33.754  28.675  1.00  0.00    -0.352 OA
HETATM   33  C1  UNL     1      18.278  34.346  29.958  1.00  0.00     0.210 C 
ENDBRANCH   1  32
TORSDOF 11
ENDMDL
MODEL 4
REMARK VINA RESULT: -5.954525582      2.085      3.133
REMARK  11 active torsions:
REMARK  status: ('A' for Active; 'I' for Inactive)
REMARK    1  A    between atoms: O1_2  and  C2_3 
REMARK    2  A    between atoms: C5_6  and  O2_7 
REMARK    3  A    between atoms: C8_11  and  O3_12 
REMARK    4  A    between atoms: C9_14  and  C10_15 
REMARK    5  A    between atoms: C9_14  and  C11_18 
REMARK    6  A    between atoms: C10_15  and  O4_16 
REMARK    7  A    between atoms: C11_18  and  O5_19 
REMARK    8  A    between atoms: O5_19  and  N1_20 
REMARK    9  A    between atoms: N1_20  and  S1_22 
REMARK   10  A    between atoms: S1_22  and  C12_25 
REMARK   11  A    between atoms: C12_25  and  N2_26 
ROOT
HETATM    1  C2  UNL     1      21.782  34.753  25.768  1.00  0.00     0.110 A 
HETATM    2  C3  UNL     1      21.436  33.867  26.759  1.00  0.00     0.008 A 
HETATM    3  C4  UNL     1      22.484  33.301  27.653  1.00  0.00     0.054 C 
HETATM    4  C5  UNL     1      20.109  33.495  26.933  1.00  0.00     0.089 A 
HETATM    5  C6  UNL     1      19.089  33.988  26.133  1.00  0.00     0.062 A 
HETATM    6  C7  UNL     1      19.438  34.877  25.142  1.00  0.00     0.016 A 
HETATM    7  C8  UNL     1      20.776  35.250  24.967  1.00  0.00     0.108 A 
HETATM    8  C9  UNL     1      18.215  35.299  24.427  1.00  0.00     0.104 A 
HETATM    9  C13 UNL     1      17.106  34.517  25.009  1.00  0.00     0.217 A 
HETATM   10  O8  UNL     1      15.920  34.546  24.616  1.00  0.00    -0.287 OA
HETATM   11  C14 UNL     1      17.651  33.735  26.092  1.00  0.00     0.232 A 
HETATM   12  O9  UNL     1      16.959  32.983  26.839  1.00  0.00    -0.283 OA
ENDROOT
BRANCH   8  13
HETATM   13  C10 UNL     1      18.285  34.927  22.964  1.00  0.00     0.189 C 
BRANCH  13  14
HETATM   14  O4  UNL     1      16.995  34.711  22.515  1.00  0.00    -0.399 OA
ATOM     15  H4  UNL     1      16.805  33.784  22.599  1.00  0.00     0.209 HD
ENDBRANCH  13  14
ENDBRANCH   8  13
BRANCH   8  16
HETATM   16  C11 UNL     1      17.849  36.743  24.636  1.00  0.00     0.227 C 
BRANCH  16  17
HETATM   17  O5  UNL     1      17.219  37.363  23.606  1.00  0.00    -0.269 OA
BRANCH  17  18
HETATM   18  N1  UNL     1      15.904  37.453  23.688  1.00  0.00    -0.191 N 
ATOM     19  H1  UNL     1      15.439  37.614  24.582  1.00  0.00     0.207 HD
BRANCH  18  20
HETATM   20  S1  UNL     1      15.018  37.292  22.256  1.00  0.00     0.273 S 
HETATM   21  O6  UNL     1      14.459  35.906  22.093  1.00  0.00    -0.202 OA
HETATM   22  O7  UNL     1      15.980  37.479  21.089  1.00  0.00    -0.202 OA
BRANCH  20  23
HETATM   23  C12 UNL     1      13.723  38.490  22.086  1.00  0.00     0.393 C 
BRANCH  23  24
HETATM   24  N2  UNL     1      12.513  37.995  22.714  1.00  0.00    -0.065 N 
ATOM     25  H23 UNL     1      12.678  37.138  23.243  1.00  0.00     0.275 HD
ATOM     26  H22 UNL     1      12.212  38.588  23.487  1.00  0.00     0.275 HD
ATOM     27  H21 UNL     1      11.783  37.878  22.012  1.00  0.00     0.275 HD
ENDBRANCH  23  24
ENDBRANCH  20  23
ENDBRANCH  18  20
ENDBRANCH  17  18
ENDBRANCH  16  17
ENDBRANCH   8  16
BRANCH   7  28
HETATM   28  O3  UNL     1      21.142  36.140  23.972  1.00  0.00    -0.357 OA
ATOM     29  H3  UNL     1      20.508  36.804  23.729  1.00  0.00     0.217 HD
ENDBRANCH   7  28
BRANCH   4  30
HETATM   30  O2  UNL     1      19.786  32.599  27.942  1.00  0.00    -0.359 OA
ATOM     31  H2  UNL     1      19.370  31.777  27.713  1.00  0.00     0.217 HD
ENDBRANCH   4  30
BRANCH   1  32
HETATM   32  O1  UNL     1      23.119  35.138  25.579  1.00  0.00    -0.352 OA
HETATM   33  C1  UNL     1      23.851  34.427  24.603  1.00  0.00     0.210 C 
ENDBRANCH   1  32
TORSDOF 11
ENDMDL
MODEL 5
REMARK VINA RESULT: -5.469637524      3.825      6.497
REMARK  11 active torsions:
REMARK  status: ('A' for Active; 'I' for Inactive)
REMARK    1  A    between atoms: O1_2  and  C2_3 
REMARK    2  A    between atoms: C5_6  and  O2_7 
REMARK    3  A    between atoms: C8_11  and  O3_12 
REMARK    4  A    between atoms: C9_14  and  C10_15 
REMARK    5  A    between atoms: C9_14  and  C11_18 
REMARK    6  A    between atoms: C10_15  and  O4_16 
REMARK    7  A    between atoms: C11_18  and  O5_19 
REMARK    8  A    between atoms: O5_19  and  N1_20 
REMARK    9  A    between atoms: N1_20  and  S1_22 
REMARK   10  A    between atoms: S1_22  and  C12_25 
REMARK   11  A    between atoms: C12_25  and  N2_26 
ROOT
HETATM    1  C2  UNL     1      17.680  34.285  25.957  1.00  0.00     0.110 A 
HETATM    2  C3  UNL     1      18.501  35.340  26.275  1.00  0.00     0.008 A 
HETATM    3  C4  UNL     1      19.208  35.366  27.585  1.00  0.00     0.054 C 
HETATM    4  C5  UNL     1      18.676  36.385  25.377  1.00  0.00     0.089 A 
HETATM    5  C6  UNL     1      18.045  36.415  24.142  1.00  0.00     0.062 A 
HETATM    6  C7  UNL     1      17.224  35.356  23.826  1.00  0.00     0.016 A 
HETATM    7  C8  UNL     1      17.048  34.305  24.732  1.00  0.00     0.108 A 
HETATM    8  C9  UNL     1      16.674  35.568  22.470  1.00  0.00     0.104 A 
HETATM    9  C13 UNL     1      17.157  36.891  22.029  1.00  0.00     0.217 A 
HETATM   10  O8  UNL     1      16.846  37.452  20.956  1.00  0.00    -0.287 OA
HETATM   11  C14 UNL     1      18.038  37.393  23.056  1.00  0.00     0.232 A 
HETATM   12  O9  UNL     1      18.665  38.490  22.976  1.00  0.00    -0.283 OA
ENDROOT
BRANCH   8  13
HETATM   13  C10 UNL     1      15.166  35.647  22.501  1.00  0.00     0.189 C 
BRANCH  13  14
HETATM   14  O4  UNL     1      14.811  36.919  22.910  1.00  0.00    -0.399 OA
ATOM     15  H4  UNL     1      13.962  37.123  22.537  1.00  0.00     0.209 HD
ENDBRANCH  13  14
ENDBRANCH   8  13
BRANCH   8  16
HETATM   16  C11 UNL     1      17.177  34.588  21.444  1.00  0.00     0.227 C 
BRANCH  16  17
HETATM   17  O5  UNL     1      16.390  34.394  20.356  1.00  0.00    -0.269 OA
BRANCH  17  18
HETATM   18  N1  UNL     1      16.114  33.140  20.045  1.00  0.00    -0.191 N 
ATOM     19  H1  UNL     1      15.684  32.510  20.722  1.00  0.00     0.207 HD
BRANCH  18  20
HETATM   20  S1  UNL     1      16.498  32.619  18.483  1.00  0.00     0.273 S 
HETATM   21  O6  UNL     1      17.941  32.209  18.366  1.00  0.00    -0.202 OA
HETATM   22  O7  UNL     1      16.340  33.807  17.542  1.00  0.00    -0.202 OA
BRANCH  20  23
HETATM   23  C12 UNL     1      15.451  31.318  17.892  1.00  0.00     0.393 C 
BRANCH  23  24
HETATM   24  N2  UNL     1      15.803  30.990  16.523  1.00  0.00    -0.065 N 
ATOM     25  H23 UNL     1      15.876  31.820  15.936  1.00  0.00     0.275 HD
ATOM     26  H22 UNL     1      16.767  30.667  16.442  1.00  0.00     0.275 HD
ATOM     27  H21 UNL     1      15.138  30.312  16.149  1.00  0.00     0.275 HD
ENDBRANCH  23  24
ENDBRANCH  20  23
ENDBRANCH  18  20
ENDBRANCH  17  18
ENDBRANCH  16  17
ENDBRANCH   8  16
BRANCH   7  28
HETATM   28  O3  UNL     1      16.223  33.235  24.429  1.00  0.00    -0.357 OA
ATOM     29  H3  UNL     1      16.635  32.385  24.331  1.00  0.00     0.217 HD
ENDBRANCH   7  28
BRANCH   4  30
HETATM   30  O2  UNL     1      19.510  37.437  25.721  1.00  0.00    -0.359 OA
ATOM     31  H2  UNL     1      19.221  38.328  25.560  1.00  0.00     0.217 HD
ENDBRANCH   4  30
BRANCH   1  32
HETATM   32  O1  UNL     1      17.493  33.221  26.855  1.00  0.00    -0.352 OA
HETATM   33  C1  UNL     1      18.525  32.259  26.922  1.00  0.00     0.210 C 
ENDBRANCH   1  32
TORSDOF 11
ENDMDL
