MODEL 1
REMARK VINA RESULT: -9.043989063      0.000      0.000
REMARK  10 active torsions:
REMARK  status: ('A' for Active; 'I' for Inactive)
REMARK    1  A    between atoms: C2_2  and  C3_3 
REMARK    2  A    between atoms: C3_3  and  O2_5 
REMARK    3  A    between atoms: O2_5  and  N1_6 
REMARK    4  A    between atoms: C4_8  and  N2_9 
REMARK    5  A    between atoms: C4_8  and  C9_20 
REMARK       I    between atoms: N2_9  and  C5_11 
REMARK    6  A    between atoms: C5_11  and  C6_13 
REMARK    7  A    between atoms: C9_20  and  C14_34 
REMARK    8  A    between atoms: N5_21  and  O4_23 
REMARK    9  A    between atoms: O4_23  and  C10_24 
REMARK   10  A    between atoms: C12_28  and  O5_29 
ROOT
HETATM    1  N1  UNL     1      17.140  34.691  21.771  1.00  0.00    -0.239 N 
ATOM      2  H1  UNL     1      18.045  34.226  21.845  1.00  0.00     0.196 HD
HETATM    3  C4  UNL     1      16.735  35.533  22.704  1.00  0.00     0.163 C 
ENDROOT
BRANCH   3   4
HETATM    4  N2  UNL     1      15.489  36.123  22.526  1.00  0.00    -0.304 N 
HETATM    5  C5  UNL     1      14.983  37.128  21.704  1.00  0.00     0.275 C 
HETATM    6  O3  UNL     1      15.620  37.783  20.857  1.00  0.00    -0.266 OA
ATOM      7  H2  UNL     1      14.778  35.726  23.140  1.00  0.00     0.171 HD
BRANCH   5   8
HETATM    8  C6  UNL     1      13.537  37.471  21.832  1.00  0.00     0.117 A 
HETATM    9  C7  UNL     1      12.895  38.380  21.057  1.00  0.00     0.124 A 
HETATM   10  N3  UNL     1      11.605  38.403  21.482  1.00  0.00    -0.360 N 
HETATM   11  C8  UNL     1      11.488  37.528  22.484  1.00  0.00     0.180 A 
ATOM     12  H3  UNL     1      10.859  38.986  21.102  1.00  0.00     0.166 HD
HETATM   13  N4  UNL     1      12.668  36.938  22.721  1.00  0.00    -0.347 N 
ATOM     14  H4  UNL     1      12.869  36.231  23.428  1.00  0.00     0.167 HD
ENDBRANCH   5   8
ENDBRANCH   3   4
BRANCH   3  15
HETATM   15  C9  UNL     1      17.648  35.725  23.785  1.00  0.00     0.165 C 
HETATM   16  N5  UNL     1      18.334  34.782  24.283  1.00  0.00    -0.249 N 
ATOM     17  H5  UNL     1      18.236  33.840  23.904  1.00  0.00     0.195 HD
BRANCH  16  18
HETATM   18  O4  UNL     1      19.195  35.000  25.313  1.00  0.00    -0.201 OA
BRANCH  18  19
HETATM   19  C10 UNL     1      18.842  34.572  26.589  1.00  0.00     0.239 C 
HETATM   20  N6  UNL     1      18.588  35.460  27.485  1.00  0.00    -0.352 N 
HETATM   21  C11 UNL     1      18.221  34.998  28.809  1.00  0.00     0.156 C 
ATOM     22  H6  UNL     1      18.643  36.455  27.271  1.00  0.00     0.163 HD
HETATM   23  C12 UNL     1      19.174  33.907  29.236  1.00  0.00     0.153 C 
HETATM   24  C13 UNL     1      18.951  32.717  28.298  1.00  0.00     0.156 C 
HETATM   25  N7  UNL     1      18.749  33.209  26.948  1.00  0.00    -0.352 N 
ATOM     26  H7  UNL     1      18.528  32.533  26.217  1.00  0.00     0.163 HD
BRANCH  23  27
HETATM   27  O5  UNL     1      18.906  33.476  30.522  1.00  0.00    -0.392 OA
ATOM     28  H5  UNL     1      19.636  32.987  30.884  1.00  0.00     0.210 HD
ENDBRANCH  23  27
ENDBRANCH  18  19
ENDBRANCH  16  18
BRANCH  15  29
HETATM   29  C14 UNL     1      17.800  37.090  24.350  1.00  0.00     0.287 C 
HETATM   30  N8  UNL     1      19.019  37.764  24.488  1.00  0.00    -0.056 NA
HETATM   31  O6  UNL     1      16.747  37.683  24.737  1.00  0.00    -0.269 OA
ENDBRANCH  15  29
ENDBRANCH   3  15
BRANCH   1  32
HETATM   32  O2  UNL     1      16.319  34.455  20.704  1.00  0.00    -0.194 OA
BRANCH  32  33
HETATM   33  C3  UNL     1      16.883  33.811  19.593  1.00  0.00     0.303 C 
HETATM   34  O1  UNL     1      18.080  34.013  19.270  1.00  0.00    -0.258 OA
BRANCH  33  35
HETATM   35  C2  UNL     1      16.096  32.893  18.787  1.00  0.00     0.074 C 
HETATM   36  C1  UNL     1      16.538  32.513  17.608  1.00  0.00     0.017 C 
ENDBRANCH  33  35
ENDBRANCH  32  33
ENDBRANCH   1  32
TORSDOF 10
ENDMDL
MODEL 2
REMARK VINA RESULT: -8.772392036      1.086      1.296
REMARK  10 active torsions:
REMARK  status: ('A' for Active; 'I' for Inactive)
REMARK    1  A    between atoms: C2_2  and  C3_3 
REMARK    2  A    between atoms: C3_3  and  O2_5 
REMARK    3  A    between atoms: O2_5  and  N1_6 
REMARK    4  A    between atoms: C4_8  and  N2_9 
REMARK    5  A    between atoms: C4_8  and  C9_20 
REMARK       I    between atoms: N2_9  and  C5_11 
REMARK    6  A    between atoms: C5_11  and  C6_13 
REMARK    7  A    between atoms: C9_20  and  C14_34 
REMARK    8  A    between atoms: N5_21  and  O4_23 
REMARK    9  A    between atoms: O4_23  and  C10_24 
REMARK   10  A    between atoms: C12_28  and  O5_29 
ROOT
HETATM    1  N1  UNL     1      17.100  34.685  22.127  1.00  0.00    -0.239 N 
ATOM      2  H1  UNL     1      17.994  34.212  22.263  1.00  0.00     0.196 HD
HETATM    3  C4  UNL     1      16.665  35.570  23.006  1.00  0.00     0.163 C 
ENDROOT
BRANCH   3   4
HETATM    4  N2  UNL     1      15.438  36.168  22.744  1.00  0.00    -0.304 N 
HETATM    5  C5  UNL     1      14.976  37.110  21.826  1.00  0.00     0.275 C 
HETATM    6  O3  UNL     1      15.650  37.676  20.943  1.00  0.00    -0.266 OA
ATOM      7  H2  UNL     1      14.703  35.841  23.371  1.00  0.00     0.171 HD
BRANCH   5   8
HETATM    8  C6  UNL     1      13.536  37.493  21.885  1.00  0.00     0.117 A 
HETATM    9  C7  UNL     1      12.919  38.290  20.978  1.00  0.00     0.124 A 
HETATM   10  N3  UNL     1      11.626  38.397  21.379  1.00  0.00    -0.360 N 
HETATM   11  C8  UNL     1      11.482  37.681  22.497  1.00  0.00     0.180 A 
ATOM     12  H3  UNL     1      10.894  38.931  20.910  1.00  0.00     0.166 HD
HETATM   13  N4  UNL     1      12.649  37.112  22.832  1.00  0.00    -0.347 N 
ATOM     14  H4  UNL     1      12.831  36.514  23.638  1.00  0.00     0.167 HD
ENDBRANCH   5   8
ENDBRANCH   3   4
BRANCH   3  15
HETATM   15  C9  UNL     1      17.528  35.794  24.121  1.00  0.00     0.165 C 
HETATM   16  N5  UNL     1      17.629  34.979  25.087  1.00  0.00    -0.249 N 
ATOM     17  H5  UNL     1      17.073  34.123  25.079  1.00  0.00     0.195 HD
BRANCH  16  18
HETATM   18  O4  UNL     1      18.462  35.223  26.135  1.00  0.00    -0.201 OA
BRANCH  18  19
HETATM   19  C10 UNL     1      19.175  34.164  26.689  1.00  0.00     0.239 C 
HETATM   20  N6  UNL     1      18.541  33.314  27.419  1.00  0.00    -0.352 N 
HETATM   21  C11 UNL     1      19.296  32.217  27.989  1.00  0.00     0.156 C 
ATOM     22  H6  UNL     1      17.540  33.410  27.592  1.00  0.00     0.163 HD
HETATM   23  C12 UNL     1      20.575  32.752  28.589  1.00  0.00     0.153 C 
HETATM   24  C13 UNL     1      21.424  33.294  27.434  1.00  0.00     0.156 C 
HETATM   25  N7  UNL     1      20.560  33.976  26.489  1.00  0.00    -0.352 N 
ATOM     26  H7  UNL     1      20.976  34.340  25.632  1.00  0.00     0.163 HD
BRANCH  23  27
HETATM   27  O5  UNL     1      21.304  31.752  29.204  1.00  0.00    -0.392 OA
ATOM     28  H5  UNL     1      21.268  30.941  28.709  1.00  0.00     0.210 HD
ENDBRANCH  23  27
ENDBRANCH  18  19
ENDBRANCH  16  18
BRANCH  15  29
HETATM   29  C14 UNL     1      18.342  37.035  24.149  1.00  0.00     0.287 C 
HETATM   30  N8  UNL     1      19.729  37.074  24.333  1.00  0.00    -0.056 NA
HETATM   31  O6  UNL     1      17.732  38.137  23.997  1.00  0.00    -0.269 OA
ENDBRANCH  15  29
ENDBRANCH   3  15
BRANCH   1  32
HETATM   32  O2  UNL     1      16.328  34.417  21.032  1.00  0.00    -0.194 OA
BRANCH  32  33
HETATM   33  C3  UNL     1      16.992  34.009  19.865  1.00  0.00     0.303 C 
HETATM   34  O1  UNL     1      18.193  34.317  19.667  1.00  0.00    -0.258 OA
BRANCH  33  35
HETATM   35  C2  UNL     1      16.304  33.220  18.857  1.00  0.00     0.074 C 
HETATM   36  C1  UNL     1      16.994  32.436  18.058  1.00  0.00     0.017 C 
ENDBRANCH  33  35
ENDBRANCH  32  33
ENDBRANCH   1  32
TORSDOF 10
ENDMDL
MODEL 3
REMARK VINA RESULT: -8.531814373      2.590      8.195
REMARK  10 active torsions:
REMARK  status: ('A' for Active; 'I' for Inactive)
REMARK    1  A    between atoms: C2_2  and  C3_3 
REMARK    2  A    between atoms: C3_3  and  O2_5 
REMARK    3  A    between atoms: O2_5  and  N1_6 
REMARK    4  A    between atoms: C4_8  and  N2_9 
REMARK    5  A    between atoms: C4_8  and  C9_20 
REMARK       I    between atoms: N2_9  and  C5_11 
REMARK    6  A    between atoms: C5_11  and  C6_13 
REMARK    7  A    between atoms: C9_20  and  C14_34 
REMARK    8  A    between atoms: N5_21  and  O4_23 
REMARK    9  A    between atoms: O4_23  and  C10_24 
REMARK   10  A    between atoms: C12_28  and  O5_29 
ROOT
HETATM    1  N1  UNL     1      16.903  34.765  24.128  1.00  0.00    -0.239 N 
ATOM      2  H1  UNL     1      15.965  34.504  23.822  1.00  0.00     0.196 HD
HETATM    3  C4  UNL     1      17.814  35.154  23.255  1.00  0.00     0.163 C 
ENDROOT
BRANCH   3   4
HETATM    4  N2  UNL     1      19.066  35.491  23.757  1.00  0.00    -0.304 N 
HETATM    5  C5  UNL     1      19.597  36.596  24.419  1.00  0.00     0.275 C 
HETATM    6  O3  UNL     1      18.985  37.634  24.737  1.00  0.00    -0.266 OA
ATOM      7  H2  UNL     1      19.758  34.757  23.605  1.00  0.00     0.171 HD
BRANCH   5   8
HETATM    8  C6  UNL     1      21.040  36.555  24.796  1.00  0.00     0.117 A 
HETATM    9  C7  UNL     1      21.823  35.452  24.703  1.00  0.00     0.124 A 
HETATM   10  N3  UNL     1      23.057  35.820  25.136  1.00  0.00    -0.360 N 
HETATM   11  C8  UNL     1      23.004  37.110  25.476  1.00  0.00     0.180 A 
ATOM     12  H3  UNL     1      23.878  35.218  25.191  1.00  0.00     0.166 HD
HETATM   13  N4  UNL     1      21.768  37.589  25.276  1.00  0.00    -0.347 N 
ATOM     14  H4  UNL     1      21.442  38.539  25.451  1.00  0.00     0.167 HD
ENDBRANCH   5   8
ENDBRANCH   3   4
BRANCH   3  15
HETATM   15  C9  UNL     1      17.381  35.175  21.895  1.00  0.00     0.165 C 
HETATM   16  N5  UNL     1      17.771  34.328  21.035  1.00  0.00    -0.249 N 
ATOM     17  H5  UNL     1      18.423  33.595  21.316  1.00  0.00     0.195 HD
BRANCH  16  18
HETATM   18  O4  UNL     1      17.338  34.377  19.747  1.00  0.00    -0.201 OA
BRANCH  18  19
HETATM   19  C10 UNL     1      17.143  33.185  19.056  1.00  0.00     0.239 C 
HETATM   20  N6  UNL     1      18.177  32.499  18.713  1.00  0.00    -0.352 N 
HETATM   21  C11 UNL     1      17.958  31.260  17.995  1.00  0.00     0.156 C 
ATOM     22  H6  UNL     1      19.119  32.818  18.940  1.00  0.00     0.163 HD
HETATM   23  C12 UNL     1      16.949  31.494  16.896  1.00  0.00     0.153 C 
HETATM   24  C13 UNL     1      15.615  31.832  17.571  1.00  0.00     0.156 C 
HETATM   25  N7  UNL     1      15.866  32.691  18.712  1.00  0.00    -0.352 N 
ATOM     26  H7  UNL     1      15.074  32.953  19.300  1.00  0.00     0.163 HD
BRANCH  23  27
HETATM   27  O5  UNL     1      16.752  30.355  16.138  1.00  0.00    -0.392 OA
ATOM     28  H5  UNL     1      15.959  29.899  16.394  1.00  0.00     0.210 HD
ENDBRANCH  23  27
ENDBRANCH  18  19
ENDBRANCH  16  18
BRANCH  15  29
HETATM   29  C14 UNL     1      16.434  36.237  21.469  1.00  0.00     0.287 C 
HETATM   30  N8  UNL     1      15.044  36.174  21.626  1.00  0.00    -0.056 NA
HETATM   31  O6  UNL     1      16.923  37.272  20.924  1.00  0.00    -0.269 OA
ENDBRANCH  15  29
ENDBRANCH   3  15
BRANCH   1  32
HETATM   32  O2  UNL     1      17.243  34.718  25.451  1.00  0.00    -0.194 OA
BRANCH  32  33
HETATM   33  C3  UNL     1      17.145  33.475  26.094  1.00  0.00     0.303 C 
HETATM   34  O1  UNL     1      16.320  32.612  25.704  1.00  0.00    -0.258 OA
BRANCH  33  35
HETATM   35  C2  UNL     1      17.996  33.156  27.228  1.00  0.00     0.074 C 
HETATM   36  C1  UNL     1      18.698  32.044  27.226  1.00  0.00     0.017 C 
ENDBRANCH  33  35
ENDBRANCH  32  33
ENDBRANCH   1  32
TORSDOF 10
ENDMDL
MODEL 4
REMARK VINA RESULT: -8.498170516      1.990      2.615
REMARK  10 active torsions:
REMARK  status: ('A' for Active; 'I' for Inactive)
REMARK    1  A    between atoms: C2_2  and  C3_3 
REMARK    2  A    between atoms: C3_3  and  O2_5 
REMARK    3  A    between atoms: O2_5  and  N1_6 
REMARK    4  A    between atoms: C4_8  and  N2_9 
REMARK    5  A    between atoms: C4_8  and  C9_20 
REMARK       I    between atoms: N2_9  and  C5_11 
REMARK    6  A    between atoms: C5_11  and  C6_13 
REMARK    7  A    between atoms: C9_20  and  C14_34 
REMARK    8  A    between atoms: N5_21  and  O4_23 
REMARK    9  A    between atoms: O4_23  and  C10_24 
REMARK   10  A    between atoms: C12_28  and  O5_29 
ROOT
HETATM    1  N1  UNL     1      17.233  34.695  22.092  1.00  0.00    -0.239 N 
ATOM      2  H1  UNL     1      18.142  34.235  22.151  1.00  0.00     0.196 HD
HETATM    3  C4  UNL     1      16.862  35.577  23.002  1.00  0.00     0.163 C 
ENDROOT
BRANCH   3   4
HETATM    4  N2  UNL     1      15.608  36.156  22.846  1.00  0.00    -0.304 N 
HETATM    5  C5  UNL     1      15.048  37.070  21.956  1.00  0.00     0.275 C 
HETATM    6  O3  UNL     1      15.626  37.622  20.999  1.00  0.00    -0.266 OA
ATOM      7  H2  UNL     1      14.941  35.837  23.549  1.00  0.00     0.171 HD
BRANCH   5   8
HETATM    8  C6  UNL     1      13.616  37.440  22.146  1.00  0.00     0.117 A 
HETATM    9  C7  UNL     1      13.079  38.632  21.785  1.00  0.00     0.124 A 
HETATM   10  N3  UNL     1      11.764  38.577  22.120  1.00  0.00    -0.360 N 
HETATM   11  C8  UNL     1      11.530  37.382  22.666  1.00  0.00     0.180 A 
ATOM     12  H3  UNL     1      11.078  39.319  21.980  1.00  0.00     0.166 HD
HETATM   13  N4  UNL     1      12.658  36.659  22.695  1.00  0.00    -0.347 N 
ATOM     14  H4  UNL     1      12.771  35.712  23.057  1.00  0.00     0.167 HD
ENDBRANCH   5   8
ENDBRANCH   3   4
BRANCH   3  15
HETATM   15  C9  UNL     1      17.816  35.819  24.036  1.00  0.00     0.165 C 
HETATM   16  N5  UNL     1      18.432  34.886  24.636  1.00  0.00    -0.249 N 
ATOM     17  H5  UNL     1      18.246  33.917  24.377  1.00  0.00     0.195 HD
BRANCH  16  18
HETATM   18  O4  UNL     1      19.336  35.152  25.617  1.00  0.00    -0.201 OA
BRANCH  18  19
HETATM   19  C10 UNL     1      20.653  34.732  25.452  1.00  0.00     0.239 C 
HETATM   20  N6  UNL     1      21.320  35.186  24.449  1.00  0.00    -0.352 N 
HETATM   21  C11 UNL     1      22.689  34.739  24.291  1.00  0.00     0.156 C 
ATOM     22  H6  UNL     1      20.899  35.838  23.788  1.00  0.00     0.163 HD
HETATM   23  C12 UNL     1      22.748  33.241  24.478  1.00  0.00     0.153 C 
HETATM   24  C13 UNL     1      22.376  32.952  25.936  1.00  0.00     0.156 C 
HETATM   25  N7  UNL     1      21.291  33.831  26.332  1.00  0.00    -0.352 N 
ATOM     26  H7  UNL     1      20.973  33.796  27.300  1.00  0.00     0.163 HD
BRANCH  23  27
HETATM   27  O5  UNL     1      24.026  32.756  24.273  1.00  0.00    -0.392 OA
ATOM     28  H5  UNL     1      24.023  32.007  23.688  1.00  0.00     0.210 HD
ENDBRANCH  23  27
ENDBRANCH  18  19
ENDBRANCH  16  18
BRANCH  15  29
HETATM   29  C14 UNL     1      18.098  37.223  24.426  1.00  0.00     0.287 C 
HETATM   30  N8  UNL     1      19.376  37.792  24.487  1.00  0.00    -0.056 NA
HETATM   31  O6  UNL     1      17.108  37.957  24.726  1.00  0.00    -0.269 OA
ENDBRANCH  15  29
ENDBRANCH   3  15
BRANCH   1  32
HETATM   32  O2  UNL     1      16.372  34.410  21.070  1.00  0.00    -0.194 OA
BRANCH  32  33
HETATM   33  C3  UNL     1      16.936  34.006  19.851  1.00  0.00     0.303 C 
HETATM   34  O1  UNL     1      18.113  34.324  19.549  1.00  0.00    -0.258 OA
BRANCH  33  35
HETATM   35  C2  UNL     1      16.172  33.209  18.906  1.00  0.00     0.074 C 
HETATM   36  C1  UNL     1      16.799  32.483  18.006  1.00  0.00     0.017 C 
ENDBRANCH  33  35
ENDBRANCH  32  33
ENDBRANCH   1  32
TORSDOF 10
ENDMDL
MODEL 5
REMARK VINA RESULT: -8.480219164      2.257      2.981
REMARK  10 active torsions:
REMARK  status: ('A' for Active; 'I' for Inactive)
REMARK    1  A    between atoms: C2_2  and  C3_3 
REMARK    2  A    between atoms: C3_3  and  O2_5 
REMARK    3  A    between atoms: O2_5  and  N1_6 
REMARK    4  A    between atoms: C4_8  and  N2_9 
REMARK    5  A    between atoms: C4_8  and  C9_20 
REMARK       I    between atoms: N2_9  and  C5_11 
REMARK    6  A    between atoms: C5_11  and  C6_13 
REMARK    7  A    between atoms: C9_20  and  C14_34 
REMARK    8  A    between atoms: N5_21  and  O4_23 
REMARK    9  A    between atoms: O4_23  and  C10_24 
REMARK   10  A    between atoms: C12_28  and  O5_29 
ROOT
HETATM    1  N1  UNL     1      17.471  34.447  22.046  1.00  0.00    -0.239 N 
ATOM      2  H1  UNL     1      18.362  33.952  22.094  1.00  0.00     0.196 HD
HETATM    3  C4  UNL     1      17.147  35.346  22.957  1.00  0.00     0.163 C 
ENDROOT
BRANCH   3   4
HETATM    4  N2  UNL     1      15.915  35.973  22.817  1.00  0.00    -0.304 N 
HETATM    5  C5  UNL     1      15.389  36.932  21.953  1.00  0.00     0.275 C 
HETATM    6  O3  UNL     1      15.989  37.492  21.016  1.00  0.00    -0.266 OA
ATOM      7  H2  UNL     1      15.235  35.655  23.508  1.00  0.00     0.171 HD
BRANCH   5   8
HETATM    8  C6  UNL     1      13.969  37.345  22.151  1.00  0.00     0.117 A 
HETATM    9  C7  UNL     1      13.486  38.580  21.868  1.00  0.00     0.124 A 
HETATM   10  N3  UNL     1      12.165  38.555  22.183  1.00  0.00    -0.360 N 
HETATM   11  C8  UNL     1      11.875  37.335  22.642  1.00  0.00     0.180 A 
ATOM     12  H3  UNL     1      11.510  39.332  22.087  1.00  0.00     0.166 HD
HETATM   13  N4  UNL     1      12.974  36.567  22.633  1.00  0.00    -0.347 N 
ATOM     14  H4  UNL     1      13.044  35.593  22.929  1.00  0.00     0.167 HD
ENDBRANCH   5   8
ENDBRANCH   3   4
BRANCH   3  15
HETATM   15  C9  UNL     1      18.124  35.554  23.977  1.00  0.00     0.165 C 
HETATM   16  N5  UNL     1      19.206  36.185  23.775  1.00  0.00    -0.249 N 
ATOM     17  H5  UNL     1      19.398  36.563  22.848  1.00  0.00     0.195 HD
BRANCH  16  18
HETATM   18  O4  UNL     1      20.116  36.366  24.771  1.00  0.00    -0.201 OA
BRANCH  18  19
HETATM   19  C10 UNL     1      21.196  35.493  24.863  1.00  0.00     0.239 C 
HETATM   20  N6  UNL     1      22.151  35.608  24.008  1.00  0.00    -0.352 N 
HETATM   21  C11 UNL     1      23.269  34.692  24.118  1.00  0.00     0.156 C 
ATOM     22  H6  UNL     1      22.122  36.319  23.278  1.00  0.00     0.163 HD
HETATM   23  C12 UNL     1      22.745  33.289  24.313  1.00  0.00     0.153 C 
HETATM   24  C13 UNL     1      22.037  33.255  25.671  1.00  0.00     0.156 C 
HETATM   25  N7  UNL     1      21.294  34.488  25.850  1.00  0.00    -0.352 N 
ATOM     26  H7  UNL     1      20.816  34.637  26.739  1.00  0.00     0.163 HD
BRANCH  23  27
HETATM   27  O5  UNL     1      23.773  32.366  24.358  1.00  0.00    -0.392 OA
ATOM     28  H5  UNL     1      23.749  31.782  23.610  1.00  0.00     0.210 HD
ENDBRANCH  23  27
ENDBRANCH  18  19
ENDBRANCH  16  18
BRANCH  15  29
HETATM   29  C14 UNL     1      17.861  35.008  25.332  1.00  0.00     0.287 C 
HETATM   30  N8  UNL     1      18.222  35.639  26.529  1.00  0.00    -0.056 NA
HETATM   31  O6  UNL     1      17.268  33.889  25.407  1.00  0.00    -0.269 OA
ENDBRANCH  15  29
ENDBRANCH   3  15
BRANCH   1  32
HETATM   32  O2  UNL     1      16.585  34.192  21.037  1.00  0.00    -0.194 OA
BRANCH  32  33
HETATM   33  C3  UNL     1      17.121  33.884  19.777  1.00  0.00     0.303 C 
HETATM   34  O1  UNL     1      18.311  34.169  19.496  1.00  0.00    -0.258 OA
BRANCH  33  35
HETATM   35  C2  UNL     1      16.311  33.226  18.766  1.00  0.00     0.074 C 
HETATM   36  C1  UNL     1      16.871  32.383  17.925  1.00  0.00     0.017 C 
ENDBRANCH  33  35
ENDBRANCH  32  33
ENDBRANCH   1  32
TORSDOF 10
ENDMDL
