MODEL 1
REMARK VINA RESULT: -7.905412018      0.000      0.000
REMARK  9 active torsions:
REMARK  status: ('A' for Active; 'I' for Inactive)
REMARK    1  A    between atoms: O1_2  and  C2_3 
REMARK    2  A    between atoms: C2_3  and  C5_6 
REMARK       I    between atoms: C5_6  and  N1_8 
REMARK    3  A    between atoms: N1_8  and  C6_10 
REMARK    4  A    between atoms: C6_10  and  C7_11 
REMARK    5  A    between atoms: C6_10  and  C9_24 
REMARK       I    between atoms: C7_11  and  N2_13 
REMARK       I    between atoms: N2_13  and  C8_15 
REMARK       I    between atoms: C8_15  and  N3_16 
REMARK       I    between atoms: C8_15  and  N4_20 
REMARK    6  A    between atoms: C9_24  and  N5_25 
REMARK    7  A    between atoms: C9_24  and  C10_29 
REMARK    8  A    between atoms: C10_29  and  O5_31 
REMARK    9  A    between atoms: O5_31  and  C11_32 
ROOT
HETATM    1  C6  UNL     1      15.632  37.077  22.667  1.00  0.00     0.217 C 
ENDROOT
BRANCH   1   2
HETATM    2  N1  UNL     1      14.252  36.767  22.519  1.00  0.00    -0.343 N 
HETATM    3  C5  UNL     1      13.324  37.806  22.218  1.00  0.00     0.252 C 
HETATM    4  O2  UNL     1      13.751  38.987  22.088  1.00  0.00    -0.270 OA
ATOM      5  H1  UNL     1      13.928  35.805  22.627  1.00  0.00     0.163 HD
BRANCH   3   6
HETATM    6  C2  UNL     1      11.869  37.528  22.055  1.00  0.00     0.133 C 
HETATM    7  C3  UNL     1      11.523  36.457  23.091  1.00  0.00     0.056 C 
HETATM    8  C4  UNL     1      11.125  38.793  22.390  1.00  0.00     0.056 C 
BRANCH   6   9
HETATM    9  O1  UNL     1      11.652  37.080  20.770  1.00  0.00    -0.376 OA
HETATM   10  C1  UNL     1      11.488  38.116  19.861  1.00  0.00     0.203 C 
ENDBRANCH   6   9
ENDBRANCH   3   6
ENDBRANCH   1   2
BRANCH   1  11
HETATM   11  C7  UNL     1      16.436  36.576  21.509  1.00  0.00     0.245 C 
HETATM   12  O3  UNL     1      16.968  37.407  20.751  1.00  0.00    -0.271 OA
HETATM   13  N2  UNL     1      16.602  35.192  21.260  1.00  0.00    -0.310 N 
HETATM   14  C8  UNL     1      17.381  34.720  20.137  1.00  0.00     0.482 C 
ATOM     15  H2  UNL     1      16.163  34.516  21.884  1.00  0.00     0.166 HD
HETATM   16  N3  UNL     1      16.541  33.967  19.200  1.00  0.00    -0.033 N 
HETATM   17  N4  UNL     1      18.498  33.915  20.591  1.00  0.00    -0.033 N 
ATOM     18  H33 UNL     1      16.048  33.204  19.664  1.00  0.00     0.278 HD
ATOM     19  H32 UNL     1      15.733  34.511  18.897  1.00  0.00     0.278 HD
ATOM     20  H31 UNL     1      17.090  33.634  18.408  1.00  0.00     0.278 HD
ATOM     21  H43 UNL     1      19.074  34.416  21.268  1.00  0.00     0.278 HD
ATOM     22  H42 UNL     1      18.192  33.148  21.189  1.00  0.00     0.278 HD
ATOM     23  H41 UNL     1      19.047  33.582  19.799  1.00  0.00     0.278 HD
ENDBRANCH   1  11
BRANCH   1  24
HETATM   24  C9  UNL     1      16.236  36.536  23.940  1.00  0.00     0.314 C 
BRANCH  24  25
HETATM   25  N5  UNL     1      15.959  35.119  24.015  1.00  0.00    -0.063 N 
ATOM     26  H53 UNL     1      16.693  34.554  23.589  1.00  0.00     0.275 HD
ATOM     27  H52 UNL     1      16.035  34.755  24.965  1.00  0.00     0.275 HD
ATOM     28  H51 UNL     1      15.043  34.945  23.602  1.00  0.00     0.275 HD
ENDBRANCH  24  25
BRANCH  24  29
HETATM   29  C10 UNL     1      17.689  36.821  24.033  1.00  0.00     0.298 C 
HETATM   30  O4  UNL     1      18.039  37.994  24.323  1.00  0.00    -0.262 OA
BRANCH  29  31
HETATM   31  O5  UNL     1      18.663  35.886  23.823  1.00  0.00    -0.270 OA
BRANCH  31  32
HETATM   32  C11 UNL     1      19.432  35.383  24.922  1.00  0.00     0.123 C 
HETATM   33  C12 UNL     1      20.693  35.130  24.788  1.00  0.00     0.030 C 
HETATM   34  C13 UNL     1      21.483  34.618  25.909  1.00  0.00     0.117 C 
HETATM   35  S1  UNL     1      20.383  33.723  27.050  1.00  0.00    -0.087 SA
HETATM   36  S2  UNL     1      18.742  35.062  26.548  1.00  0.00    -0.032 SA
ENDBRANCH  31  32
ENDBRANCH  29  31
ENDBRANCH  24  29
ENDBRANCH   1  24
TORSDOF 9
ENDMDL
MODEL 2
REMARK VINA RESULT: -7.859725478      4.159      6.947
REMARK  9 active torsions:
REMARK  status: ('A' for Active; 'I' for Inactive)
REMARK    1  A    between atoms: O1_2  and  C2_3 
REMARK    2  A    between atoms: C2_3  and  C5_6 
REMARK       I    between atoms: C5_6  and  N1_8 
REMARK    3  A    between atoms: N1_8  and  C6_10 
REMARK    4  A    between atoms: C6_10  and  C7_11 
REMARK    5  A    between atoms: C6_10  and  C9_24 
REMARK       I    between atoms: C7_11  and  N2_13 
REMARK       I    between atoms: N2_13  and  C8_15 
REMARK       I    between atoms: C8_15  and  N3_16 
REMARK       I    between atoms: C8_15  and  N4_20 
REMARK    6  A    between atoms: C9_24  and  N5_25 
REMARK    7  A    between atoms: C9_24  and  C10_29 
REMARK    8  A    between atoms: C10_29  and  O5_31 
REMARK    9  A    between atoms: O5_31  and  C11_32 
ROOT
HETATM    1  C6  UNL     1      19.110  35.851  25.399  1.00  0.00     0.217 C 
ENDROOT
BRANCH   1   2
HETATM    2  N1  UNL     1      19.549  34.728  26.153  1.00  0.00    -0.343 N 
HETATM    3  C5  UNL     1      19.184  34.615  27.526  1.00  0.00     0.252 C 
HETATM    4  O2  UNL     1      18.472  35.520  28.045  1.00  0.00    -0.270 OA
ATOM      5  H1  UNL     1      20.123  34.008  25.714  1.00  0.00     0.163 HD
BRANCH   3   6
HETATM    6  C2  UNL     1      19.620  33.457  28.356  1.00  0.00     0.133 C 
HETATM    7  C3  UNL     1      19.022  33.682  29.747  1.00  0.00     0.056 C 
HETATM    8  C4  UNL     1      19.015  32.215  27.758  1.00  0.00     0.056 C 
BRANCH   6   9
HETATM    9  O1  UNL     1      20.998  33.442  28.394  1.00  0.00    -0.376 OA
HETATM   10  C1  UNL     1      21.505  32.276  28.950  1.00  0.00     0.203 C 
ENDBRANCH   6   9
ENDBRANCH   3   6
ENDBRANCH   1   2
BRANCH   1  11
HETATM   11  C7  UNL     1      18.146  35.451  24.328  1.00  0.00     0.245 C 
HETATM   12  O3  UNL     1      17.156  34.766  24.645  1.00  0.00    -0.271 OA
HETATM   13  N2  UNL     1      18.334  35.829  22.977  1.00  0.00    -0.310 N 
HETATM   14  C8  UNL     1      17.394  35.435  21.950  1.00  0.00     0.482 C 
ATOM     15  H2  UNL     1      19.147  36.389  22.722  1.00  0.00     0.166 HD
HETATM   16  N3  UNL     1      18.041  34.571  20.957  1.00  0.00    -0.033 N 
HETATM   17  N4  UNL     1      16.810  36.601  21.317  1.00  0.00    -0.033 N 
ATOM     18  H33 UNL     1      18.873  35.008  20.560  1.00  0.00     0.278 HD
ATOM     19  H32 UNL     1      18.485  33.762  21.393  1.00  0.00     0.278 HD
ATOM     20  H31 UNL     1      17.379  34.293  20.233  1.00  0.00     0.278 HD
ATOM     21  H43 UNL     1      16.383  37.228  22.000  1.00  0.00     0.278 HD
ATOM     22  H42 UNL     1      17.523  37.233  20.954  1.00  0.00     0.278 HD
ATOM     23  H41 UNL     1      16.147  36.323  20.593  1.00  0.00     0.278 HD
ENDBRANCH   1  11
BRANCH   1  24
HETATM   24  C9  UNL     1      20.239  36.626  24.763  1.00  0.00     0.314 C 
BRANCH  24  25
HETATM   25  N5  UNL     1      20.287  37.942  25.361  1.00  0.00    -0.063 N 
ATOM     26  H53 UNL     1      20.254  38.688  24.667  1.00  0.00     0.275 HD
ATOM     27  H52 UNL     1      19.430  38.176  25.860  1.00  0.00     0.275 HD
ATOM     28  H51 UNL     1      21.114  37.998  25.955  1.00  0.00     0.275 HD
ENDBRANCH  24  25
BRANCH  24  29
HETATM   29  C10 UNL     1      21.537  35.917  24.880  1.00  0.00     0.298 C 
HETATM   30  O4  UNL     1      22.418  36.425  25.620  1.00  0.00    -0.262 OA
BRANCH  29  31
HETATM   31  O5  UNL     1      21.828  34.749  24.231  1.00  0.00    -0.270 OA
BRANCH  31  32
HETATM   32  C11 UNL     1      22.954  33.960  24.633  1.00  0.00     0.123 C 
HETATM   33  C12 UNL     1      22.810  32.974  25.457  1.00  0.00     0.030 C 
HETATM   34  C13 UNL     1      23.957  32.163  25.870  1.00  0.00     0.117 C 
HETATM   35  S1  UNL     1      25.471  33.166  25.740  1.00  0.00    -0.087 SA
HETATM   36  S2  UNL     1      24.627  34.253  24.053  1.00  0.00    -0.032 SA
ENDBRANCH  31  32
ENDBRANCH  29  31
ENDBRANCH  24  29
ENDBRANCH   1  24
TORSDOF 9
ENDMDL
MODEL 3
REMARK VINA RESULT: -7.546972260      4.048      6.904
REMARK  9 active torsions:
REMARK  status: ('A' for Active; 'I' for Inactive)
REMARK    1  A    between atoms: O1_2  and  C2_3 
REMARK    2  A    between atoms: C2_3  and  C5_6 
REMARK       I    between atoms: C5_6  and  N1_8 
REMARK    3  A    between atoms: N1_8  and  C6_10 
REMARK    4  A    between atoms: C6_10  and  C7_11 
REMARK    5  A    between atoms: C6_10  and  C9_24 
REMARK       I    between atoms: C7_11  and  N2_13 
REMARK       I    between atoms: N2_13  and  C8_15 
REMARK       I    between atoms: C8_15  and  N3_16 
REMARK       I    between atoms: C8_15  and  N4_20 
REMARK    6  A    between atoms: C9_24  and  N5_25 
REMARK    7  A    between atoms: C9_24  and  C10_29 
REMARK    8  A    between atoms: C10_29  and  O5_31 
REMARK    9  A    between atoms: O5_31  and  C11_32 
ROOT
HETATM    1  C6  UNL     1      19.039  35.543  25.477  1.00  0.00     0.217 C 
ENDROOT
BRANCH   1   2
HETATM    2  N1  UNL     1      19.156  34.409  26.326  1.00  0.00    -0.343 N 
HETATM    3  C5  UNL     1      18.791  34.515  27.699  1.00  0.00     0.252 C 
HETATM    4  O2  UNL     1      18.367  35.622  28.135  1.00  0.00    -0.270 OA
ATOM      5  H1  UNL     1      19.500  33.524  25.953  1.00  0.00     0.163 HD
BRANCH   3   6
HETATM    6  C2  UNL     1      18.897  33.353  28.626  1.00  0.00     0.133 C 
HETATM    7  C3  UNL     1      17.718  33.473  29.594  1.00  0.00     0.056 C 
HETATM    8  C4  UNL     1      18.732  32.101  27.806  1.00  0.00     0.056 C 
BRANCH   6   9
HETATM    9  O1  UNL     1      20.104  33.430  29.286  1.00  0.00    -0.376 OA
HETATM   10  C1  UNL     1      20.970  32.401  28.942  1.00  0.00     0.203 C 
ENDBRANCH   6   9
ENDBRANCH   3   6
ENDBRANCH   1   2
BRANCH   1  11
HETATM   11  C7  UNL     1      18.083  35.294  24.353  1.00  0.00     0.245 C 
HETATM   12  O3  UNL     1      17.033  34.671  24.594  1.00  0.00    -0.271 OA
HETATM   13  N2  UNL     1      18.346  35.744  23.037  1.00  0.00    -0.310 N 
HETATM   14  C8  UNL     1      17.414  35.496  21.959  1.00  0.00     0.482 C 
ATOM     15  H2  UNL     1      19.208  36.254  22.846  1.00  0.00     0.166 HD
HETATM   16  N3  UNL     1      18.025  34.650  20.928  1.00  0.00    -0.033 N 
HETATM   17  N4  UNL     1      16.944  36.744  21.392  1.00  0.00    -0.033 N 
ATOM     18  H33 UNL     1      18.901  35.045  20.586  1.00  0.00     0.278 HD
ATOM     19  H32 UNL     1      18.390  33.782  21.320  1.00  0.00     0.278 HD
ATOM     20  H31 UNL     1      17.368  34.475  20.168  1.00  0.00     0.278 HD
ATOM     21  H43 UNL     1      16.545  37.356  22.103  1.00  0.00     0.278 HD
ATOM     22  H42 UNL     1      17.716  37.339  21.094  1.00  0.00     0.278 HD
ATOM     23  H41 UNL     1      16.287  36.569  20.631  1.00  0.00     0.278 HD
ENDBRANCH   1  11
BRANCH   1  24
HETATM   24  C9  UNL     1      20.355  35.997  24.895  1.00  0.00     0.314 C 
BRANCH  24  25
HETATM   25  N5  UNL     1      20.714  37.261  25.498  1.00  0.00    -0.063 N 
ATOM     26  H53 UNL     1      20.473  37.305  26.488  1.00  0.00     0.275 HD
ATOM     27  H52 UNL     1      21.723  37.376  25.595  1.00  0.00     0.275 HD
ATOM     28  H51 UNL     1      20.284  38.012  24.958  1.00  0.00     0.275 HD
ENDBRANCH  24  25
BRANCH  24  29
HETATM   29  C10 UNL     1      21.422  34.980  25.067  1.00  0.00     0.298 C 
HETATM   30  O4  UNL     1      21.866  34.416  24.035  1.00  0.00    -0.262 OA
BRANCH  29  31
HETATM   31  O5  UNL     1      21.946  34.623  26.279  1.00  0.00    -0.270 OA
BRANCH  31  32
HETATM   32  C11 UNL     1      23.337  34.304  26.398  1.00  0.00     0.123 C 
HETATM   33  C12 UNL     1      24.222  35.239  26.524  1.00  0.00     0.030 C 
HETATM   34  C13 UNL     1      25.645  34.918  26.649  1.00  0.00     0.117 C 
HETATM   35  S1  UNL     1      25.965  33.317  25.845  1.00  0.00    -0.087 SA
HETATM   36  S2  UNL     1      23.973  32.626  26.386  1.00  0.00    -0.032 SA
ENDBRANCH  31  32
ENDBRANCH  29  31
ENDBRANCH  24  29
ENDBRANCH   1  24
TORSDOF 9
ENDMDL
MODEL 4
REMARK VINA RESULT: -7.488553792      3.624      6.692
REMARK  9 active torsions:
REMARK  status: ('A' for Active; 'I' for Inactive)
REMARK    1  A    between atoms: O1_2  and  C2_3 
REMARK    2  A    between atoms: C2_3  and  C5_6 
REMARK       I    between atoms: C5_6  and  N1_8 
REMARK    3  A    between atoms: N1_8  and  C6_10 
REMARK    4  A    between atoms: C6_10  and  C7_11 
REMARK    5  A    between atoms: C6_10  and  C9_24 
REMARK       I    between atoms: C7_11  and  N2_13 
REMARK       I    between atoms: N2_13  and  C8_15 
REMARK       I    between atoms: C8_15  and  N3_16 
REMARK       I    between atoms: C8_15  and  N4_20 
REMARK    6  A    between atoms: C9_24  and  N5_25 
REMARK    7  A    between atoms: C9_24  and  C10_29 
REMARK    8  A    between atoms: C10_29  and  O5_31 
REMARK    9  A    between atoms: O5_31  and  C11_32 
ROOT
HETATM    1  C6  UNL     1      18.258  35.934  25.271  1.00  0.00     0.217 C 
ENDROOT
BRANCH   1   2
HETATM    2  N1  UNL     1      18.742  34.726  25.841  1.00  0.00    -0.343 N 
HETATM    3  C5  UNL     1      18.776  34.579  27.258  1.00  0.00     0.252 C 
HETATM    4  O2  UNL     1      18.370  35.532  27.981  1.00  0.00    -0.270 OA
ATOM      5  H1  UNL     1      19.065  33.968  25.239  1.00  0.00     0.163 HD
BRANCH   3   6
HETATM    6  C2  UNL     1      19.275  33.331  27.901  1.00  0.00     0.133 C 
HETATM    7  C3  UNL     1      18.490  32.182  27.264  1.00  0.00     0.056 C 
HETATM    8  C4  UNL     1      20.731  33.186  27.543  1.00  0.00     0.056 C 
BRANCH   6   9
HETATM    9  O1  UNL     1      19.042  33.413  29.257  1.00  0.00    -0.376 OA
HETATM   10  C1  UNL     1      20.190  33.215  30.011  1.00  0.00     0.203 C 
ENDBRANCH   6   9
ENDBRANCH   3   6
ENDBRANCH   1   2
BRANCH   1  11
HETATM   11  C7  UNL     1      17.183  35.675  24.264  1.00  0.00     0.245 C 
HETATM   12  O3  UNL     1      16.720  34.524  24.171  1.00  0.00    -0.271 OA
HETATM   13  N2  UNL     1      16.686  36.700  23.423  1.00  0.00    -0.310 N 
HETATM   14  C8  UNL     1      15.646  36.437  22.452  1.00  0.00     0.482 C 
ATOM     15  H2  UNL     1      17.069  37.642  23.502  1.00  0.00     0.166 HD
HETATM   16  N3  UNL     1      16.137  36.664  21.089  1.00  0.00    -0.033 N 
HETATM   17  N4  UNL     1      14.477  37.250  22.723  1.00  0.00    -0.033 N 
ATOM     18  H33 UNL     1      16.527  37.601  20.979  1.00  0.00     0.278 HD
ATOM     19  H32 UNL     1      16.979  36.123  20.896  1.00  0.00     0.278 HD
ATOM     20  H31 UNL     1      15.404  36.479  20.405  1.00  0.00     0.278 HD
ATOM     21  H43 UNL     1      14.143  37.126  23.679  1.00  0.00     0.278 HD
ATOM     22  H42 UNL     1      14.708  38.242  22.770  1.00  0.00     0.278 HD
ATOM     23  H41 UNL     1      13.743  37.064  22.039  1.00  0.00     0.278 HD
ENDBRANCH   1  11
BRANCH   1  24
HETATM   24  C9  UNL     1      19.336  36.765  24.617  1.00  0.00     0.314 C 
BRANCH  24  25
HETATM   25  N5  UNL     1      19.192  38.135  25.058  1.00  0.00    -0.063 N 
ATOM     26  H53 UNL     1      19.997  38.711  24.813  1.00  0.00     0.275 HD
ATOM     27  H52 UNL     1      18.488  38.644  24.525  1.00  0.00     0.275 HD
ATOM     28  H51 UNL     1      19.002  38.135  26.060  1.00  0.00     0.275 HD
ENDBRANCH  24  25
BRANCH  24  29
HETATM   29  C10 UNL     1      20.694  36.234  24.895  1.00  0.00     0.298 C 
HETATM   30  O4  UNL     1      21.409  36.857  25.721  1.00  0.00    -0.262 OA
BRANCH  29  31
HETATM   31  O5  UNL     1      21.208  35.113  24.307  1.00  0.00    -0.270 OA
BRANCH  31  32
HETATM   32  C11 UNL     1      22.623  34.888  24.293  1.00  0.00     0.123 C 
HETATM   33  C12 UNL     1      23.127  33.812  24.805  1.00  0.00     0.030 C 
HETATM   34  C13 UNL     1      24.572  33.576  24.792  1.00  0.00     0.117 C 
HETATM   35  S1  UNL     1      25.434  35.178  24.740  1.00  0.00    -0.087 SA
HETATM   36  S2  UNL     1      23.803  36.040  23.585  1.00  0.00    -0.032 SA
ENDBRANCH  31  32
ENDBRANCH  29  31
ENDBRANCH  24  29
ENDBRANCH   1  24
TORSDOF 9
ENDMDL
MODEL 5
REMARK VINA RESULT: -7.487253047      3.763      6.716
REMARK  9 active torsions:
REMARK  status: ('A' for Active; 'I' for Inactive)
REMARK    1  A    between atoms: O1_2  and  C2_3 
REMARK    2  A    between atoms: C2_3  and  C5_6 
REMARK       I    between atoms: C5_6  and  N1_8 
REMARK    3  A    between atoms: N1_8  and  C6_10 
REMARK    4  A    between atoms: C6_10  and  C7_11 
REMARK    5  A    between atoms: C6_10  and  C9_24 
REMARK       I    between atoms: C7_11  and  N2_13 
REMARK       I    between atoms: N2_13  and  C8_15 
REMARK       I    between atoms: C8_15  and  N3_16 
REMARK       I    between atoms: C8_15  and  N4_20 
REMARK    6  A    between atoms: C9_24  and  N5_25 
REMARK    7  A    between atoms: C9_24  and  C10_29 
REMARK    8  A    between atoms: C10_29  and  O5_31 
REMARK    9  A    between atoms: O5_31  and  C11_32 
ROOT
HETATM    1  C6  UNL     1      19.541  35.986  25.405  1.00  0.00     0.217 C 
ENDROOT
BRANCH   1   2
HETATM    2  N1  UNL     1      19.244  34.745  26.031  1.00  0.00    -0.343 N 
HETATM    3  C5  UNL     1      18.784  34.728  27.380  1.00  0.00     0.252 C 
HETATM    4  O2  UNL     1      18.649  35.823  27.993  1.00  0.00    -0.270 OA
ATOM      5  H1  UNL     1      19.359  33.871  25.517  1.00  0.00     0.163 HD
BRANCH   3   6
HETATM    6  C2  UNL     1      18.461  33.451  28.077  1.00  0.00     0.133 C 
HETATM    7  C3  UNL     1      18.252  32.408  26.977  1.00  0.00     0.056 C 
HETATM    8  C4  UNL     1      19.663  33.064  28.897  1.00  0.00     0.056 C 
BRANCH   6   9
HETATM    9  O1  UNL     1      17.317  33.638  28.822  1.00  0.00    -0.376 OA
HETATM   10  C1  UNL     1      17.558  33.617  30.189  1.00  0.00     0.203 C 
ENDBRANCH   6   9
ENDBRANCH   3   6
ENDBRANCH   1   2
BRANCH   1  11
HETATM   11  C7  UNL     1      18.584  36.286  24.295  1.00  0.00     0.245 C 
HETATM   12  O3  UNL     1      18.676  37.381  23.711  1.00  0.00    -0.271 OA
HETATM   13  N2  UNL     1      17.588  35.361  23.900  1.00  0.00    -0.310 N 
HETATM   14  C8  UNL     1      16.668  35.663  22.825  1.00  0.00     0.482 C 
ATOM     15  H2  UNL     1      17.517  34.465  24.382  1.00  0.00     0.166 HD
HETATM   16  N3  UNL     1      15.288  35.710  23.319  1.00  0.00    -0.033 N 
HETATM   17  N4  UNL     1      16.800  34.696  21.753  1.00  0.00    -0.033 N 
ATOM     18  H33 UNL     1      15.031  34.851  23.806  1.00  0.00     0.278 HD
ATOM     19  H32 UNL     1      15.188  36.363  24.096  1.00  0.00     0.278 HD
ATOM     20  H31 UNL     1      14.639  35.923  22.561  1.00  0.00     0.278 HD
ATOM     21  H43 UNL     1      17.762  34.629  21.420  1.00  0.00     0.278 HD
ATOM     22  H42 UNL     1      16.688  33.740  22.089  1.00  0.00     0.278 HD
ATOM     23  H41 UNL     1      16.151  34.908  20.995  1.00  0.00     0.278 HD
ENDBRANCH   1  11
BRANCH   1  24
HETATM   24  C9  UNL     1      20.946  36.063  24.861  1.00  0.00     0.314 C 
BRANCH  24  25
HETATM   25  N5  UNL     1      21.533  37.319  25.276  1.00  0.00    -0.063 N 
ATOM     26  H53 UNL     1      20.843  37.965  25.658  1.00  0.00     0.275 HD
ATOM     27  H52 UNL     1      22.112  37.223  26.110  1.00  0.00     0.275 HD
ATOM     28  H51 UNL     1      22.044  37.714  24.487  1.00  0.00     0.275 HD
ENDBRANCH  24  25
BRANCH  24  29
HETATM   29  C10 UNL     1      21.771  34.903  25.278  1.00  0.00     0.298 C 
HETATM   30  O4  UNL     1      22.109  34.075  24.394  1.00  0.00    -0.262 OA
BRANCH  29  31
HETATM   31  O5  UNL     1      22.183  34.685  26.563  1.00  0.00    -0.270 OA
BRANCH  31  32
HETATM   32  C11 UNL     1      23.357  33.906  26.824  1.00  0.00     0.123 C 
HETATM   33  C12 UNL     1      23.270  32.749  27.396  1.00  0.00     0.030 C 
HETATM   34  C13 UNL     1      24.465  31.948  27.663  1.00  0.00     0.117 C 
HETATM   35  S1  UNL     1      25.899  33.058  27.827  1.00  0.00    -0.087 SA
HETATM   36  S2  UNL     1      25.016  34.439  26.395  1.00  0.00    -0.032 SA
ENDBRANCH  31  32
ENDBRANCH  29  31
ENDBRANCH  24  29
ENDBRANCH   1  24
TORSDOF 9
ENDMDL
