MODEL 1
REMARK VINA RESULT: -9.335873167      0.000      0.000
REMARK  9 active torsions:
REMARK  status: ('A' for Active; 'I' for Inactive)
REMARK    1  A    between atoms: N1_1  and  N2_4 
REMARK    2  A    between atoms: C1_5  and  O1_6 
REMARK    3  A    between atoms: C2_8  and  N3_9 
REMARK    4  A    between atoms: N3_9  and  O2_11 
REMARK    5  A    between atoms: O2_11  and  S1_12 
REMARK    6  A    between atoms: S1_12  and  C3_15 
REMARK    7  A    between atoms: C3_15  and  C4_16 
REMARK       I    between atoms: C4_16  and  N4_18 
REMARK    8  A    between atoms: N4_18  and  N5_20 
REMARK    9  A    between atoms: C5_22  and  C6_23 
ROOT
HETATM    1  O2  UNL     1      16.632  37.163  23.339  1.00  0.00    -0.150 OA
ENDROOT
BRANCH   1   2
HETATM    2  N3  UNL     1      16.758  36.452  24.457  1.00  0.00    -0.240 N 
ATOM      3  H3  UNL     1      15.918  36.235  24.993  1.00  0.00     0.196 HD
BRANCH   2   4
HETATM    4  C2  UNL     1      18.004  35.982  24.938  1.00  0.00     0.176 A 
HETATM    5  C1  UNL     1      19.121  36.805  24.867  1.00  0.00     0.200 A 
HETATM    6  N2  UNL     1      20.340  36.402  25.304  1.00  0.00    -0.186 N 
HETATM    7  C13 UNL     1      20.474  35.162  25.825  1.00  0.00     0.350 A 
HETATM    8  N6  UNL     1      19.420  34.334  25.913  1.00  0.00    -0.272 N 
HETATM    9  O7  UNL     1      21.602  34.782  26.233  1.00  0.00    -0.244 OA
HETATM   10  C12 UNL     1      18.188  34.731  25.475  1.00  0.00     0.282 A 
ATOM     11  H6  UNL     1      19.539  33.402  26.309  1.00  0.00     0.174 HD
HETATM   12  O6  UNL     1      17.219  33.945  25.564  1.00  0.00    -0.265 OA
BRANCH   5  13
HETATM   13  O1  UNL     1      19.002  38.062  24.343  1.00  0.00    -0.343 OA
ATOM     14  H1  UNL     1      18.223  38.269  23.840  1.00  0.00     0.219 HD
ENDBRANCH   5  13
BRANCH   6  15
HETATM   15  N1  UNL     1      21.468  37.221  25.242  1.00  0.00    -0.332 N 
ATOM     16  H12 UNL     1      22.301  36.864  24.777  1.00  0.00     0.177 HD
ATOM     17  H11 UNL     1      21.488  38.157  25.647  1.00  0.00     0.177 HD
ENDBRANCH   6  15
ENDBRANCH   2   4
ENDBRANCH   1   2
BRANCH   1  18
HETATM   18  S1  UNL     1      16.426  36.337  21.931  1.00  0.00     0.294 S 
HETATM   19  O3  UNL     1      15.046  35.832  21.676  1.00  0.00    -0.196 OA
HETATM   20  O4  UNL     1      16.814  37.309  20.807  1.00  0.00    -0.196 OA
BRANCH  18  21
HETATM   21  C3  UNL     1      17.516  34.946  21.734  1.00  0.00     0.276 C 
BRANCH  21  22
HETATM   22  C4  UNL     1      17.411  34.284  20.428  1.00  0.00     0.252 C 
HETATM   23  O5  UNL     1      18.321  34.436  19.581  1.00  0.00    -0.271 OA
HETATM   24  N4  UNL     1      16.290  33.475  20.124  1.00  0.00    -0.270 N 
ATOM     25  H4  UNL     1      15.537  33.345  20.799  1.00  0.00     0.190 HD
BRANCH  24  26
HETATM   26  N5  UNL     1      16.250  32.856  18.857  1.00  0.00    -0.308 N 
HETATM   27  C5  UNL     1      17.231  32.089  18.487  1.00  0.00     0.118 C 
ATOM     28  H5  UNL     1      15.455  33.009  18.236  1.00  0.00     0.186 HD
BRANCH  27  29
HETATM   29  C6  UNL     1      17.239  31.428  17.190  1.00  0.00    -0.019 A 
HETATM   30  C7  UNL     1      17.975  30.284  16.990  1.00  0.00     0.013 A 
HETATM   31  C8  UNL     1      18.021  29.659  15.778  1.00  0.00     0.001 A 
HETATM   32  C9  UNL     1      17.323  30.165  14.705  1.00  0.00     0.000 A 
HETATM   33  C10 UNL     1      16.589  31.310  14.916  1.00  0.00     0.001 A 
HETATM   34  C11 UNL     1      16.532  31.950  16.127  1.00  0.00     0.013 A 
ENDBRANCH  27  29
ENDBRANCH  24  26
ENDBRANCH  21  22
ENDBRANCH  18  21
ENDBRANCH   1  18
TORSDOF 9
ENDMDL
MODEL 2
REMARK VINA RESULT: -9.293586731      3.436      5.294
REMARK  9 active torsions:
REMARK  status: ('A' for Active; 'I' for Inactive)
REMARK    1  A    between atoms: N1_1  and  N2_4 
REMARK    2  A    between atoms: C1_5  and  O1_6 
REMARK    3  A    between atoms: C2_8  and  N3_9 
REMARK    4  A    between atoms: N3_9  and  O2_11 
REMARK    5  A    between atoms: O2_11  and  S1_12 
REMARK    6  A    between atoms: S1_12  and  C3_15 
REMARK    7  A    between atoms: C3_15  and  C4_16 
REMARK       I    between atoms: C4_16  and  N4_18 
REMARK    8  A    between atoms: N4_18  and  N5_20 
REMARK    9  A    between atoms: C5_22  and  C6_23 
ROOT
HETATM    1  O2  UNL     1      15.592  36.297  23.032  1.00  0.00    -0.150 OA
ENDROOT
BRANCH   1   2
HETATM    2  N3  UNL     1      14.424  35.958  22.493  1.00  0.00    -0.240 N 
ATOM      3  H3  UNL     1      14.333  35.033  22.072  1.00  0.00     0.196 HD
BRANCH   2   4
HETATM    4  C2  UNL     1      13.301  36.819  22.475  1.00  0.00     0.176 A 
HETATM    5  C1  UNL     1      13.396  38.056  21.849  1.00  0.00     0.200 A 
HETATM    6  N2  UNL     1      12.354  38.924  21.811  1.00  0.00    -0.186 N 
HETATM    7  C13 UNL     1      11.187  38.577  22.400  1.00  0.00     0.350 A 
HETATM    8  N6  UNL     1      11.053  37.391  23.015  1.00  0.00    -0.272 N 
HETATM    9  O7  UNL     1      10.217  39.378  22.368  1.00  0.00    -0.244 OA
HETATM   10  C12 UNL     1      12.097  36.510  23.059  1.00  0.00     0.282 A 
ATOM     11  H6  UNL     1      10.165  37.145  23.453  1.00  0.00     0.174 HD
HETATM   12  O6  UNL     1      11.952  35.410  23.638  1.00  0.00    -0.265 OA
BRANCH   5  13
HETATM   13  O1  UNL     1      14.568  38.422  21.250  1.00  0.00    -0.343 OA
ATOM     14  H1  UNL     1      14.837  37.958  20.466  1.00  0.00     0.219 HD
ENDBRANCH   5  13
BRANCH   6  15
HETATM   15  N1  UNL     1      12.436  40.167  21.182  1.00  0.00    -0.332 N 
ATOM     16  H12 UNL     1      13.357  40.579  21.042  1.00  0.00     0.177 HD
ATOM     17  H11 UNL     1      11.611  40.675  20.863  1.00  0.00     0.177 HD
ENDBRANCH   6  15
ENDBRANCH   2   4
ENDBRANCH   1   2
BRANCH   1  18
HETATM   18  S1  UNL     1      16.919  36.258  22.061  1.00  0.00     0.294 S 
HETATM   19  O3  UNL     1      16.736  36.831  20.696  1.00  0.00    -0.196 OA
HETATM   20  O4  UNL     1      18.006  37.060  22.792  1.00  0.00    -0.196 OA
BRANCH  18  21
HETATM   21  C3  UNL     1      17.614  34.636  21.838  1.00  0.00     0.276 C 
BRANCH  21  22
HETATM   22  C4  UNL     1      17.518  34.127  20.465  1.00  0.00     0.252 C 
HETATM   23  O5  UNL     1      18.411  34.414  19.634  1.00  0.00    -0.271 OA
HETATM   24  N4  UNL     1      16.426  33.316  20.077  1.00  0.00    -0.270 N 
ATOM     25  H4  UNL     1      15.687  33.077  20.738  1.00  0.00     0.190 HD
BRANCH  24  26
HETATM   26  N5  UNL     1      16.393  32.848  18.747  1.00  0.00    -0.308 N 
HETATM   27  C5  UNL     1      17.041  31.766  18.432  1.00  0.00     0.118 C 
ATOM     28  H5  UNL     1      15.864  33.355  18.037  1.00  0.00     0.186 HD
BRANCH  27  29
HETATM   29  C6  UNL     1      17.041  31.242  17.074  1.00  0.00    -0.019 A 
HETATM   30  C7  UNL     1      17.603  30.019  16.794  1.00  0.00     0.013 A 
HETATM   31  C8  UNL     1      17.640  29.516  15.526  1.00  0.00     0.001 A 
HETATM   32  C9  UNL     1      17.109  30.229  14.476  1.00  0.00     0.000 A 
HETATM   33  C10 UNL     1      16.549  31.452  14.768  1.00  0.00     0.001 A 
HETATM   34  C11 UNL     1      16.503  31.972  16.035  1.00  0.00     0.013 A 
ENDBRANCH  27  29
ENDBRANCH  24  26
ENDBRANCH  21  22
ENDBRANCH  18  21
ENDBRANCH   1  18
TORSDOF 9
ENDMDL
MODEL 3
REMARK VINA RESULT: -9.282638126      0.583      1.899
REMARK  9 active torsions:
REMARK  status: ('A' for Active; 'I' for Inactive)
REMARK    1  A    between atoms: N1_1  and  N2_4 
REMARK    2  A    between atoms: C1_5  and  O1_6 
REMARK    3  A    between atoms: C2_8  and  N3_9 
REMARK    4  A    between atoms: N3_9  and  O2_11 
REMARK    5  A    between atoms: O2_11  and  S1_12 
REMARK    6  A    between atoms: S1_12  and  C3_15 
REMARK    7  A    between atoms: C3_15  and  C4_16 
REMARK       I    between atoms: C4_16  and  N4_18 
REMARK    8  A    between atoms: N4_18  and  N5_20 
REMARK    9  A    between atoms: C5_22  and  C6_23 
ROOT
HETATM    1  O2  UNL     1      16.070  36.043  23.633  1.00  0.00    -0.150 OA
ENDROOT
BRANCH   1   2
HETATM    2  N3  UNL     1      16.839  36.637  24.543  1.00  0.00    -0.240 N 
ATOM      3  H3  UNL     1      16.565  37.559  24.883  1.00  0.00     0.196 HD
BRANCH   2   4
HETATM    4  C2  UNL     1      18.018  36.050  25.060  1.00  0.00     0.176 A 
HETATM    5  C1  UNL     1      17.972  34.763  25.582  1.00  0.00     0.200 A 
HETATM    6  N2  UNL     1      19.070  34.157  26.099  1.00  0.00    -0.186 N 
HETATM    7  C13 UNL     1      20.246  34.824  26.108  1.00  0.00     0.350 A 
HETATM    8  N6  UNL     1      20.335  36.070  25.613  1.00  0.00    -0.272 N 
HETATM    9  O7  UNL     1      21.268  34.267  26.586  1.00  0.00    -0.244 OA
HETATM   10  C12 UNL     1      19.234  36.689  25.091  1.00  0.00     0.282 A 
ATOM     11  H6  UNL     1      21.230  36.558  25.628  1.00  0.00     0.174 HD
HETATM   12  O6  UNL     1      19.337  37.850  24.635  1.00  0.00    -0.265 OA
BRANCH   5  13
HETATM   13  O1  UNL     1      16.791  34.075  25.580  1.00  0.00    -0.343 OA
ATOM     14  H1  UNL     1      16.714  33.313  25.018  1.00  0.00     0.219 HD
ENDBRANCH   5  13
BRANCH   6  15
HETATM   15  N1  UNL     1      19.037  32.864  26.621  1.00  0.00    -0.332 N 
ATOM     16  H12 UNL     1      18.170  32.333  26.545  1.00  0.00     0.177 HD
ATOM     17  H11 UNL     1      19.843  32.436  27.076  1.00  0.00     0.177 HD
ENDBRANCH   6  15
ENDBRANCH   2   4
ENDBRANCH   1   2
BRANCH   1  18
HETATM   18  S1  UNL     1      16.602  36.031  22.077  1.00  0.00     0.294 S 
HETATM   19  O3  UNL     1      15.541  35.949  21.033  1.00  0.00    -0.196 OA
HETATM   20  O4  UNL     1      17.387  37.337  21.884  1.00  0.00    -0.196 OA
BRANCH  18  21
HETATM   21  C3  UNL     1      17.768  34.737  21.714  1.00  0.00     0.276 C 
BRANCH  21  22
HETATM   22  C4  UNL     1      17.616  34.153  20.376  1.00  0.00     0.252 C 
HETATM   23  O5  UNL     1      18.479  34.384  19.498  1.00  0.00    -0.271 OA
HETATM   24  N4  UNL     1      16.504  33.332  20.074  1.00  0.00    -0.270 N 
ATOM     25  H4  UNL     1      15.788  33.138  20.774  1.00  0.00     0.190 HD
BRANCH  24  26
HETATM   26  N5  UNL     1      16.417  32.791  18.774  1.00  0.00    -0.308 N 
HETATM   27  C5  UNL     1      17.285  31.903  18.391  1.00  0.00     0.118 C 
ATOM     28  H5  UNL     1      15.678  33.095  18.140  1.00  0.00     0.186 HD
BRANCH  27  29
HETATM   29  C6  UNL     1      17.241  31.315  17.060  1.00  0.00    -0.019 A 
HETATM   30  C7  UNL     1      17.996  30.207  16.758  1.00  0.00     0.013 A 
HETATM   31  C8  UNL     1      17.994  29.651  15.511  1.00  0.00     0.001 A 
HETATM   32  C9  UNL     1      17.227  30.194  14.506  1.00  0.00     0.000 A 
HETATM   33  C10 UNL     1      16.474  31.302  14.820  1.00  0.00     0.001 A 
HETATM   34  C11 UNL     1      16.465  31.873  16.067  1.00  0.00     0.013 A 
ENDBRANCH  27  29
ENDBRANCH  24  26
ENDBRANCH  21  22
ENDBRANCH  18  21
ENDBRANCH   1  18
TORSDOF 9
ENDMDL
MODEL 4
REMARK VINA RESULT: -9.272871762      2.063      2.940
REMARK  9 active torsions:
REMARK  status: ('A' for Active; 'I' for Inactive)
REMARK    1  A    between atoms: N1_1  and  N2_4 
REMARK    2  A    between atoms: C1_5  and  O1_6 
REMARK    3  A    between atoms: C2_8  and  N3_9 
REMARK    4  A    between atoms: N3_9  and  O2_11 
REMARK    5  A    between atoms: O2_11  and  S1_12 
REMARK    6  A    between atoms: S1_12  and  C3_15 
REMARK    7  A    between atoms: C3_15  and  C4_16 
REMARK       I    between atoms: C4_16  and  N4_18 
REMARK    8  A    between atoms: N4_18  and  N5_20 
REMARK    9  A    between atoms: C5_22  and  C6_23 
ROOT
HETATM    1  O2  UNL     1      17.557  35.970  25.113  1.00  0.00    -0.150 OA
ENDROOT
BRANCH   1   2
HETATM    2  N3  UNL     1      18.245  36.202  26.229  1.00  0.00    -0.240 N 
ATOM      3  H3  UNL     1      18.180  37.126  26.657  1.00  0.00     0.196 HD
BRANCH   2   4
HETATM    4  C2  UNL     1      19.062  35.228  26.849  1.00  0.00     0.176 A 
HETATM    5  C1  UNL     1      20.120  34.669  26.142  1.00  0.00     0.200 A 
HETATM    6  N2  UNL     1      20.928  33.725  26.686  1.00  0.00    -0.186 N 
HETATM    7  C13 UNL     1      20.700  33.314  27.953  1.00  0.00     0.350 A 
HETATM    8  N6  UNL     1      19.689  33.829  28.672  1.00  0.00    -0.272 N 
HETATM    9  O7  UNL     1      21.447  32.439  28.463  1.00  0.00    -0.244 OA
HETATM   10  C12 UNL     1      18.869  34.780  28.133  1.00  0.00     0.282 A 
ATOM     11  H6  UNL     1      19.531  33.507  29.627  1.00  0.00     0.174 HD
HETATM   12  O6  UNL     1      17.931  35.246  28.819  1.00  0.00    -0.265 OA
BRANCH   5  13
HETATM   13  O1  UNL     1      20.365  35.074  24.861  1.00  0.00    -0.343 OA
ATOM     14  H1  UNL     1      19.831  35.771  24.498  1.00  0.00     0.219 HD
ENDBRANCH   5  13
BRANCH   6  15
HETATM   15  N1  UNL     1      21.996  33.160  25.988  1.00  0.00    -0.332 N 
ATOM     16  H12 UNL     1      22.003  33.232  24.971  1.00  0.00     0.177 HD
ATOM     17  H11 UNL     1      22.764  32.678  26.456  1.00  0.00     0.177 HD
ENDBRANCH   6  15
ENDBRANCH   2   4
ENDBRANCH   1   2
BRANCH   1  18
HETATM   18  S1  UNL     1      17.574  37.135  23.952  1.00  0.00     0.294 S 
HETATM   19  O3  UNL     1      17.895  38.512  24.424  1.00  0.00    -0.196 OA
HETATM   20  O4  UNL     1      18.636  36.702  22.930  1.00  0.00    -0.196 OA
BRANCH  18  21
HETATM   21  C3  UNL     1      16.064  37.260  23.020  1.00  0.00     0.276 C 
BRANCH  21  22
HETATM   22  C4  UNL     1      15.934  36.259  21.955  1.00  0.00     0.252 C 
HETATM   23  O5  UNL     1      15.209  36.502  20.962  1.00  0.00    -0.271 OA
HETATM   24  N4  UNL     1      16.622  35.026  22.042  1.00  0.00    -0.270 N 
ATOM     25  H4  UNL     1      17.212  34.809  22.845  1.00  0.00     0.190 HD
BRANCH  24  26
HETATM   26  N5  UNL     1      16.467  34.108  20.982  1.00  0.00    -0.308 N 
HETATM   27  C5  UNL     1      17.448  33.915  20.152  1.00  0.00     0.118 C 
ATOM     28  H5  UNL     1      15.590  33.599  20.868  1.00  0.00     0.186 HD
BRANCH  27  29
HETATM   29  C6  UNL     1      17.338  32.981  19.041  1.00  0.00    -0.019 A 
HETATM   30  C7  UNL     1      18.391  32.163  18.707  1.00  0.00     0.013 A 
HETATM   31  C8  UNL     1      18.324  31.297  17.654  1.00  0.00     0.001 A 
HETATM   32  C9  UNL     1      17.186  31.218  16.885  1.00  0.00     0.000 A 
HETATM   33  C10 UNL     1      16.138  32.042  17.229  1.00  0.00     0.001 A 
HETATM   34  C11 UNL     1      16.188  32.917  18.283  1.00  0.00     0.013 A 
ENDBRANCH  27  29
ENDBRANCH  24  26
ENDBRANCH  21  22
ENDBRANCH  18  21
ENDBRANCH   1  18
TORSDOF 9
ENDMDL
MODEL 5
REMARK VINA RESULT: -9.175299214      5.222      8.900
REMARK  9 active torsions:
REMARK  status: ('A' for Active; 'I' for Inactive)
REMARK    1  A    between atoms: N1_1  and  N2_4 
REMARK    2  A    between atoms: C1_5  and  O1_6 
REMARK    3  A    between atoms: C2_8  and  N3_9 
REMARK    4  A    between atoms: N3_9  and  O2_11 
REMARK    5  A    between atoms: O2_11  and  S1_12 
REMARK    6  A    between atoms: S1_12  and  C3_15 
REMARK    7  A    between atoms: C3_15  and  C4_16 
REMARK       I    between atoms: C4_16  and  N4_18 
REMARK    8  A    between atoms: N4_18  and  N5_20 
REMARK    9  A    between atoms: C5_22  and  C6_23 
ROOT
HETATM    1  O2  UNL     1      15.498  36.865  21.011  1.00  0.00    -0.150 OA
ENDROOT
BRANCH   1   2
HETATM    2  N3  UNL     1      15.002  38.003  21.491  1.00  0.00    -0.240 N 
ATOM      3  H3  UNL     1      15.613  38.819  21.536  1.00  0.00     0.196 HD
BRANCH   2   4
HETATM    4  C2  UNL     1      13.667  38.135  21.941  1.00  0.00     0.176 A 
HETATM    5  C1  UNL     1      13.017  37.037  22.491  1.00  0.00     0.200 A 
HETATM    6  N2  UNL     1      11.735  37.106  22.929  1.00  0.00    -0.186 N 
HETATM    7  C13 UNL     1      11.068  38.278  22.829  1.00  0.00     0.350 A 
HETATM    8  N6  UNL     1      11.659  39.364  22.304  1.00  0.00    -0.272 N 
HETATM    9  O7  UNL     1       9.879  38.348  23.234  1.00  0.00    -0.244 OA
HETATM   10  C12 UNL     1      12.950  39.304  21.859  1.00  0.00     0.282 A 
ATOM     11  H6  UNL     1      11.141  40.239  22.236  1.00  0.00     0.174 HD
HETATM   12  O6  UNL     1      13.483  40.326  21.373  1.00  0.00    -0.265 OA
BRANCH   5  13
HETATM   13  O1  UNL     1      13.677  35.846  22.600  1.00  0.00    -0.343 OA
ATOM     14  H1  UNL     1      14.594  35.814  22.355  1.00  0.00     0.219 HD
ENDBRANCH   5  13
BRANCH   6  15
HETATM   15  N1  UNL     1      11.073  36.012  23.488  1.00  0.00    -0.332 N 
ATOM     16  H12 UNL     1      10.968  35.170  22.923  1.00  0.00     0.177 HD
ATOM     17  H11 UNL     1      10.690  36.027  24.433  1.00  0.00     0.177 HD
ENDBRANCH   6  15
ENDBRANCH   2   4
ENDBRANCH   1   2
BRANCH   1  18
HETATM   18  S1  UNL     1      16.754  36.179  21.824  1.00  0.00     0.294 S 
HETATM   19  O3  UNL     1      16.384  35.129  22.815  1.00  0.00    -0.196 OA
HETATM   20  O4  UNL     1      17.663  35.554  20.755  1.00  0.00    -0.196 OA
BRANCH  18  21
HETATM   21  C3  UNL     1      17.789  37.343  22.684  1.00  0.00     0.276 C 
BRANCH  21  22
HETATM   22  C4  UNL     1      18.410  36.805  23.900  1.00  0.00     0.252 C 
HETATM   23  O5  UNL     1      19.622  36.489  23.889  1.00  0.00    -0.271 OA
HETATM   24  N4  UNL     1      17.650  36.646  25.082  1.00  0.00    -0.270 N 
ATOM     25  H4  UNL     1      16.660  36.893  25.108  1.00  0.00     0.190 HD
BRANCH  24  26
HETATM   26  N5  UNL     1      18.304  36.135  26.223  1.00  0.00    -0.308 N 
HETATM   27  C5  UNL     1      18.317  34.852  26.432  1.00  0.00     0.118 C 
ATOM     28  H5  UNL     1      18.763  36.767  26.878  1.00  0.00     0.186 HD
BRANCH  27  29
HETATM   29  C6  UNL     1      18.976  34.273  27.594  1.00  0.00    -0.019 A 
HETATM   30  C7  UNL     1      20.145  33.564  27.456  1.00  0.00     0.013 A 
HETATM   31  C8  UNL     1      20.770  32.988  28.524  1.00  0.00     0.001 A 
HETATM   32  C9  UNL     1      20.239  33.102  29.788  1.00  0.00     0.000 A 
HETATM   33  C10 UNL     1      19.068  33.816  29.915  1.00  0.00     0.001 A 
HETATM   34  C11 UNL     1      18.428  34.399  28.853  1.00  0.00     0.013 A 
ENDBRANCH  27  29
ENDBRANCH  24  26
ENDBRANCH  21  22
ENDBRANCH  18  21
ENDBRANCH   1  18
TORSDOF 9
ENDMDL
