MODEL 1
REMARK VINA RESULT: -6.967437644      0.000      0.000
REMARK  12 active torsions:
REMARK  status: ('A' for Active; 'I' for Inactive)
REMARK    1  A    between atoms: C2_2  and  O2_4 
REMARK    2  A    between atoms: O2_4  and  C3_5 
REMARK    3  A    between atoms: C3_5  and  C5_7 
REMARK    4  A    between atoms: C5_7  and  C7_9 
REMARK    5  A    between atoms: C7_9  and  C8_10 
REMARK    6  A    between atoms: C8_10  and  O3_11 
REMARK    7  A    between atoms: C8_10  and  C9_13 
REMARK    8  A    between atoms: C9_13  and  C11_15 
REMARK    9  A    between atoms: C15_19  and  O4_20 
REMARK   10  A    between atoms: C19_28  and  C20_29 
REMARK   11  A    between atoms: C21_32  and  C22_33 
REMARK   12  A    between atoms: C27_39  and  O9_40 
ROOT
HETATM    1  C11 UNL     1      16.795  36.092  16.865  1.00  0.00    -0.044 C 
HETATM    2  C12 UNL     1      16.928  34.633  16.828  1.00  0.00     0.064 C 
HETATM    3  C13 UNL     1      16.071  33.826  17.714  1.00  0.00    -0.014 C 
HETATM    4  C14 UNL     1      15.822  33.602  18.991  1.00  0.00    -0.015 C 
HETATM    5  C15 UNL     1      14.728  32.559  18.967  1.00  0.00     0.210 C 
HETATM    6 CL1  UNL     1      13.134  33.327  19.105  1.00  0.00    -0.076 Cl
HETATM    7  C16 UNL     1      15.010  31.632  20.060  1.00  0.00     0.120 C 
HETATM    8  C17 UNL     1      15.115  30.339  19.919  1.00  0.00     0.042 C 
HETATM    9  C18 UNL     1      15.404  29.485  21.102  1.00  0.00     0.064 C 
HETATM   10 CL2  UNL     1      14.922  29.584  18.371  1.00  0.00    -0.087 Cl
HETATM   11  O5  UNL     1      15.161  32.253  21.311  1.00  0.00    -0.325 OA
HETATM   12  C19 UNL     1      15.683  33.555  21.485  1.00  0.00     0.176 C 
HETATM   13  C21 UNL     1      17.073  33.371  22.119  1.00  0.00     0.095 C 
HETATM   14  C23 UNL     1      17.643  33.480  20.742  1.00  0.00     0.033 C 
HETATM   15  C24 UNL     1      16.344  34.113  20.274  1.00  0.00     0.031 C 
HETATM   16  C25 UNL     1      16.524  35.588  20.196  1.00  0.00     0.020 C 
HETATM   17  C26 UNL     1      17.679  35.865  19.220  1.00  0.00     0.037 C 
HETATM   18  C27 UNL     1      17.172  36.759  18.162  1.00  0.00     0.147 C 
ENDROOT
BRANCH   1  19
HETATM   19  C9  UNL     1      15.628  36.748  16.200  1.00  0.00    -0.050 C 
HETATM   20  C10 UNL     1      14.360  36.805  16.987  1.00  0.00     0.046 C 
BRANCH  19  21
HETATM   21  C8  UNL     1      15.501  36.595  14.733  1.00  0.00     0.147 C 
BRANCH  21  22
HETATM   22  C7  UNL     1      14.697  37.481  13.904  1.00  0.00     0.043 C 
BRANCH  22  23
HETATM   23  C5  UNL     1      13.289  37.106  13.583  1.00  0.00     0.013 C 
HETATM   24  C6  UNL     1      12.319  38.257  13.833  1.00  0.00     0.012 C 
BRANCH  23  25
HETATM   25  C3  UNL     1      13.255  36.939  12.044  1.00  0.00     0.131 C 
HETATM   26  C4  UNL     1      11.922  37.351  11.485  1.00  0.00     0.040 C 
BRANCH  25  27
HETATM   27  O2  UNL     1      13.605  35.619  11.683  1.00  0.00    -0.316 OA
BRANCH  27  28
HETATM   28  C2  UNL     1      14.393  35.300  10.601  1.00  0.00     0.255 C 
HETATM   29  C1  UNL     1      13.827  34.965   9.268  1.00  0.00     0.126 C 
HETATM   30  O1  UNL     1      15.647  35.293  10.753  1.00  0.00    -0.266 OA
ENDBRANCH  27  28
ENDBRANCH  25  27
ENDBRANCH  23  25
ENDBRANCH  22  23
ENDBRANCH  21  22
BRANCH  21  31
HETATM   31  O3  UNL     1      14.879  35.291  14.595  1.00  0.00    -0.391 OA
ATOM     32  H3  UNL     1      14.391  35.168  15.402  1.00  0.00     0.210 HD
ENDBRANCH  21  31
ENDBRANCH  19  21
ENDBRANCH   1  19
BRANCH  18  33
HETATM   33  O9  UNL     1      18.088  37.822  17.948  1.00  0.00    -0.391 OA
ATOM     34  H9  UNL     1      18.944  37.618  18.307  1.00  0.00     0.210 HD
ENDBRANCH  18  33
BRANCH   5  35
HETATM   35  O4  UNL     1      14.768  31.961  17.712  1.00  0.00    -0.366 OA
ATOM     36  H4  UNL     1      15.658  32.047  17.392  1.00  0.00     0.212 HD
ENDBRANCH   5  35
BRANCH  12  37
HETATM   37  C20 UNL     1      14.762  34.382  22.254  1.00  0.00     0.211 C 
HETATM   38  O6  UNL     1      14.318  35.514  21.980  1.00  0.00    -0.646 OA
HETATM   39  O7  UNL     1      14.284  33.874  23.481  1.00  0.00    -0.646 OA
ENDBRANCH  12  37
BRANCH  13  40
HETATM   40  C22 UNL     1      17.418  34.388  23.109  1.00  0.00     0.239 C 
HETATM   41  O8  UNL     1      18.527  34.419  23.615  1.00  0.00    -0.306 OA
ENDBRANCH  13  40
TORSDOF 12
ENDMDL
MODEL 2
REMARK VINA RESULT: -6.864072075      2.593      4.319
REMARK  12 active torsions:
REMARK  status: ('A' for Active; 'I' for Inactive)
REMARK    1  A    between atoms: C2_2  and  O2_4 
REMARK    2  A    between atoms: O2_4  and  C3_5 
REMARK    3  A    between atoms: C3_5  and  C5_7 
REMARK    4  A    between atoms: C5_7  and  C7_9 
REMARK    5  A    between atoms: C7_9  and  C8_10 
REMARK    6  A    between atoms: C8_10  and  O3_11 
REMARK    7  A    between atoms: C8_10  and  C9_13 
REMARK    8  A    between atoms: C9_13  and  C11_15 
REMARK    9  A    between atoms: C15_19  and  O4_20 
REMARK   10  A    between atoms: C19_28  and  C20_29 
REMARK   11  A    between atoms: C21_32  and  C22_33 
REMARK   12  A    between atoms: C27_39  and  O9_40 
ROOT
HETATM    1  C11 UNL     1      15.533  39.713  16.658  1.00  0.00    -0.044 C 
HETATM    2  C12 UNL     1      16.514  39.448  17.715  1.00  0.00     0.064 C 
HETATM    3  C13 UNL     1      17.020  38.073  17.874  1.00  0.00    -0.014 C 
HETATM    4  C14 UNL     1      16.620  36.850  18.171  1.00  0.00    -0.015 C 
HETATM    5  C15 UNL     1      17.887  36.029  18.092  1.00  0.00     0.210 C 
HETATM    6 CL1  UNL     1      18.035  35.266  16.496  1.00  0.00    -0.076 Cl
HETATM    7  C16 UNL     1      17.826  35.059  19.183  1.00  0.00     0.120 C 
HETATM    8  C17 UNL     1      18.759  34.906  20.083  1.00  0.00     0.042 C 
HETATM    9  C18 UNL     1      18.595  33.886  21.153  1.00  0.00     0.064 C 
HETATM   10 CL2  UNL     1      20.199  35.869  20.059  1.00  0.00    -0.087 Cl
HETATM   11  O5  UNL     1      16.656  34.282  19.190  1.00  0.00    -0.325 OA
HETATM   12  C19 UNL     1      15.401  34.744  18.733  1.00  0.00     0.176 C 
HETATM   13  C21 UNL     1      14.532  34.919  19.991  1.00  0.00     0.095 C 
HETATM   14  C23 UNL     1      14.912  36.365  19.972  1.00  0.00     0.033 C 
HETATM   15  C24 UNL     1      15.334  36.215  18.521  1.00  0.00     0.031 C 
HETATM   16  C25 UNL     1      14.254  36.743  17.644  1.00  0.00     0.020 C 
HETATM   17  C26 UNL     1      14.026  38.216  18.024  1.00  0.00     0.037 C 
HETATM   18  C27 UNL     1      14.199  39.029  16.806  1.00  0.00     0.147 C 
ENDROOT
BRANCH   1  19
HETATM   19  C9  UNL     1      15.980  39.799  15.235  1.00  0.00    -0.050 C 
HETATM   20  C10 UNL     1      16.519  41.117  14.786  1.00  0.00     0.046 C 
BRANCH  19  21
HETATM   21  C8  UNL     1      15.236  39.002  14.234  1.00  0.00     0.147 C 
BRANCH  21  22
HETATM   22  C7  UNL     1      15.234  37.546  14.214  1.00  0.00     0.043 C 
BRANCH  22  23
HETATM   23  C5  UNL     1      14.016  36.821  13.748  1.00  0.00     0.013 C 
HETATM   24  C6  UNL     1      12.738  37.599  14.046  1.00  0.00     0.012 C 
BRANCH  23  25
HETATM   25  C3  UNL     1      14.096  36.845  12.203  1.00  0.00     0.131 C 
HETATM   26  C4  UNL     1      12.923  37.576  11.612  1.00  0.00     0.040 C 
BRANCH  25  27
HETATM   27  O2  UNL     1      14.225  35.533  11.694  1.00  0.00    -0.316 OA
BRANCH  27  28
HETATM   28  C2  UNL     1      14.803  35.230  10.483  1.00  0.00     0.255 C 
HETATM   29  C1  UNL     1      14.005  34.879   9.279  1.00  0.00     0.126 C 
HETATM   30  O1  UNL     1      16.063  35.253  10.397  1.00  0.00    -0.266 OA
ENDBRANCH  27  28
ENDBRANCH  25  27
ENDBRANCH  23  25
ENDBRANCH  22  23
ENDBRANCH  21  22
BRANCH  21  31
HETATM   31  O3  UNL     1      15.858  39.390  12.982  1.00  0.00    -0.391 OA
ATOM     32  H3  UNL     1      15.304  39.013  12.308  1.00  0.00     0.210 HD
ENDBRANCH  21  31
ENDBRANCH  19  21
ENDBRANCH   1  19
BRANCH  18  33
HETATM   33  O9  UNL     1      13.128  39.954  16.687  1.00  0.00    -0.391 OA
ATOM     34  H9  UNL     1      12.449  39.780  17.328  1.00  0.00     0.210 HD
ENDBRANCH  18  33
BRANCH   5  35
HETATM   35  O4  UNL     1      18.952  36.917  18.202  1.00  0.00    -0.366 OA
ATOM     36  H4  UNL     1      19.623  36.482  18.716  1.00  0.00     0.212 HD
ENDBRANCH   5  35
BRANCH  12  37
HETATM   37  C20 UNL     1      14.853  33.840  17.731  1.00  0.00     0.211 C 
HETATM   38  O6  UNL     1      14.113  32.850  17.897  1.00  0.00    -0.646 OA
HETATM   39  O7  UNL     1      15.175  34.078  16.378  1.00  0.00    -0.646 OA
ENDBRANCH  12  37
BRANCH  13  40
HETATM   40  C22 UNL     1      13.130  34.556  19.806  1.00  0.00     0.239 C 
HETATM   41  O8  UNL     1      12.236  35.313  20.143  1.00  0.00    -0.306 OA
ENDBRANCH  13  40
TORSDOF 12
ENDMDL
MODEL 3
REMARK VINA RESULT: -6.810365054      6.666      9.341
REMARK  12 active torsions:
REMARK  status: ('A' for Active; 'I' for Inactive)
REMARK    1  A    between atoms: C2_2  and  O2_4 
REMARK    2  A    between atoms: O2_4  and  C3_5 
REMARK    3  A    between atoms: C3_5  and  C5_7 
REMARK    4  A    between atoms: C5_7  and  C7_9 
REMARK    5  A    between atoms: C7_9  and  C8_10 
REMARK    6  A    between atoms: C8_10  and  O3_11 
REMARK    7  A    between atoms: C8_10  and  C9_13 
REMARK    8  A    between atoms: C9_13  and  C11_15 
REMARK    9  A    between atoms: C15_19  and  O4_20 
REMARK   10  A    between atoms: C19_28  and  C20_29 
REMARK   11  A    between atoms: C21_32  and  C22_33 
REMARK   12  A    between atoms: C27_39  and  O9_40 
ROOT
HETATM    1  C11 UNL     1      14.101  39.702  12.738  1.00  0.00    -0.044 C 
HETATM    2  C12 UNL     1      15.442  40.055  13.212  1.00  0.00     0.064 C 
HETATM    3  C13 UNL     1      15.573  40.718  14.522  1.00  0.00    -0.014 C 
HETATM    4  C14 UNL     1      15.239  41.825  15.159  1.00  0.00    -0.015 C 
HETATM    5  C15 UNL     1      15.827  41.637  16.539  1.00  0.00     0.210 C 
HETATM    6 CL1  UNL     1      14.606  40.990  17.653  1.00  0.00    -0.076 Cl
HETATM    7  C16 UNL     1      16.345  42.938  16.955  1.00  0.00     0.120 C 
HETATM    8  C17 UNL     1      17.568  43.148  17.359  1.00  0.00     0.042 C 
HETATM    9  C18 UNL     1      17.991  44.516  17.761  1.00  0.00     0.064 C 
HETATM   10 CL2  UNL     1      18.722  41.858  17.440  1.00  0.00    -0.087 Cl
HETATM   11  O5  UNL     1      15.400  43.976  16.888  1.00  0.00    -0.325 OA
HETATM   12  C19 UNL     1      14.352  44.026  15.941  1.00  0.00     0.176 C 
HETATM   13  C21 UNL     1      14.721  45.156  14.964  1.00  0.00     0.095 C 
HETATM   14  C23 UNL     1      15.292  44.106  14.066  1.00  0.00     0.033 C 
HETATM   15  C24 UNL     1      14.496  43.056  14.822  1.00  0.00     0.031 C 
HETATM   16  C25 UNL     1      13.279  42.712  14.038  1.00  0.00     0.020 C 
HETATM   17  C26 UNL     1      13.741  42.201  12.663  1.00  0.00     0.037 C 
HETATM   18  C27 UNL     1      13.170  40.855  12.467  1.00  0.00     0.147 C 
ENDROOT
BRANCH   1  19
HETATM   19  C9  UNL     1      13.396  38.519  13.317  1.00  0.00    -0.050 C 
HETATM   20  C10 UNL     1      12.411  38.798  14.404  1.00  0.00     0.046 C 
BRANCH  19  21
HETATM   21  C8  UNL     1      14.151  37.248  13.406  1.00  0.00     0.147 C 
BRANCH  21  22
HETATM   22  C7  UNL     1      13.915  36.116  12.522  1.00  0.00     0.043 C 
BRANCH  22  23
HETATM   23  C5  UNL     1      14.334  36.203  11.092  1.00  0.00     0.013 C 
HETATM   24  C6  UNL     1      15.094  34.959  10.642  1.00  0.00     0.012 C 
BRANCH  23  25
HETATM   25  C3  UNL     1      13.018  36.131  10.280  1.00  0.00     0.131 C 
HETATM   26  C4  UNL     1      11.838  35.897  11.181  1.00  0.00     0.040 C 
BRANCH  25  27
HETATM   27  O2  UNL     1      13.119  35.155   9.262  1.00  0.00    -0.316 OA
BRANCH  27  28
HETATM   28  C2  UNL     1      12.987  35.427   7.920  1.00  0.00     0.255 C 
HETATM   29  C1  UNL     1      11.700  35.857   7.312  1.00  0.00     0.126 C 
HETATM   30  O1  UNL     1      14.003  35.305   7.180  1.00  0.00    -0.266 OA
ENDBRANCH  27  28
ENDBRANCH  25  27
ENDBRANCH  23  25
ENDBRANCH  22  23
ENDBRANCH  21  22
BRANCH  21  31
HETATM   31  O3  UNL     1      13.813  36.762  14.731  1.00  0.00    -0.391 OA
ATOM     32  H3  UNL     1      14.590  36.924  15.255  1.00  0.00     0.210 HD
ENDBRANCH  21  31
ENDBRANCH  19  21
ENDBRANCH   1  19
BRANCH  18  33
HETATM   33  O9  UNL     1      12.593  40.759  11.173  1.00  0.00    -0.391 OA
ATOM     34  H9  UNL     1      11.803  40.232  11.185  1.00  0.00     0.210 HD
ENDBRANCH  18  33
BRANCH   5  35
HETATM   35  O4  UNL     1      16.813  40.661  16.429  1.00  0.00    -0.366 OA
ATOM     36  H4  UNL     1      17.147  40.505  17.304  1.00  0.00     0.212 HD
ENDBRANCH   5  35
BRANCH  12  37
HETATM   37  C20 UNL     1      13.065  44.184  16.603  1.00  0.00     0.211 C 
HETATM   38  O6  UNL     1      12.029  43.504  16.464  1.00  0.00    -0.646 OA
HETATM   39  O7  UNL     1      12.923  45.235  17.535  1.00  0.00    -0.646 OA
ENDBRANCH  12  37
BRANCH  13  40
HETATM   40  C22 UNL     1      13.581  45.940  14.497  1.00  0.00     0.239 C 
HETATM   41  O8  UNL     1      13.394  46.127  13.306  1.00  0.00    -0.306 OA
ENDBRANCH  13  40
TORSDOF 12
ENDMDL
MODEL 4
REMARK VINA RESULT: -6.801855287      6.235     10.214
REMARK  12 active torsions:
REMARK  status: ('A' for Active; 'I' for Inactive)
REMARK    1  A    between atoms: C2_2  and  O2_4 
REMARK    2  A    between atoms: O2_4  and  C3_5 
REMARK    3  A    between atoms: C3_5  and  C5_7 
REMARK    4  A    between atoms: C5_7  and  C7_9 
REMARK    5  A    between atoms: C7_9  and  C8_10 
REMARK    6  A    between atoms: C8_10  and  O3_11 
REMARK    7  A    between atoms: C8_10  and  C9_13 
REMARK    8  A    between atoms: C9_13  and  C11_15 
REMARK    9  A    between atoms: C15_19  and  O4_20 
REMARK   10  A    between atoms: C19_28  and  C20_29 
REMARK   11  A    between atoms: C21_32  and  C22_33 
REMARK   12  A    between atoms: C27_39  and  O9_40 
ROOT
HETATM    1  C11 UNL     1      14.852  40.108  15.753  1.00  0.00    -0.044 C 
HETATM    2  C12 UNL     1      13.606  40.646  16.307  1.00  0.00     0.064 C 
HETATM    3  C13 UNL     1      12.613  41.216  15.380  1.00  0.00    -0.014 C 
HETATM    4  C14 UNL     1      12.451  42.195  14.509  1.00  0.00    -0.015 C 
HETATM    5  C15 UNL     1      11.039  42.000  14.007  1.00  0.00     0.210 C 
HETATM    6 CL1  UNL     1      11.038  41.067  12.497  1.00  0.00    -0.076 Cl
HETATM    7  C16 UNL     1      10.462  43.334  13.852  1.00  0.00     0.120 C 
HETATM    8  C17 UNL     1       9.339  43.717  14.397  1.00  0.00     0.042 C 
HETATM    9  C18 UNL     1       8.842  45.100  14.174  1.00  0.00     0.064 C 
HETATM   10 CL2  UNL     1       8.405  42.641  15.383  1.00  0.00    -0.087 Cl
HETATM   11  O5  UNL     1      11.226  44.196  13.048  1.00  0.00    -0.325 OA
HETATM   12  C19 UNL     1      12.635  44.142  12.955  1.00  0.00     0.176 C 
HETATM   13  C21 UNL     1      13.155  45.393  13.685  1.00  0.00     0.095 C 
HETATM   14  C23 UNL     1      13.344  44.531  14.890  1.00  0.00     0.033 C 
HETATM   15  C24 UNL     1      13.283  43.303  13.999  1.00  0.00     0.031 C 
HETATM   16  C25 UNL     1      14.667  42.820  13.743  1.00  0.00     0.020 C 
HETATM   17  C26 UNL     1      15.309  42.506  15.105  1.00  0.00     0.037 C 
HETATM   18  C27 UNL     1      15.761  41.102  15.079  1.00  0.00     0.147 C 
ENDROOT
BRANCH   1  19
HETATM   19  C9  UNL     1      14.848  38.779  15.070  1.00  0.00    -0.050 C 
HETATM   20  C10 UNL     1      15.594  37.679  15.750  1.00  0.00     0.046 C 
BRANCH  19  21
HETATM   21  C8  UNL     1      14.841  38.770  13.590  1.00  0.00     0.147 C 
BRANCH  21  22
HETATM   22  C7  UNL     1      13.646  38.513  12.798  1.00  0.00     0.043 C 
BRANCH  22  23
HETATM   23  C5  UNL     1      12.736  37.397  13.187  1.00  0.00     0.013 C 
HETATM   24  C6  UNL     1      11.482  37.903  13.896  1.00  0.00     0.012 C 
BRANCH  23  25
HETATM   25  C3  UNL     1      12.189  36.836  11.853  1.00  0.00     0.131 C 
HETATM   26  C4  UNL     1      10.691  36.717  11.889  1.00  0.00     0.040 C 
BRANCH  25  27
HETATM   27  O2  UNL     1      12.818  35.611  11.538  1.00  0.00    -0.316 OA
BRANCH  27  28
HETATM   28  C2  UNL     1      13.888  35.493  10.680  1.00  0.00     0.255 C 
HETATM   29  C1  UNL     1      13.724  35.223   9.227  1.00  0.00     0.126 C 
HETATM   30  O1  UNL     1      15.052  35.620  11.152  1.00  0.00    -0.266 OA
ENDBRANCH  27  28
ENDBRANCH  25  27
ENDBRANCH  23  25
ENDBRANCH  22  23
ENDBRANCH  21  22
BRANCH  21  31
HETATM   31  O3  UNL     1      15.742  37.679  13.268  1.00  0.00    -0.391 OA
ATOM     32  H3  UNL     1      15.523  36.992  13.887  1.00  0.00     0.210 HD
ENDBRANCH  21  31
ENDBRANCH  19  21
ENDBRANCH   1  19
BRANCH  18  33
HETATM   33  O9  UNL     1      17.086  41.013  15.580  1.00  0.00    -0.391 OA
ATOM     34  H9  UNL     1      17.433  41.871  15.796  1.00  0.00     0.210 HD
ENDBRANCH  18  33
BRANCH   5  35
HETATM   35  O4  UNL     1      10.378  41.220  14.950  1.00  0.00    -0.366 OA
ATOM     36  H4  UNL     1      10.558  40.312  14.733  1.00  0.00     0.212 HD
ENDBRANCH   5  35
BRANCH  12  37
HETATM   37  C20 UNL     1      13.055  44.024  11.565  1.00  0.00     0.211 C 
HETATM   38  O6  UNL     1      14.057  43.444  11.101  1.00  0.00    -0.646 OA
HETATM   39  O7  UNL     1      12.253  44.633  10.576  1.00  0.00    -0.646 OA
ENDBRANCH  12  37
BRANCH  13  40
HETATM   40  C22 UNL     1      14.326  46.005  13.064  1.00  0.00     0.239 C 
HETATM   41  O8  UNL     1      15.349  46.190  13.701  1.00  0.00    -0.306 OA
ENDBRANCH  13  40
TORSDOF 12
ENDMDL
MODEL 5
REMARK VINA RESULT: -6.712910808      5.776      9.525
REMARK  12 active torsions:
REMARK  status: ('A' for Active; 'I' for Inactive)
REMARK    1  A    between atoms: C2_2  and  O2_4 
REMARK    2  A    between atoms: O2_4  and  C3_5 
REMARK    3  A    between atoms: C3_5  and  C5_7 
REMARK    4  A    between atoms: C5_7  and  C7_9 
REMARK    5  A    between atoms: C7_9  and  C8_10 
REMARK    6  A    between atoms: C8_10  and  O3_11 
REMARK    7  A    between atoms: C8_10  and  C9_13 
REMARK    8  A    between atoms: C9_13  and  C11_15 
REMARK    9  A    between atoms: C15_19  and  O4_20 
REMARK   10  A    between atoms: C19_28  and  C20_29 
REMARK   11  A    between atoms: C21_32  and  C22_33 
REMARK   12  A    between atoms: C27_39  and  O9_40 
ROOT
HETATM    1  C11 UNL     1      13.131  37.959  15.446  1.00  0.00    -0.044 C 
HETATM    2  C12 UNL     1      11.783  38.423  15.103  1.00  0.00     0.064 C 
HETATM    3  C13 UNL     1      11.645  39.557  14.173  1.00  0.00    -0.014 C 
HETATM    4  C14 UNL     1      11.934  40.840  14.055  1.00  0.00    -0.015 C 
HETATM    5  C15 UNL     1      11.385  41.208  12.695  1.00  0.00     0.210 C 
HETATM    6 CL1  UNL     1      12.660  41.120  11.464  1.00  0.00    -0.076 Cl
HETATM    7  C16 UNL     1      10.810  42.545  12.825  1.00  0.00     0.120 C 
HETATM    8  C17 UNL     1       9.586  42.854  12.493  1.00  0.00     0.042 C 
HETATM    9  C18 UNL     1       9.101  44.250  12.665  1.00  0.00     0.064 C 
HETATM   10 CL2  UNL     1       8.501  41.666  11.848  1.00  0.00    -0.087 Cl
HETATM   11  O5  UNL     1      11.699  43.501  13.344  1.00  0.00    -0.325 OA
HETATM   12  C19 UNL     1      12.723  43.201  14.272  1.00  0.00     0.176 C 
HETATM   13  C21 UNL     1      12.276  43.818  15.608  1.00  0.00     0.095 C 
HETATM   14  C23 UNL     1      11.743  42.472  15.977  1.00  0.00     0.033 C 
HETATM   15  C24 UNL     1      12.606  41.853  14.892  1.00  0.00     0.031 C 
HETATM   16  C25 UNL     1      13.824  41.267  15.516  1.00  0.00     0.020 C 
HETATM   17  C26 UNL     1      13.361  40.222  16.544  1.00  0.00     0.037 C 
HETATM   18  C27 UNL     1      13.996  38.936  16.199  1.00  0.00     0.147 C 
ENDROOT
BRANCH   1  19
HETATM   19  C9  UNL     1      13.907  37.143  14.464  1.00  0.00    -0.050 C 
HETATM   20  C10 UNL     1      14.845  36.131  15.034  1.00  0.00     0.046 C 
BRANCH  19  21
HETATM   21  C8  UNL     1      14.314  37.798  13.199  1.00  0.00     0.147 C 
BRANCH  21  22
HETATM   22  C7  UNL     1      13.761  37.440  11.901  1.00  0.00     0.043 C 
BRANCH  22  23
HETATM   23  C5  UNL     1      12.857  36.258  11.791  1.00  0.00     0.013 C 
HETATM   24  C6  UNL     1      11.434  36.660  11.414  1.00  0.00     0.012 C 
BRANCH  23  25
HETATM   25  C3  UNL     1      13.351  35.485  10.544  1.00  0.00     0.131 C 
HETATM   26  C4  UNL     1      14.798  35.103  10.683  1.00  0.00     0.040 C 
BRANCH  25  27
HETATM   27  O2  UNL     1      13.101  36.230   9.370  1.00  0.00    -0.316 OA
BRANCH  27  28
HETATM   28  C2  UNL     1      12.867  35.667   8.137  1.00  0.00     0.255 C 
HETATM   29  C1  UNL     1      11.565  35.797   7.430  1.00  0.00     0.126 C 
HETATM   30  O1  UNL     1      13.798  35.014   7.588  1.00  0.00    -0.266 OA
ENDBRANCH  27  28
ENDBRANCH  25  27
ENDBRANCH  23  25
ENDBRANCH  22  23
ENDBRANCH  21  22
BRANCH  21  31
HETATM   31  O3  UNL     1      15.725  37.474  13.105  1.00  0.00    -0.391 OA
ATOM     32  H3  UNL     1      15.807  36.973  12.301  1.00  0.00     0.210 HD
ENDBRANCH  21  31
ENDBRANCH  19  21
ENDBRANCH   1  19
BRANCH  18  33
HETATM   33  O9  UNL     1      14.551  38.343  17.364  1.00  0.00    -0.391 OA
ATOM     34  H9  UNL     1      13.875  38.119  17.993  1.00  0.00     0.210 HD
ENDBRANCH  18  33
BRANCH   5  35
HETATM   35  O4  UNL     1      10.449  40.235  12.360  1.00  0.00    -0.366 OA
ATOM     36  H4  UNL     1      10.238  39.767  13.160  1.00  0.00     0.212 HD
ENDBRANCH   5  35
BRANCH  12  37
HETATM   37  C20 UNL     1      14.014  43.665  13.782  1.00  0.00     0.211 C 
HETATM   38  O6  UNL     1      15.115  43.081  13.815  1.00  0.00    -0.646 OA
HETATM   39  O7  UNL     1      14.075  44.942  13.183  1.00  0.00    -0.646 OA
ENDBRANCH  12  37
BRANCH  13  40
HETATM   40  C22 UNL     1      13.365  44.387  16.398  1.00  0.00     0.239 C 
HETATM   41  O8  UNL     1      13.316  45.539  16.797  1.00  0.00    -0.306 OA
ENDBRANCH  13  40
TORSDOF 12
ENDMDL
