MODEL 1
REMARK VINA RESULT: -8.536896311      0.000      0.000
REMARK  13 active torsions:
REMARK  status: ('A' for Active; 'I' for Inactive)
REMARK    1  A    between atoms: C2_2  and  O2_4 
REMARK    2  A    between atoms: O2_4  and  C3_5 
REMARK    3  A    between atoms: C4_6  and  O3_7 
REMARK    4  A    between atoms: C5_9  and  O4_10 
REMARK    5  A    between atoms: O4_10  and  C6_11 
REMARK    6  A    between atoms: C7_12  and  C8_13 
REMARK    7  A    between atoms: C8_13  and  C9_14 
REMARK    8  A    between atoms: C9_14  and  C10_15 
REMARK    9  A    between atoms: C10_15  and  C11_16 
REMARK   10  A    between atoms: C11_16  and  C12_17 
REMARK   11  A    between atoms: C15_20  and  O5_21 
REMARK   12  A    between atoms: C16_23  and  O6_24 
REMARK   13  A    between atoms: C27_39  and  O8_40 
ROOT
HETATM    1  C3  UNL     1      15.682  33.121  18.559  1.00  0.00     0.202 C 
HETATM    2  C4  UNL     1      15.907  33.847  17.286  1.00  0.00     0.207 C 
HETATM    3  C5  UNL     1      16.405  35.213  17.376  1.00  0.00     0.081 C 
HETATM    4  C18 UNL     1      16.693  35.799  18.511  1.00  0.00     0.021 C 
HETATM    5  C19 UNL     1      16.536  35.126  19.782  1.00  0.00     0.079 C 
HETATM    6  C20 UNL     1      17.565  35.444  20.806  1.00  0.00    -0.038 C 
HETATM    7  C21 UNL     1      18.720  36.053  20.788  1.00  0.00     0.083 C 
HETATM    8 CL1  UNL     1      19.545  36.780  19.427  1.00  0.00    -0.080 Cl
HETATM    9  C22 UNL     1      19.310  36.069  22.139  1.00  0.00     0.172 C 
HETATM   10  O7  UNL     1      20.335  36.680  22.529  1.00  0.00    -0.291 OA
HETATM   11  C23 UNL     1      18.469  35.220  22.991  1.00  0.00     0.095 C 
HETATM   12  C24 UNL     1      17.231  34.957  22.194  1.00  0.00     0.043 C 
HETATM   13  C25 UNL     1      16.883  33.486  22.167  1.00  0.00     0.094 C 
HETATM   14 CL2  UNL     1      15.917  33.173  23.652  1.00  0.00    -0.124 Cl
HETATM   15  C26 UNL     1      16.048  33.083  21.003  1.00  0.00     0.062 C 
HETATM   16  C27 UNL     1      16.557  33.594  19.687  1.00  0.00     0.099 C 
ENDROOT
BRANCH   3  17
HETATM   17  O4  UNL     1      16.569  35.901  16.145  1.00  0.00    -0.325 OA
BRANCH  17  18
HETATM   18  C6  UNL     1      15.648  36.935  15.925  1.00  0.00     0.138 C 
HETATM   19  C7  UNL     1      14.513  36.665  15.380  1.00  0.00    -0.002 C 
BRANCH  19  20
HETATM   20  C8  UNL     1      13.476  37.661  15.098  1.00  0.00     0.029 C 
BRANCH  20  21
HETATM   21  C9  UNL     1      12.912  37.551  13.732  1.00  0.00     0.004 C 
BRANCH  21  22
HETATM   22  C10 UNL     1      13.829  37.732  12.593  1.00  0.00     0.001 C 
BRANCH  22  23
HETATM   23  C11 UNL     1      14.285  36.563  11.811  1.00  0.00     0.005 C 
BRANCH  23  24
HETATM   24  C12 UNL     1      13.757  36.326  10.456  1.00  0.00    -0.012 C 
HETATM   25  C13 UNL     1      12.299  36.247  10.301  1.00  0.00     0.007 C 
HETATM   26  C14 UNL     1      11.915  35.353   9.101  1.00  0.00     0.034 C 
HETATM   27  C15 UNL     1      12.889  35.623   7.985  1.00  0.00     0.147 C 
HETATM   28  C16 UNL     1      14.251  35.094   8.377  1.00  0.00     0.147 C 
HETATM   29  C17 UNL     1      14.422  35.060   9.872  1.00  0.00     0.039 C 
BRANCH  27  30
HETATM   30  O5  UNL     1      12.472  34.985   6.829  1.00  0.00    -0.393 OA
ATOM     31  H5  UNL     1      12.851  35.410   6.069  1.00  0.00     0.210 HD
ENDBRANCH  27  30
BRANCH  28  32
HETATM   32  O6  UNL     1      15.200  35.910   7.759  1.00  0.00    -0.393 OA
ATOM     33  H6  UNL     1      15.789  36.215   8.438  1.00  0.00     0.210 HD
ENDBRANCH  28  32
ENDBRANCH  23  24
ENDBRANCH  22  23
ENDBRANCH  21  22
ENDBRANCH  20  21
ENDBRANCH  19  20
ENDBRANCH  17  18
ENDBRANCH   3  17
BRANCH   2  34
HETATM   34  O3  UNL     1      16.759  33.149  16.412  1.00  0.00    -0.386 OA
ATOM     35  H3  UNL     1      16.492  33.229  15.503  1.00  0.00     0.210 HD
ENDBRANCH   2  34
BRANCH   1  36
HETATM   36  O2  UNL     1      15.998  31.747  18.343  1.00  0.00    -0.310 OA
BRANCH  36  37
HETATM   37  C2  UNL     1      14.996  30.815  18.340  1.00  0.00     0.255 C 
HETATM   38  C1  UNL     1      14.922  29.729  19.340  1.00  0.00     0.126 C 
HETATM   39  O1  UNL     1      14.112  30.896  17.448  1.00  0.00    -0.266 OA
ENDBRANCH  36  37
ENDBRANCH   1  36
BRANCH  16  40
HETATM   40  O8  UNL     1      17.855  33.149  19.439  1.00  0.00    -0.386 OA
ATOM     41  H8  UNL     1      18.185  33.620  18.683  1.00  0.00     0.210 HD
ENDBRANCH  16  40
TORSDOF 13
ENDMDL
MODEL 2
REMARK VINA RESULT: -8.201930076      7.302     11.317
REMARK  13 active torsions:
REMARK  status: ('A' for Active; 'I' for Inactive)
REMARK    1  A    between atoms: C2_2  and  O2_4 
REMARK    2  A    between atoms: O2_4  and  C3_5 
REMARK    3  A    between atoms: C4_6  and  O3_7 
REMARK    4  A    between atoms: C5_9  and  O4_10 
REMARK    5  A    between atoms: O4_10  and  C6_11 
REMARK    6  A    between atoms: C7_12  and  C8_13 
REMARK    7  A    between atoms: C8_13  and  C9_14 
REMARK    8  A    between atoms: C9_14  and  C10_15 
REMARK    9  A    between atoms: C10_15  and  C11_16 
REMARK   10  A    between atoms: C11_16  and  C12_17 
REMARK   11  A    between atoms: C15_20  and  O5_21 
REMARK   12  A    between atoms: C16_23  and  O6_24 
REMARK   13  A    between atoms: C27_39  and  O8_40 
ROOT
HETATM    1  C3  UNL     1      10.348  43.461  10.629  1.00  0.00     0.202 C 
HETATM    2  C4  UNL     1       9.788  42.337  11.418  1.00  0.00     0.207 C 
HETATM    3  C5  UNL     1      10.714  41.573  12.243  1.00  0.00     0.081 C 
HETATM    4  C18 UNL     1      11.988  41.859  12.344  1.00  0.00     0.021 C 
HETATM    5  C19 UNL     1      12.583  42.970  11.633  1.00  0.00     0.079 C 
HETATM    6  C20 UNL     1      13.653  43.698  12.364  1.00  0.00    -0.038 C 
HETATM    7  C21 UNL     1      14.077  43.708  13.599  1.00  0.00     0.083 C 
HETATM    8 CL1  UNL     1      13.485  42.781  14.961  1.00  0.00    -0.080 Cl
HETATM    9  C22 UNL     1      15.198  44.654  13.746  1.00  0.00     0.172 C 
HETATM   10  O7  UNL     1      15.941  44.826  14.744  1.00  0.00    -0.291 OA
HETATM   11  C23 UNL     1      15.312  45.394  12.484  1.00  0.00     0.095 C 
HETATM   12  C24 UNL     1      14.442  44.661  11.513  1.00  0.00     0.043 C 
HETATM   13  C25 UNL     1      13.511  45.597  10.775  1.00  0.00     0.094 C 
HETATM   14 CL2  UNL     1      14.443  46.224   9.369  1.00  0.00    -0.124 Cl
HETATM   15  C26 UNL     1      12.291  44.937  10.237  1.00  0.00     0.062 C 
HETATM   16  C27 UNL     1      11.584  44.066  11.235  1.00  0.00     0.099 C 
ENDROOT
BRANCH   3  17
HETATM   17  O4  UNL     1      10.160  40.476  12.953  1.00  0.00    -0.325 OA
BRANCH  17  18
HETATM   18  C6  UNL     1      11.021  39.896  13.896  1.00  0.00     0.138 C 
HETATM   19  C7  UNL     1      11.318  38.647  13.798  1.00  0.00    -0.002 C 
BRANCH  19  20
HETATM   20  C8  UNL     1      12.200  37.933  14.724  1.00  0.00     0.029 C 
BRANCH  20  21
HETATM   21  C9  UNL     1      13.473  37.495  14.104  1.00  0.00     0.004 C 
BRANCH  21  22
HETATM   22  C10 UNL     1      13.647  37.723  12.659  1.00  0.00     0.001 C 
BRANCH  22  23
HETATM   23  C11 UNL     1      14.270  36.683  11.811  1.00  0.00     0.005 C 
BRANCH  23  24
HETATM   24  C12 UNL     1      13.737  36.408  10.465  1.00  0.00    -0.012 C 
HETATM   25  C13 UNL     1      12.279  36.336  10.315  1.00  0.00     0.007 C 
HETATM   26  C14 UNL     1      11.885  35.408   9.144  1.00  0.00     0.034 C 
HETATM   27  C15 UNL     1      12.858  35.634   8.019  1.00  0.00     0.147 C 
HETATM   28  C16 UNL     1      14.217  35.106   8.426  1.00  0.00     0.147 C 
HETATM   29  C17 UNL     1      14.391  35.119   9.921  1.00  0.00     0.039 C 
BRANCH  27  30
HETATM   30  O5  UNL     1      12.434  34.962   6.885  1.00  0.00    -0.393 OA
ATOM     31  H5  UNL     1      12.431  34.026   7.044  1.00  0.00     0.210 HD
ENDBRANCH  27  30
BRANCH  28  32
HETATM   32  O6  UNL     1      15.171  35.895   7.780  1.00  0.00    -0.393 OA
ATOM     33  H6  UNL     1      15.824  35.304   7.422  1.00  0.00     0.210 HD
ENDBRANCH  28  32
ENDBRANCH  23  24
ENDBRANCH  22  23
ENDBRANCH  21  22
ENDBRANCH  20  21
ENDBRANCH  19  20
ENDBRANCH  17  18
ENDBRANCH   3  17
BRANCH   2  34
HETATM   34  O3  UNL     1       8.724  42.738  12.246  1.00  0.00    -0.386 OA
ATOM     35  H3  UNL     1       7.897  42.345  11.991  1.00  0.00     0.210 HD
ENDBRANCH   2  34
BRANCH   1  36
HETATM   36  O2  UNL     1       9.367  44.495  10.580  1.00  0.00    -0.310 OA
BRANCH  36  37
HETATM   37  C2  UNL     1       8.598  44.645   9.457  1.00  0.00     0.255 C 
HETATM   38  C1  UNL     1       9.182  44.710   8.101  1.00  0.00     0.126 C 
HETATM   39  O1  UNL     1       7.350  44.728   9.598  1.00  0.00    -0.266 OA
ENDBRANCH  36  37
ENDBRANCH   1  36
BRANCH  16  40
HETATM   40  O8  UNL     1      11.199  44.793  12.359  1.00  0.00    -0.386 OA
ATOM     41  H8  UNL     1      11.161  44.194  13.095  1.00  0.00     0.210 HD
ENDBRANCH  16  40
TORSDOF 13
ENDMDL
MODEL 3
REMARK VINA RESULT: -7.827412341      7.336     10.068
REMARK  13 active torsions:
REMARK  status: ('A' for Active; 'I' for Inactive)
REMARK    1  A    between atoms: C2_2  and  O2_4 
REMARK    2  A    between atoms: O2_4  and  C3_5 
REMARK    3  A    between atoms: C4_6  and  O3_7 
REMARK    4  A    between atoms: C5_9  and  O4_10 
REMARK    5  A    between atoms: O4_10  and  C6_11 
REMARK    6  A    between atoms: C7_12  and  C8_13 
REMARK    7  A    between atoms: C8_13  and  C9_14 
REMARK    8  A    between atoms: C9_14  and  C10_15 
REMARK    9  A    between atoms: C10_15  and  C11_16 
REMARK   10  A    between atoms: C11_16  and  C12_17 
REMARK   11  A    between atoms: C15_20  and  O5_21 
REMARK   12  A    between atoms: C16_23  and  O6_24 
REMARK   13  A    between atoms: C27_39  and  O8_40 
ROOT
HETATM    1  C3  UNL     1      12.919  36.957  11.932  1.00  0.00     0.202 C 
HETATM    2  C4  UNL     1      11.521  36.467  11.880  1.00  0.00     0.207 C 
HETATM    3  C5  UNL     1      10.552  37.118  12.752  1.00  0.00     0.081 C 
HETATM    4  C18 UNL     1      10.853  38.124  13.534  1.00  0.00     0.021 C 
HETATM    5  C19 UNL     1      12.190  38.674  13.595  1.00  0.00     0.079 C 
HETATM    6  C20 UNL     1      12.268  40.148  13.772  1.00  0.00    -0.038 C 
HETATM    7  C21 UNL     1      11.409  41.128  13.697  1.00  0.00     0.083 C 
HETATM    8 CL1  UNL     1       9.700  41.051  13.326  1.00  0.00    -0.080 Cl
HETATM    9  C22 UNL     1      12.075  42.413  13.978  1.00  0.00     0.172 C 
HETATM   10  O7  UNL     1      11.546  43.542  14.131  1.00  0.00    -0.291 OA
HETATM   11  C23 UNL     1      13.516  42.149  14.055  1.00  0.00     0.095 C 
HETATM   12  C24 UNL     1      13.646  40.660  14.110  1.00  0.00     0.043 C 
HETATM   13  C25 UNL     1      14.659  40.147  13.111  1.00  0.00     0.094 C 
HETATM   14 CL2  UNL     1      16.261  40.253  13.923  1.00  0.00    -0.124 Cl
HETATM   15  C26 UNL     1      14.455  38.726  12.719  1.00  0.00     0.062 C 
HETATM   16  C27 UNL     1      13.039  38.398  12.346  1.00  0.00     0.099 C 
ENDROOT
BRANCH   3  17
HETATM   17  O4  UNL     1       9.230  36.601  12.715  1.00  0.00    -0.325 OA
BRANCH  17  18
HETATM   18  C6  UNL     1       8.415  37.003  13.782  1.00  0.00     0.138 C 
HETATM   19  C7  UNL     1       7.298  37.595  13.537  1.00  0.00    -0.002 C 
BRANCH  19  20
HETATM   20  C8  UNL     1       6.368  38.063  14.567  1.00  0.00     0.029 C 
BRANCH  20  21
HETATM   21  C9  UNL     1       4.950  38.040  14.134  1.00  0.00     0.004 C 
BRANCH  21  22
HETATM   22  C10 UNL     1       4.514  36.929  13.270  1.00  0.00     0.001 C 
BRANCH  22  23
HETATM   23  C11 UNL     1       3.746  35.800  13.839  1.00  0.00     0.005 C 
BRANCH  23  24
HETATM   24  C12 UNL     1       4.435  34.747  14.606  1.00  0.00    -0.012 C 
HETATM   25  C13 UNL     1       4.730  35.021  16.018  1.00  0.00     0.007 C 
HETATM   26  C14 UNL     1       5.978  34.240  16.486  1.00  0.00     0.034 C 
HETATM   27  C15 UNL     1       5.937  32.872  15.862  1.00  0.00     0.147 C 
HETATM   28  C16 UNL     1       6.160  33.000  14.371  1.00  0.00     0.147 C 
HETATM   29  C17 UNL     1       5.728  34.349  13.862  1.00  0.00     0.039 C 
BRANCH  27  30
HETATM   30  O5  UNL     1       6.934  32.076  16.401  1.00  0.00    -0.393 OA
ATOM     31  H5  UNL     1       7.036  31.287  15.881  1.00  0.00     0.210 HD
ENDBRANCH  27  30
BRANCH  28  32
HETATM   32  O6  UNL     1       5.456  31.959  13.761  1.00  0.00    -0.393 OA
ATOM     33  H6  UNL     1       4.999  32.332  13.017  1.00  0.00     0.210 HD
ENDBRANCH  28  32
ENDBRANCH  23  24
ENDBRANCH  22  23
ENDBRANCH  21  22
ENDBRANCH  20  21
ENDBRANCH  19  20
ENDBRANCH  17  18
ENDBRANCH   3  17
BRANCH   2  34
HETATM   34  O3  UNL     1      10.991  36.489  10.577  1.00  0.00    -0.386 OA
ATOM     35  H3  UNL     1      10.260  37.090  10.492  1.00  0.00     0.210 HD
ENDBRANCH   2  34
BRANCH   1  36
HETATM   36  O2  UNL     1      13.469  36.860  10.619  1.00  0.00    -0.310 OA
BRANCH  36  37
HETATM   37  C2  UNL     1      14.257  35.790  10.293  1.00  0.00     0.255 C 
HETATM   38  C1  UNL     1      14.112  35.062   9.015  1.00  0.00     0.126 C 
HETATM   39  O1  UNL     1      15.132  35.422  11.120  1.00  0.00    -0.266 OA
ENDBRANCH  36  37
ENDBRANCH   1  36
BRANCH  16  40
HETATM   40  O8  UNL     1      12.598  39.187  11.285  1.00  0.00    -0.386 OA
ATOM     41  H8  UNL     1      12.730  40.097  11.524  1.00  0.00     0.210 HD
ENDBRANCH  16  40
TORSDOF 13
ENDMDL
MODEL 4
REMARK VINA RESULT: -7.668779014      6.886     11.503
REMARK  13 active torsions:
REMARK  status: ('A' for Active; 'I' for Inactive)
REMARK    1  A    between atoms: C2_2  and  O2_4 
REMARK    2  A    between atoms: O2_4  and  C3_5 
REMARK    3  A    between atoms: C4_6  and  O3_7 
REMARK    4  A    between atoms: C5_9  and  O4_10 
REMARK    5  A    between atoms: O4_10  and  C6_11 
REMARK    6  A    between atoms: C7_12  and  C8_13 
REMARK    7  A    between atoms: C8_13  and  C9_14 
REMARK    8  A    between atoms: C9_14  and  C10_15 
REMARK    9  A    between atoms: C10_15  and  C11_16 
REMARK   10  A    between atoms: C11_16  and  C12_17 
REMARK   11  A    between atoms: C15_20  and  O5_21 
REMARK   12  A    between atoms: C16_23  and  O6_24 
REMARK   13  A    between atoms: C27_39  and  O8_40 
ROOT
HETATM    1  C3  UNL     1      10.295  43.588  10.567  1.00  0.00     0.202 C 
HETATM    2  C4  UNL     1       9.680  42.503  11.369  1.00  0.00     0.207 C 
HETATM    3  C5  UNL     1      10.565  41.719  12.221  1.00  0.00     0.081 C 
HETATM    4  C18 UNL     1      11.847  41.955  12.334  1.00  0.00     0.021 C 
HETATM    5  C19 UNL     1      12.496  43.028  11.610  1.00  0.00     0.079 C 
HETATM    6  C20 UNL     1      13.585  43.726  12.341  1.00  0.00    -0.038 C 
HETATM    7  C21 UNL     1      13.994  43.743  13.581  1.00  0.00     0.083 C 
HETATM    8 CL1  UNL     1      13.348  42.868  14.952  1.00  0.00    -0.080 Cl
HETATM    9  C22 UNL     1      15.151  44.646  13.725  1.00  0.00     0.172 C 
HETATM   10  O7  UNL     1      15.887  44.807  14.729  1.00  0.00    -0.291 OA
HETATM   11  C23 UNL     1      15.309  45.356  12.450  1.00  0.00     0.095 C 
HETATM   12  C24 UNL     1      14.423  44.639  11.482  1.00  0.00     0.043 C 
HETATM   13  C25 UNL     1      13.540  45.597  10.714  1.00  0.00     0.094 C 
HETATM   14 CL2  UNL     1      14.513  46.159   9.309  1.00  0.00    -0.124 Cl
HETATM   15  C26 UNL     1      12.301  44.976  10.173  1.00  0.00     0.062 C 
HETATM   16  C27 UNL     1      11.547  44.154  11.177  1.00  0.00     0.099 C 
ENDROOT
BRANCH   3  17
HETATM   17  O4  UNL     1       9.958  40.658  12.944  1.00  0.00    -0.325 OA
BRANCH  17  18
HETATM   18  C6  UNL     1      10.838  39.638  13.333  1.00  0.00     0.138 C 
HETATM   19  C7  UNL     1      10.740  39.135  14.514  1.00  0.00    -0.002 C 
BRANCH  19  20
HETATM   20  C8  UNL     1      11.604  38.071  15.032  1.00  0.00     0.029 C 
BRANCH  20  21
HETATM   21  C9  UNL     1      13.043  38.295  14.756  1.00  0.00     0.004 C 
BRANCH  21  22
HETATM   22  C10 UNL     1      13.886  37.114  14.498  1.00  0.00     0.001 C 
BRANCH  22  23
HETATM   23  C11 UNL     1      14.502  36.915  13.168  1.00  0.00     0.005 C 
BRANCH  23  24
HETATM   24  C12 UNL     1      13.716  36.330  12.068  1.00  0.00    -0.012 C 
HETATM   25  C13 UNL     1      14.430  35.488  11.100  1.00  0.00     0.007 C 
HETATM   26  C14 UNL     1      13.741  35.525   9.717  1.00  0.00     0.034 C 
HETATM   27  C15 UNL     1      12.252  35.519   9.935  1.00  0.00     0.147 C 
HETATM   28  C16 UNL     1      11.836  36.835  10.554  1.00  0.00     0.147 C 
HETATM   29  C17 UNL     1      12.961  37.460  11.334  1.00  0.00     0.039 C 
BRANCH  27  30
HETATM   30  O5  UNL     1      11.598  35.362   8.724  1.00  0.00    -0.393 OA
ATOM     31  H5  UNL     1      10.733  34.996   8.868  1.00  0.00     0.210 HD
ENDBRANCH  27  30
BRANCH  28  32
HETATM   32  O6  UNL     1      10.723  36.575  11.355  1.00  0.00    -0.393 OA
ATOM     33  H6  UNL     1      10.397  37.414  11.659  1.00  0.00     0.210 HD
ENDBRANCH  28  32
ENDBRANCH  23  24
ENDBRANCH  22  23
ENDBRANCH  21  22
ENDBRANCH  20  21
ENDBRANCH  19  20
ENDBRANCH  17  18
ENDBRANCH   3  17
BRANCH   2  34
HETATM   34  O3  UNL     1       8.623  42.962  12.176  1.00  0.00    -0.386 OA
ATOM     35  H3  UNL     1       8.188  42.257  12.641  1.00  0.00     0.210 HD
ENDBRANCH   2  34
BRANCH   1  36
HETATM   36  O2  UNL     1       9.357  44.660  10.485  1.00  0.00    -0.310 OA
BRANCH  36  37
HETATM   37  C2  UNL     1       8.488  44.719   9.429  1.00  0.00     0.255 C 
HETATM   38  C1  UNL     1       8.952  44.824   8.029  1.00  0.00     0.126 C 
HETATM   39  O1  UNL     1       7.254  44.681   9.671  1.00  0.00    -0.266 OA
ENDBRANCH  36  37
ENDBRANCH   1  36
BRANCH  16  40
HETATM   40  O8  UNL     1      11.178  44.918  12.283  1.00  0.00    -0.386 OA
ATOM     41  H8  UNL     1      11.413  44.434  13.065  1.00  0.00     0.210 HD
ENDBRANCH  16  40
TORSDOF 13
ENDMDL
MODEL 5
REMARK VINA RESULT: -7.550550239      4.998      8.395
REMARK  13 active torsions:
REMARK  status: ('A' for Active; 'I' for Inactive)
REMARK    1  A    between atoms: C2_2  and  O2_4 
REMARK    2  A    between atoms: O2_4  and  C3_5 
REMARK    3  A    between atoms: C4_6  and  O3_7 
REMARK    4  A    between atoms: C5_9  and  O4_10 
REMARK    5  A    between atoms: O4_10  and  C6_11 
REMARK    6  A    between atoms: C7_12  and  C8_13 
REMARK    7  A    between atoms: C8_13  and  C9_14 
REMARK    8  A    between atoms: C9_14  and  C10_15 
REMARK    9  A    between atoms: C10_15  and  C11_16 
REMARK   10  A    between atoms: C11_16  and  C12_17 
REMARK   11  A    between atoms: C15_20  and  O5_21 
REMARK   12  A    between atoms: C16_23  and  O6_24 
REMARK   13  A    between atoms: C27_39  and  O8_40 
ROOT
HETATM    1  C3  UNL     1      13.218  36.702  12.562  1.00  0.00     0.202 C 
HETATM    2  C4  UNL     1      12.000  37.434  12.138  1.00  0.00     0.207 C 
HETATM    3  C5  UNL     1      11.268  38.162  13.165  1.00  0.00     0.081 C 
HETATM    4  C18 UNL     1      11.655  38.227  14.414  1.00  0.00     0.021 C 
HETATM    5  C19 UNL     1      12.858  37.569  14.878  1.00  0.00     0.079 C 
HETATM    6  C20 UNL     1      13.627  38.301  15.918  1.00  0.00    -0.038 C 
HETATM    7  C21 UNL     1      13.592  39.513  16.402  1.00  0.00     0.083 C 
HETATM    8 CL1  UNL     1      12.530  40.832  15.959  1.00  0.00    -0.080 Cl
HETATM    9  C22 UNL     1      14.620  39.676  17.447  1.00  0.00     0.172 C 
HETATM   10  O7  UNL     1      14.789  40.649  18.221  1.00  0.00    -0.291 OA
HETATM   11  C23 UNL     1      15.448  38.464  17.434  1.00  0.00     0.095 C 
HETATM   12  C24 UNL     1      14.707  37.484  16.581  1.00  0.00     0.043 C 
HETATM   13  C25 UNL     1      15.606  36.855  15.540  1.00  0.00     0.094 C 
HETATM   14 CL2  UNL     1      16.402  35.456  16.344  1.00  0.00    -0.124 Cl
HETATM   15  C26 UNL     1      14.879  36.327  14.353  1.00  0.00     0.062 C 
HETATM   16  C27 UNL     1      13.887  37.292  13.773  1.00  0.00     0.099 C 
ENDROOT
BRANCH   3  17
HETATM   17  O4  UNL     1      10.082  38.819  12.741  1.00  0.00    -0.325 OA
BRANCH  17  18
HETATM   18  C6  UNL     1       9.953  40.140  13.190  1.00  0.00     0.138 C 
HETATM   19  C7  UNL     1      10.643  41.070  12.625  1.00  0.00    -0.002 C 
BRANCH  19  20
HETATM   20  C8  UNL     1      10.595  42.483  13.010  1.00  0.00     0.029 C 
BRANCH  20  21
HETATM   21  C9  UNL     1      10.973  43.404  11.912  1.00  0.00     0.004 C 
BRANCH  21  22
HETATM   22  C10 UNL     1      12.159  43.064  11.108  1.00  0.00     0.001 C 
BRANCH  22  23
HETATM   23  C11 UNL     1      13.331  43.967  11.090  1.00  0.00     0.005 C 
BRANCH  23  24
HETATM   24  C12 UNL     1      14.278  43.974  12.219  1.00  0.00    -0.012 C 
HETATM   25  C13 UNL     1      14.415  42.737  12.996  1.00  0.00     0.007 C 
HETATM   26  C14 UNL     1      14.831  43.038  14.453  1.00  0.00     0.034 C 
HETATM   27  C15 UNL     1      15.834  44.160  14.431  1.00  0.00     0.147 C 
HETATM   28  C16 UNL     1      15.141  45.437  14.007  1.00  0.00     0.147 C 
HETATM   29  C17 UNL     1      13.934  45.153  13.155  1.00  0.00     0.039 C 
BRANCH  27  30
HETATM   30  O5  UNL     1      16.374  44.336  15.694  1.00  0.00    -0.393 OA
ATOM     31  H5  UNL     1      16.851  43.557  15.954  1.00  0.00     0.210 HD
ENDBRANCH  27  30
BRANCH  28  32
HETATM   32  O6  UNL     1      16.089  46.211  13.335  1.00  0.00    -0.393 OA
ATOM     33  H6  UNL     1      15.626  46.689  12.657  1.00  0.00     0.210 HD
ENDBRANCH  28  32
ENDBRANCH  23  24
ENDBRANCH  22  23
ENDBRANCH  21  22
ENDBRANCH  20  21
ENDBRANCH  19  20
ENDBRANCH  17  18
ENDBRANCH   3  17
BRANCH   2  34
HETATM   34  O3  UNL     1      12.253  38.335  11.087  1.00  0.00    -0.386 OA
ATOM     35  H3  UNL     1      11.967  39.219  11.289  1.00  0.00     0.210 HD
ENDBRANCH   2  34
BRANCH   1  36
HETATM   36  O2  UNL     1      14.165  36.768  11.497  1.00  0.00    -0.310 OA
BRANCH  36  37
HETATM   37  C2  UNL     1      14.382  35.666  10.716  1.00  0.00     0.255 C 
HETATM   38  C1  UNL     1      13.639  35.427   9.460  1.00  0.00     0.126 C 
HETATM   39  O1  UNL     1      15.248  34.832  11.090  1.00  0.00    -0.266 OA
ENDBRANCH  36  37
ENDBRANCH   1  36
BRANCH  16  40
HETATM   40  O8  UNL     1      14.503  38.481  13.385  1.00  0.00    -0.386 OA
ATOM     41  H8  UNL     1      15.382  38.484  13.744  1.00  0.00     0.210 HD
ENDBRANCH  16  40
TORSDOF 13
ENDMDL
