MODEL 1
REMARK VINA RESULT: -5.671606969      0.000      0.000
REMARK  6 active torsions:
REMARK  status: ('A' for Active; 'I' for Inactive)
REMARK    1  A    between atoms: C1_2  and  C2_3 
REMARK       I    between atoms: C1_2  and  N1_5 
REMARK    2  A    between atoms: N1_5  and  C3_7 
REMARK    3  A    between atoms: C3_7  and  C4_8 
REMARK    4  A    between atoms: C3_7  and  C5_10 
REMARK       I    between atoms: C5_10  and  N2_12 
REMARK    5  A    between atoms: C10_17  and  C11_18 
REMARK       I    between atoms: C11_18  and  N3_20 
REMARK    6  A    between atoms: N3_20  and  C12_22 
ROOT
HETATM    1  C5  UNL     1      11.744  26.664  23.356  1.00  0.00     0.244 C 
HETATM    2  O2  UNL     1      11.278  27.802  23.038  1.00  0.00    -0.271 OA
HETATM    3  N2  UNL     1      11.598  25.612  22.436  1.00  0.00    -0.337 N 
HETATM    4  C6  UNL     1      10.862  25.899  21.198  1.00  0.00     0.127 C 
HETATM    5  C7  UNL     1      11.430  25.156  20.043  1.00  0.00     0.020 C 
HETATM    6  C8  UNL     1      12.893  24.813  20.220  1.00  0.00     0.004 C 
HETATM    7  C9  UNL     1      13.160  24.071  21.486  1.00  0.00     0.035 C 
HETATM    8  C10 UNL     1      12.116  24.280  22.560  1.00  0.00     0.179 C 
ENDROOT
BRANCH   8   9
HETATM    9  C11 UNL     1      11.083  23.222  22.550  1.00  0.00     0.241 C 
HETATM   10  O3  UNL     1      10.190  23.256  23.435  1.00  0.00    -0.271 OA
HETATM   11  N3  UNL     1      11.031  22.178  21.613  1.00  0.00    -0.355 N 
ATOM     12  H3  UNL     1      11.748  22.137  20.887  1.00  0.00     0.162 HD
BRANCH  11  13
HETATM   13  C12 UNL     1      10.008  21.159  21.631  1.00  0.00     0.087 C 
HETATM   14  C13 UNL     1      10.411  19.901  22.320  1.00  0.00     0.052 C 
HETATM   15  C14 UNL     1      10.683  18.760  21.372  1.00  0.00     0.234 C 
HETATM   16  N4  UNL     1       9.548  18.425  20.548  1.00  0.00    -0.075 N 
HETATM   17  C15 UNL     1       8.649  19.577  20.368  1.00  0.00     0.234 C 
ATOM     18  H42 UNL     1       9.840  18.037  19.651  1.00  0.00     0.277 HD
ATOM     19  H41 UNL     1       9.047  17.615  20.914  1.00  0.00     0.277 HD
HETATM   20  C16 UNL     1       9.586  20.780  20.210  1.00  0.00     0.052 C 
ENDBRANCH  11  13
ENDBRANCH   8   9
BRANCH   1  21
HETATM   21  C3  UNL     1      12.397  26.587  24.681  1.00  0.00     0.190 C 
BRANCH  21  22
HETATM   22  N1  UNL     1      13.436  27.630  24.803  1.00  0.00    -0.346 N 
HETATM   23  C1  UNL     1      14.681  27.508  24.128  1.00  0.00     0.232 C 
HETATM   24  O1  UNL     1      14.957  26.514  23.402  1.00  0.00    -0.272 OA
ATOM     25  H1  UNL     1      13.257  28.451  25.380  1.00  0.00     0.163 HD
BRANCH  23  26
HETATM   26  C2  UNL     1      15.716  28.574  24.266  1.00  0.00     0.217 C 
HETATM   27 CL1  UNL     1      17.305  27.983  23.737  1.00  0.00    -0.121 Cl
ENDBRANCH  23  26
ENDBRANCH  21  22
BRANCH  21  28
HETATM   28  C4  UNL     1      11.335  26.970  25.722  1.00  0.00     0.149 C 
HETATM   29 CL2  UNL     1      10.333  25.514  26.053  1.00  0.00    -0.128 Cl
ENDBRANCH  21  28
ENDBRANCH   1  21
TORSDOF 6
ENDMDL
MODEL 2
REMARK VINA RESULT: -5.635159544      4.164      7.411
REMARK  6 active torsions:
REMARK  status: ('A' for Active; 'I' for Inactive)
REMARK    1  A    between atoms: C1_2  and  C2_3 
REMARK       I    between atoms: C1_2  and  N1_5 
REMARK    2  A    between atoms: N1_5  and  C3_7 
REMARK    3  A    between atoms: C3_7  and  C4_8 
REMARK    4  A    between atoms: C3_7  and  C5_10 
REMARK       I    between atoms: C5_10  and  N2_12 
REMARK    5  A    between atoms: C10_17  and  C11_18 
REMARK       I    between atoms: C11_18  and  N3_20 
REMARK    6  A    between atoms: N3_20  and  C12_22 
ROOT
HETATM    1  C5  UNL     1       9.692  24.502  20.640  1.00  0.00     0.244 C 
HETATM    2  O2  UNL     1       8.783  25.267  21.088  1.00  0.00    -0.271 OA
HETATM    3  N2  UNL     1      11.017  24.971  20.665  1.00  0.00    -0.337 N 
HETATM    4  C6  UNL     1      11.238  26.337  21.156  1.00  0.00     0.127 C 
HETATM    5  C7  UNL     1      12.515  26.444  21.908  1.00  0.00     0.020 C 
HETATM    6  C8  UNL     1      12.955  25.132  22.521  1.00  0.00     0.004 C 
HETATM    7  C9  UNL     1      13.044  24.032  21.518  1.00  0.00     0.035 C 
HETATM    8  C10 UNL     1      12.195  24.246  20.285  1.00  0.00     0.179 C 
ENDROOT
BRANCH   8   9
HETATM    9  C11 UNL     1      12.959  24.863  19.180  1.00  0.00     0.241 C 
HETATM   10  O3  UNL     1      12.339  25.169  18.129  1.00  0.00    -0.271 OA
HETATM   11  N3  UNL     1      14.336  25.132  19.226  1.00  0.00    -0.355 N 
ATOM     12  H3  UNL     1      14.853  24.891  20.072  1.00  0.00     0.162 HD
BRANCH  11  13
HETATM   13  C12 UNL     1      15.054  25.736  18.127  1.00  0.00     0.087 C 
HETATM   14  C13 UNL     1      15.647  24.757  17.174  1.00  0.00     0.052 C 
HETATM   15  C14 UNL     1      17.146  24.637  17.297  1.00  0.00     0.234 C 
HETATM   16  N4  UNL     1      17.835  25.886  17.078  1.00  0.00    -0.075 N 
HETATM   17  C15 UNL     1      16.976  27.040  17.387  1.00  0.00     0.234 C 
ATOM     18  H42 UNL     1      18.712  25.924  17.599  1.00  0.00     0.277 HD
ATOM     19  H41 UNL     1      18.211  25.943  16.132  1.00  0.00     0.277 HD
HETATM   20  C16 UNL     1      16.194  26.620  18.637  1.00  0.00     0.052 C 
ENDBRANCH  11  13
ENDBRANCH   8   9
BRANCH   1  21
HETATM   21  C3  UNL     1       9.235  23.188  20.138  1.00  0.00     0.190 C 
BRANCH  21  22
HETATM   22  N1  UNL     1       9.502  22.136  21.139  1.00  0.00    -0.346 N 
HETATM   23  C1  UNL     1       9.606  20.770  20.759  1.00  0.00     0.232 C 
HETATM   24  O1  UNL     1       9.475  20.394  19.562  1.00  0.00    -0.272 OA
ATOM     25  H1  UNL     1       9.615  22.393  22.120  1.00  0.00     0.163 HD
BRANCH  23  26
HETATM   26  C2  UNL     1       9.877  19.724  21.788  1.00  0.00     0.217 C 
HETATM   27 CL1  UNL     1      10.600  18.281  21.047  1.00  0.00    -0.121 Cl
ENDBRANCH  23  26
ENDBRANCH  21  22
BRANCH  21  28
HETATM   28  C4  UNL     1       7.704  23.258  20.043  1.00  0.00     0.149 C 
HETATM   29 CL2  UNL     1       7.279  23.911  18.422  1.00  0.00    -0.128 Cl
ENDBRANCH  21  28
ENDBRANCH   1  21
TORSDOF 6
ENDMDL
MODEL 3
REMARK VINA RESULT: -5.630090262      1.162      1.162
REMARK  6 active torsions:
REMARK  status: ('A' for Active; 'I' for Inactive)
REMARK    1  A    between atoms: C1_2  and  C2_3 
REMARK       I    between atoms: C1_2  and  N1_5 
REMARK    2  A    between atoms: N1_5  and  C3_7 
REMARK    3  A    between atoms: C3_7  and  C4_8 
REMARK    4  A    between atoms: C3_7  and  C5_10 
REMARK       I    between atoms: C5_10  and  N2_12 
REMARK    5  A    between atoms: C10_17  and  C11_18 
REMARK       I    between atoms: C11_18  and  N3_20 
REMARK    6  A    between atoms: N3_20  and  C12_22 
ROOT
HETATM    1  C5  UNL     1      11.725  26.754  23.602  1.00  0.00     0.244 C 
HETATM    2  O2  UNL     1      11.404  27.918  23.208  1.00  0.00    -0.271 OA
HETATM    3  N2  UNL     1      11.674  25.706  22.667  1.00  0.00    -0.337 N 
HETATM    4  C6  UNL     1      11.196  26.032  21.318  1.00  0.00     0.127 C 
HETATM    5  C7  UNL     1      11.909  25.241  20.282  1.00  0.00     0.020 C 
HETATM    6  C8  UNL     1      13.289  24.800  20.719  1.00  0.00     0.004 C 
HETATM    7  C9  UNL     1      13.271  24.053  22.009  1.00  0.00     0.035 C 
HETATM    8  C10 UNL     1      12.068  24.343  22.878  1.00  0.00     0.179 C 
ENDROOT
BRANCH   8   9
HETATM    9  C11 UNL     1      10.982  23.359  22.677  1.00  0.00     0.241 C 
HETATM   10  O3  UNL     1       9.869  23.587  23.215  1.00  0.00    -0.271 OA
HETATM   11  N3  UNL     1      11.113  22.182  21.923  1.00  0.00    -0.355 N 
ATOM     12  H3  UNL     1      12.011  21.983  21.480  1.00  0.00     0.162 HD
BRANCH  11  13
HETATM   13  C12 UNL     1      10.033  21.240  21.748  1.00  0.00     0.087 C 
HETATM   14  C13 UNL     1      10.297  19.893  22.326  1.00  0.00     0.052 C 
HETATM   15  C14 UNL     1      10.581  18.840  21.283  1.00  0.00     0.234 C 
HETATM   16  N4  UNL     1       9.504  18.672  20.339  1.00  0.00    -0.075 N 
HETATM   17  C15 UNL     1       8.696  19.896  20.215  1.00  0.00     0.234 C 
ATOM     18  H42 UNL     1       9.849  18.360  19.431  1.00  0.00     0.277 HD
ATOM     19  H41 UNL     1       8.925  17.866  20.573  1.00  0.00     0.277 HD
HETATM   20  C16 UNL     1       9.714  21.042  20.265  1.00  0.00     0.052 C 
ENDBRANCH  11  13
ENDBRANCH   8   9
BRANCH   1  21
HETATM   21  C3  UNL     1      12.121  26.645  25.023  1.00  0.00     0.190 C 
BRANCH  21  22
HETATM   22  N1  UNL     1      12.589  27.952  25.527  1.00  0.00    -0.346 N 
HETATM   23  C1  UNL     1      13.972  28.276  25.554  1.00  0.00     0.232 C 
HETATM   24  O1  UNL     1      14.859  27.472  25.154  1.00  0.00    -0.272 OA
ATOM     25  H1  UNL     1      11.907  28.633  25.862  1.00  0.00     0.163 HD
BRANCH  23  26
HETATM   26  C2  UNL     1      14.422  29.603  26.069  1.00  0.00     0.217 C 
HETATM   27 CL1  UNL     1      15.891  29.434  27.051  1.00  0.00    -0.121 Cl
ENDBRANCH  23  26
ENDBRANCH  21  22
BRANCH  21  28
HETATM   28  C4  UNL     1      10.841  26.353  25.819  1.00  0.00     0.149 C 
HETATM   29 CL2  UNL     1      10.888  24.630  26.332  1.00  0.00    -0.128 Cl
ENDBRANCH  21  28
ENDBRANCH   1  21
TORSDOF 6
ENDMDL
MODEL 4
REMARK VINA RESULT: -5.577993278      1.584      3.042
REMARK  6 active torsions:
REMARK  status: ('A' for Active; 'I' for Inactive)
REMARK    1  A    between atoms: C1_2  and  C2_3 
REMARK       I    between atoms: C1_2  and  N1_5 
REMARK    2  A    between atoms: N1_5  and  C3_7 
REMARK    3  A    between atoms: C3_7  and  C4_8 
REMARK    4  A    between atoms: C3_7  and  C5_10 
REMARK       I    between atoms: C5_10  and  N2_12 
REMARK    5  A    between atoms: C10_17  and  C11_18 
REMARK       I    between atoms: C11_18  and  N3_20 
REMARK    6  A    between atoms: N3_20  and  C12_22 
ROOT
HETATM    1  C5  UNL     1      11.317  26.766  23.074  1.00  0.00     0.244 C 
HETATM    2  O2  UNL     1      10.855  27.839  22.578  1.00  0.00    -0.271 OA
HETATM    3  N2  UNL     1      11.335  25.619  22.260  1.00  0.00    -0.337 N 
HETATM    4  C6  UNL     1      10.761  25.741  20.915  1.00  0.00     0.127 C 
HETATM    5  C7  UNL     1      11.504  24.915  19.929  1.00  0.00     0.020 C 
HETATM    6  C8  UNL     1      12.943  24.668  20.328  1.00  0.00     0.004 C 
HETATM    7  C9  UNL     1      13.067  24.073  21.690  1.00  0.00     0.035 C 
HETATM    8  C10 UNL     1      11.882  24.335  22.592  1.00  0.00     0.179 C 
ENDROOT
BRANCH   8   9
HETATM    9  C11 UNL     1      10.900  23.230  22.563  1.00  0.00     0.241 C 
HETATM   10  O3  UNL     1       9.991  23.221  23.432  1.00  0.00    -0.271 OA
HETATM   11  N3  UNL     1      10.916  22.185  21.625  1.00  0.00    -0.355 N 
ATOM     12  H3  UNL     1      11.647  22.179  20.913  1.00  0.00     0.162 HD
BRANCH  11  13
HETATM   13  C12 UNL     1       9.942  21.119  21.624  1.00  0.00     0.087 C 
HETATM   14  C13 UNL     1      10.389  19.883  22.324  1.00  0.00     0.052 C 
HETATM   15  C14 UNL     1      10.734  18.755  21.383  1.00  0.00     0.234 C 
HETATM   16  N4  UNL     1       9.633  18.365  20.536  1.00  0.00    -0.075 N 
HETATM   17  C15 UNL     1       8.685  19.474  20.337  1.00  0.00     0.234 C 
ATOM     18  H42 UNL     1       9.961  17.991  19.646  1.00  0.00     0.277 HD
ATOM     19  H41 UNL     1       9.163  17.534  20.894  1.00  0.00     0.277 HD
HETATM   20  C16 UNL     1       9.567  20.720  20.195  1.00  0.00     0.052 C 
ENDBRANCH  11  13
ENDBRANCH   8   9
BRANCH   1  21
HETATM   21  C3  UNL     1      11.790  26.857  24.472  1.00  0.00     0.190 C 
BRANCH  21  22
HETATM   22  N1  UNL     1      11.495  25.605  25.197  1.00  0.00    -0.346 N 
HETATM   23  C1  UNL     1      11.074  25.623  26.554  1.00  0.00     0.232 C 
HETATM   24  O1  UNL     1      10.935  26.698  27.200  1.00  0.00    -0.272 OA
ATOM     25  H1  UNL     1      11.594  24.711  24.715  1.00  0.00     0.163 HD
BRANCH  23  26
HETATM   26  C2  UNL     1      10.782  24.344  27.267  1.00  0.00     0.217 C 
HETATM   27 CL1  UNL     1       9.201  23.698  26.780  1.00  0.00    -0.121 Cl
ENDBRANCH  23  26
ENDBRANCH  21  22
BRANCH  21  28
HETATM   28  C4  UNL     1      13.323  26.927  24.419  1.00  0.00     0.149 C 
HETATM   29 CL2  UNL     1      13.884  27.885  25.834  1.00  0.00    -0.128 Cl
ENDBRANCH  21  28
ENDBRANCH   1  21
TORSDOF 6
ENDMDL
MODEL 5
REMARK VINA RESULT: -5.536529675      4.322      7.271
REMARK  6 active torsions:
REMARK  status: ('A' for Active; 'I' for Inactive)
REMARK    1  A    between atoms: C1_2  and  C2_3 
REMARK       I    between atoms: C1_2  and  N1_5 
REMARK    2  A    between atoms: N1_5  and  C3_7 
REMARK    3  A    between atoms: C3_7  and  C4_8 
REMARK    4  A    between atoms: C3_7  and  C5_10 
REMARK       I    between atoms: C5_10  and  N2_12 
REMARK    5  A    between atoms: C10_17  and  C11_18 
REMARK       I    between atoms: C11_18  and  N3_20 
REMARK    6  A    between atoms: N3_20  and  C12_22 
ROOT
HETATM    1  C5  UNL     1      10.065  25.640  20.057  1.00  0.00     0.244 C 
HETATM    2  O2  UNL     1       9.404  26.653  20.444  1.00  0.00    -0.271 OA
HETATM    3  N2  UNL     1      11.459  25.771  19.934  1.00  0.00    -0.337 N 
HETATM    4  C6  UNL     1      12.035  27.093  20.207  1.00  0.00     0.127 C 
HETATM    5  C7  UNL     1      13.367  26.982  20.856  1.00  0.00     0.020 C 
HETATM    6  C8  UNL     1      13.545  25.691  21.625  1.00  0.00     0.004 C 
HETATM    7  C9  UNL     1      13.282  24.484  20.791  1.00  0.00     0.035 C 
HETATM    8  C10 UNL     1      12.395  24.739  19.593  1.00  0.00     0.179 C 
ENDROOT
BRANCH   8   9
HETATM    9  C11 UNL     1      13.175  25.007  18.365  1.00  0.00     0.241 C 
HETATM   10  O3  UNL     1      12.549  25.335  17.325  1.00  0.00    -0.271 OA
HETATM   11  N3  UNL     1      14.574  24.919  18.284  1.00  0.00    -0.355 N 
ATOM     12  H3  UNL     1      15.096  24.655  19.120  1.00  0.00     0.162 HD
BRANCH  11  13
HETATM   13  C12 UNL     1      15.306  25.186  17.068  1.00  0.00     0.087 C 
HETATM   14  C13 UNL     1      16.642  24.532  17.003  1.00  0.00     0.052 C 
HETATM   15  C14 UNL     1      17.789  25.494  17.192  1.00  0.00     0.234 C 
HETATM   16  N4  UNL     1      17.807  26.553  16.212  1.00  0.00    -0.075 N 
HETATM   17  C15 UNL     1      16.463  26.816  15.673  1.00  0.00     0.234 C 
ATOM     18  H42 UNL     1      18.231  27.402  16.587  1.00  0.00     0.277 HD
ATOM     19  H41 UNL     1      18.476  26.359  15.466  1.00  0.00     0.277 HD
HETATM   20  C16 UNL     1      15.527  26.689  16.881  1.00  0.00     0.052 C 
ENDBRANCH  11  13
ENDBRANCH   8   9
BRANCH   1  21
HETATM   21  C3  UNL     1       9.269  24.424  19.781  1.00  0.00     0.190 C 
BRANCH  21  22
HETATM   22  N1  UNL     1       9.183  23.582  20.991  1.00  0.00    -0.346 N 
HETATM   23  C1  UNL     1       9.762  22.284  21.027  1.00  0.00     0.232 C 
HETATM   24  O1  UNL     1      10.371  21.793  20.037  1.00  0.00    -0.272 OA
ATOM     25  H1  UNL     1       8.699  23.938  21.816  1.00  0.00     0.163 HD
BRANCH  23  26
HETATM   26  C2  UNL     1       9.661  21.451  22.261  1.00  0.00     0.217 C 
HETATM   27 CL1  UNL     1      10.814  20.102  22.208  1.00  0.00    -0.121 Cl
ENDBRANCH  23  26
ENDBRANCH  21  22
BRANCH  21  28
HETATM   28  C4  UNL     1       7.829  24.884  19.521  1.00  0.00     0.149 C 
HETATM   29 CL2  UNL     1       6.920  23.498  18.823  1.00  0.00    -0.128 Cl
ENDBRANCH  21  28
ENDBRANCH   1  21
TORSDOF 6
ENDMDL
