MODEL 1
REMARK VINA RESULT: -7.945670788      0.000      0.000
REMARK  7 active torsions:
REMARK  status: ('A' for Active; 'I' for Inactive)
REMARK    1  A    between atoms: C2_2  and  C5_5 
REMARK    2  A    between atoms: C5_5  and  C6_6 
REMARK       I    between atoms: C6_6  and  N1_8 
REMARK    3  A    between atoms: C9_11  and  N2_12 
REMARK    4  A    between atoms: C9_11  and  C17_24 
REMARK       I    between atoms: N2_12  and  C10_14 
REMARK       I    between atoms: C10_14  and  N3_16 
REMARK    5  A    between atoms: N3_16  and  C11_18 
REMARK       I    between atoms: C17_24  and  N4_26 
REMARK    6  A    between atoms: N4_26  and  C18_28 
REMARK    7  A    between atoms: C18_28  and  C19_29 
ROOT
HETATM    1  C6  UNL     1      29.983   0.468  59.097  1.00  0.00     0.222 C 
HETATM    2  O1  UNL     1      29.476  -0.382  58.292  1.00  0.00    -0.273 OA
HETATM    3  N1  UNL     1      29.373   1.755  59.247  1.00  0.00    -0.317 N 
HETATM    4  C7  UNL     1      29.633   2.910  60.035  1.00  0.00     0.133 C 
HETATM    5  C8  UNL     1      28.269   3.439  59.736  1.00  0.00     0.084 C 
HETATM    6  C9  UNL     1      28.238   2.424  58.662  1.00  0.00     0.196 C 
ENDROOT
BRANCH   6   7
HETATM    7  N2  UNL     1      27.011   1.607  58.762  1.00  0.00    -0.308 N 
HETATM    8  C10 UNL     1      25.780   2.095  58.354  1.00  0.00     0.318 C 
HETATM    9  O2  UNL     1      25.655   3.274  57.880  1.00  0.00    -0.247 OA
HETATM   10  N3  UNL     1      24.573   1.350  58.419  1.00  0.00    -0.338 N 
ATOM     11  H3  UNL     1      24.612   0.399  58.786  1.00  0.00     0.164 HD
ATOM     12  H2  UNL     1      27.072   0.662  59.140  1.00  0.00     0.167 HD
BRANCH  10  13
HETATM   13  C11 UNL     1      23.296   1.865  57.995  1.00  0.00     0.086 C 
HETATM   14  C12 UNL     1      23.342   1.997  56.481  1.00  0.00     0.025 C 
HETATM   15  C13 UNL     1      21.988   2.611  56.100  1.00  0.00     0.002 C 
HETATM   16  C14 UNL     1      20.958   1.544  56.279  1.00  0.00     0.000 C 
HETATM   17  C15 UNL     1      21.343   0.479  57.268  1.00  0.00     0.002 C 
HETATM   18  C16 UNL     1      22.123   1.030  58.439  1.00  0.00     0.025 C 
ENDBRANCH  10  13
ENDBRANCH   6   7
BRANCH   6  19
HETATM   19  C17 UNL     1      28.445   2.871  57.250  1.00  0.00     0.271 C 
HETATM   20  O3  UNL     1      28.755   4.060  57.031  1.00  0.00    -0.268 OA
HETATM   21  N4  UNL     1      28.293   1.957  56.211  1.00  0.00    -0.336 N 
ATOM     22  H4  UNL     1      28.032   1.015  56.501  1.00  0.00     0.168 HD
BRANCH  21  23
HETATM   23  C18 UNL     1      28.441   2.129  54.830  1.00  0.00     0.073 C 
BRANCH  23  24
HETATM   24  C19 UNL     1      29.117   1.144  53.958  1.00  0.00    -0.007 C 
HETATM   25  C20 UNL     1      28.464   0.712  52.704  1.00  0.00     0.019 C 
HETATM   26  C21 UNL     1      29.244  -0.440  52.073  1.00  0.00    -0.013 C 
HETATM   27  C22 UNL     1      30.636   0.057  51.673  1.00  0.00     0.009 C 
HETATM   28  C26 UNL     1      29.424  -1.614  52.985  1.00  0.00     0.009 C 
HETATM   29  C23 UNL     1      31.298   0.556  52.916  1.00  0.00    -0.013 C 
HETATM   30  C24 UNL     1      31.497  -0.545  53.939  1.00  0.00     0.009 C 
HETATM   31  C28 UNL     1      30.511   1.647  53.580  1.00  0.00     0.019 C 
HETATM   32  C25 UNL     1      30.152  -1.137  54.229  1.00  0.00    -0.013 C 
HETATM   33  C27 UNL     1      29.278  -0.108  54.864  1.00  0.00     0.019 C 
ENDBRANCH  23  24
ENDBRANCH  21  23
ENDBRANCH   6  19
BRANCH   1  34
HETATM   34  C5  UNL     1      31.196   0.045  59.834  1.00  0.00     0.111 C 
BRANCH  34  35
HETATM   35  C2  UNL     1      32.448   0.226  58.995  1.00  0.00    -0.043 C 
HETATM   36  C1  UNL     1      32.089  -0.034  57.543  1.00  0.00     0.015 C 
HETATM   37  C3  UNL     1      32.955   1.629  59.198  1.00  0.00     0.015 C 
HETATM   38  C4  UNL     1      33.471  -0.782  59.473  1.00  0.00     0.015 C 
ENDBRANCH  34  35
ENDBRANCH   1  34
TORSDOF 7
ENDMDL
MODEL 2
REMARK VINA RESULT: -7.945070793      0.695      1.619
REMARK  7 active torsions:
REMARK  status: ('A' for Active; 'I' for Inactive)
REMARK    1  A    between atoms: C2_2  and  C5_5 
REMARK    2  A    between atoms: C5_5  and  C6_6 
REMARK       I    between atoms: C6_6  and  N1_8 
REMARK    3  A    between atoms: C9_11  and  N2_12 
REMARK    4  A    between atoms: C9_11  and  C17_24 
REMARK       I    between atoms: N2_12  and  C10_14 
REMARK       I    between atoms: C10_14  and  N3_16 
REMARK    5  A    between atoms: N3_16  and  C11_18 
REMARK       I    between atoms: C17_24  and  N4_26 
REMARK    6  A    between atoms: N4_26  and  C18_28 
REMARK    7  A    between atoms: C18_28  and  C19_29 
ROOT
HETATM    1  C6  UNL     1      29.958   0.884  59.443  1.00  0.00     0.222 C 
HETATM    2  O1  UNL     1      29.563  -0.113  58.752  1.00  0.00    -0.273 OA
HETATM    3  N1  UNL     1      29.282   2.142  59.324  1.00  0.00    -0.317 N 
HETATM    4  C7  UNL     1      29.421   3.423  59.926  1.00  0.00     0.133 C 
HETATM    5  C8  UNL     1      28.069   3.817  59.431  1.00  0.00     0.084 C 
HETATM    6  C9  UNL     1      28.179   2.640  58.543  1.00  0.00     0.196 C 
ENDROOT
BRANCH   6   7
HETATM    7  N2  UNL     1      26.983   1.782  58.677  1.00  0.00    -0.308 N 
HETATM    8  C10 UNL     1      25.729   2.219  58.283  1.00  0.00     0.318 C 
HETATM    9  O2  UNL     1      25.553   3.385  57.793  1.00  0.00    -0.247 OA
HETATM   10  N3  UNL     1      24.550   1.432  58.380  1.00  0.00    -0.338 N 
ATOM     11  H3  UNL     1      24.630   0.490  58.761  1.00  0.00     0.164 HD
ATOM     12  H2  UNL     1      27.084   0.845  59.069  1.00  0.00     0.167 HD
BRANCH  10  13
HETATM   13  C11 UNL     1      23.249   1.895  57.970  1.00  0.00     0.086 C 
HETATM   14  C12 UNL     1      23.266   2.004  56.454  1.00  0.00     0.025 C 
HETATM   15  C13 UNL     1      21.884   2.563  56.087  1.00  0.00     0.002 C 
HETATM   16  C14 UNL     1      20.896   1.463  56.299  1.00  0.00     0.000 C 
HETATM   17  C15 UNL     1      21.335   0.428  57.297  1.00  0.00     0.002 C 
HETATM   18  C16 UNL     1      22.115   1.026  58.446  1.00  0.00     0.025 C 
ENDBRANCH  10  13
ENDBRANCH   6   7
BRANCH   6  19
HETATM   19  C17 UNL     1      28.494   2.862  57.099  1.00  0.00     0.271 C 
HETATM   20  O3  UNL     1      28.531   4.030  56.659  1.00  0.00    -0.268 OA
HETATM   21  N4  UNL     1      28.741   1.768  56.273  1.00  0.00    -0.336 N 
ATOM     22  H4  UNL     1      28.677   0.860  56.733  1.00  0.00     0.168 HD
BRANCH  21  23
HETATM   23  C18 UNL     1      29.063   1.719  54.913  1.00  0.00     0.073 C 
BRANCH  23  24
HETATM   24  C19 UNL     1      29.741   0.568  54.280  1.00  0.00    -0.007 C 
HETATM   25  C20 UNL     1      30.818  -0.136  55.010  1.00  0.00     0.019 C 
HETATM   26  C21 UNL     1      31.496  -1.154  54.095  1.00  0.00    -0.013 C 
HETATM   27  C22 UNL     1      30.481  -2.230  53.702  1.00  0.00     0.009 C 
HETATM   28  C26 UNL     1      32.041  -0.558  52.834  1.00  0.00     0.009 C 
HETATM   29  C23 UNL     1      29.351  -1.537  53.012  1.00  0.00    -0.013 C 
HETATM   30  C24 UNL     1      29.794  -0.856  51.733  1.00  0.00     0.009 C 
HETATM   31  C28 UNL     1      28.713  -0.491  53.879  1.00  0.00     0.019 C 
HETATM   32  C25 UNL     1      30.892   0.098  52.088  1.00  0.00    -0.013 C 
HETATM   33  C27 UNL     1      30.359   1.165  52.986  1.00  0.00     0.019 C 
ENDBRANCH  23  24
ENDBRANCH  21  23
ENDBRANCH   6  19
BRANCH   1  34
HETATM   34  C5  UNL     1      31.116   0.657  60.337  1.00  0.00     0.111 C 
BRANCH  34  35
HETATM   35  C2  UNL     1      32.420   0.613  59.560  1.00  0.00    -0.043 C 
HETATM   36  C1  UNL     1      32.834  -0.839  59.409  1.00  0.00     0.015 C 
HETATM   37  C3  UNL     1      32.195   1.267  58.222  1.00  0.00     0.015 C 
HETATM   38  C4  UNL     1      33.456   1.377  60.357  1.00  0.00     0.015 C 
ENDBRANCH  34  35
ENDBRANCH   1  34
TORSDOF 7
ENDMDL
MODEL 3
REMARK VINA RESULT: -7.383706088      1.829      2.763
REMARK  7 active torsions:
REMARK  status: ('A' for Active; 'I' for Inactive)
REMARK    1  A    between atoms: C2_2  and  C5_5 
REMARK    2  A    between atoms: C5_5  and  C6_6 
REMARK       I    between atoms: C6_6  and  N1_8 
REMARK    3  A    between atoms: C9_11  and  N2_12 
REMARK    4  A    between atoms: C9_11  and  C17_24 
REMARK       I    between atoms: N2_12  and  C10_14 
REMARK       I    between atoms: C10_14  and  N3_16 
REMARK    5  A    between atoms: N3_16  and  C11_18 
REMARK       I    between atoms: C17_24  and  N4_26 
REMARK    6  A    between atoms: N4_26  and  C18_28 
REMARK    7  A    between atoms: C18_28  and  C19_29 
ROOT
HETATM    1  C6  UNL     1      29.360   2.469  57.154  1.00  0.00     0.222 C 
HETATM    2  O1  UNL     1      28.420   1.607  57.185  1.00  0.00    -0.273 OA
HETATM    3  N1  UNL     1      29.180   3.690  56.427  1.00  0.00    -0.317 N 
HETATM    4  C7  UNL     1      29.968   4.851  56.192  1.00  0.00     0.133 C 
HETATM    5  C8  UNL     1      28.763   5.588  55.711  1.00  0.00     0.084 C 
HETATM    6  C9  UNL     1      28.126   4.257  55.625  1.00  0.00     0.196 C 
ENDROOT
BRANCH   6   7
HETATM    7  N2  UNL     1      26.834   4.258  56.342  1.00  0.00    -0.308 N 
HETATM    8  C10 UNL     1      25.921   3.228  56.193  1.00  0.00     0.318 C 
HETATM    9  O2  UNL     1      26.155   2.236  55.423  1.00  0.00    -0.247 OA
HETATM   10  N3  UNL     1      24.670   3.175  56.864  1.00  0.00    -0.338 N 
ATOM     11  H3  UNL     1      24.429   3.938  57.495  1.00  0.00     0.164 HD
ATOM     12  H2  UNL     1      26.609   5.037  56.962  1.00  0.00     0.167 HD
BRANCH  10  13
HETATM   13  C11 UNL     1      23.724   2.100  56.702  1.00  0.00     0.086 C 
HETATM   14  C12 UNL     1      23.022   1.911  58.037  1.00  0.00     0.025 C 
HETATM   15  C13 UNL     1      22.084   0.716  57.819  1.00  0.00     0.002 C 
HETATM   16  C14 UNL     1      20.963   1.190  56.953  1.00  0.00     0.000 C 
HETATM   17  C15 UNL     1      21.313   2.371  56.090  1.00  0.00     0.002 C 
HETATM   18  C16 UNL     1      22.737   2.319  55.586  1.00  0.00     0.025 C 
ENDBRANCH  10  13
ENDBRANCH   6   7
BRANCH   6  19
HETATM   19  C17 UNL     1      27.966   3.627  54.279  1.00  0.00     0.271 C 
HETATM   20  O3  UNL     1      27.304   4.224  53.405  1.00  0.00    -0.268 OA
HETATM   21  N4  UNL     1      28.559   2.392  54.023  1.00  0.00    -0.336 N 
ATOM     22  H4  UNL     1      29.070   1.990  54.808  1.00  0.00     0.168 HD
BRANCH  21  23
HETATM   23  C18 UNL     1      28.562   1.618  52.859  1.00  0.00     0.073 C 
BRANCH  23  24
HETATM   24  C19 UNL     1      29.188   0.281  52.775  1.00  0.00    -0.007 C 
HETATM   25  C20 UNL     1      28.805  -0.766  53.746  1.00  0.00     0.019 C 
HETATM   26  C21 UNL     1      29.712  -1.986  53.591  1.00  0.00    -0.013 C 
HETATM   27  C22 UNL     1      29.495  -2.599  52.205  1.00  0.00     0.009 C 
HETATM   28  C26 UNL     1      31.169  -1.672  53.729  1.00  0.00     0.009 C 
HETATM   29  C23 UNL     1      29.819  -1.541  51.202  1.00  0.00    -0.013 C 
HETATM   30  C24 UNL     1      31.270  -1.109  51.275  1.00  0.00     0.009 C 
HETATM   31  C28 UNL     1      28.978  -0.311  51.381  1.00  0.00     0.019 C 
HETATM   32  C25 UNL     1      31.531  -0.642  52.673  1.00  0.00    -0.013 C 
HETATM   33  C27 UNL     1      30.704   0.567  52.961  1.00  0.00     0.019 C 
ENDBRANCH  23  24
ENDBRANCH  21  23
ENDBRANCH   6  19
BRANCH   1  34
HETATM   34  C5  UNL     1      30.598   2.129  57.893  1.00  0.00     0.111 C 
BRANCH  34  35
HETATM   35  C2  UNL     1      31.472   1.171  57.104  1.00  0.00    -0.043 C 
HETATM   36  C1  UNL     1      30.664  -0.081  56.814  1.00  0.00     0.015 C 
HETATM   37  C3  UNL     1      31.902   1.859  55.835  1.00  0.00     0.015 C 
HETATM   38  C4  UNL     1      32.674   0.835  57.960  1.00  0.00     0.015 C 
ENDBRANCH  34  35
ENDBRANCH   1  34
TORSDOF 7
ENDMDL
MODEL 4
REMARK VINA RESULT: -7.293093338      1.651      2.649
REMARK  7 active torsions:
REMARK  status: ('A' for Active; 'I' for Inactive)
REMARK    1  A    between atoms: C2_2  and  C5_5 
REMARK    2  A    between atoms: C5_5  and  C6_6 
REMARK       I    between atoms: C6_6  and  N1_8 
REMARK    3  A    between atoms: C9_11  and  N2_12 
REMARK    4  A    between atoms: C9_11  and  C17_24 
REMARK       I    between atoms: N2_12  and  C10_14 
REMARK       I    between atoms: C10_14  and  N3_16 
REMARK    5  A    between atoms: N3_16  and  C11_18 
REMARK       I    between atoms: C17_24  and  N4_26 
REMARK    6  A    between atoms: N4_26  and  C18_28 
REMARK    7  A    between atoms: C18_28  and  C19_29 
ROOT
HETATM    1  C6  UNL     1      29.097   2.183  57.590  1.00  0.00     0.222 C 
HETATM    2  O1  UNL     1      28.129   1.356  57.520  1.00  0.00    -0.273 OA
HETATM    3  N1  UNL     1      29.017   3.431  56.890  1.00  0.00    -0.317 N 
HETATM    4  C7  UNL     1      29.860   4.568  56.755  1.00  0.00     0.133 C 
HETATM    5  C8  UNL     1      28.722   5.362  56.204  1.00  0.00     0.084 C 
HETATM    6  C9  UNL     1      28.049   4.058  56.027  1.00  0.00     0.196 C 
ENDROOT
BRANCH   6   7
HETATM    7  N2  UNL     1      26.705   4.086  56.641  1.00  0.00    -0.308 N 
HETATM    8  C10 UNL     1      25.781   3.081  56.407  1.00  0.00     0.318 C 
HETATM    9  O2  UNL     1      26.050   2.092  55.646  1.00  0.00    -0.247 OA
HETATM   10  N3  UNL     1      24.481   3.054  56.978  1.00  0.00    -0.338 N 
ATOM     11  H3  UNL     1      24.210   3.817  57.598  1.00  0.00     0.164 HD
ATOM     12  H2  UNL     1      26.452   4.863  57.251  1.00  0.00     0.167 HD
BRANCH  10  13
HETATM   13  C11 UNL     1      23.523   2.006  56.729  1.00  0.00     0.086 C 
HETATM   14  C12 UNL     1      22.765   1.769  58.024  1.00  0.00     0.025 C 
HETATM   15  C13 UNL     1      21.816   0.603  57.715  1.00  0.00     0.002 C 
HETATM   16  C14 UNL     1      20.739   1.138  56.828  1.00  0.00     0.000 C 
HETATM   17  C15 UNL     1      21.143   2.352  56.037  1.00  0.00     0.002 C 
HETATM   18  C16 UNL     1      22.586   2.296  55.587  1.00  0.00     0.025 C 
ENDBRANCH  10  13
ENDBRANCH   6   7
BRANCH   6  19
HETATM   19  C17 UNL     1      27.975   3.474  54.653  1.00  0.00     0.271 C 
HETATM   20  O3  UNL     1      27.396   4.115  53.752  1.00  0.00    -0.268 OA
HETATM   21  N4  UNL     1      28.554   2.232  54.403  1.00  0.00    -0.336 N 
ATOM     22  H4  UNL     1      28.994   1.792  55.210  1.00  0.00     0.168 HD
BRANCH  21  23
HETATM   23  C18 UNL     1      28.625   1.493  53.217  1.00  0.00     0.073 C 
BRANCH  23  24
HETATM   24  C19 UNL     1      29.499   0.312  53.048  1.00  0.00    -0.007 C 
HETATM   25  C20 UNL     1      30.926   0.400  53.428  1.00  0.00     0.019 C 
HETATM   26  C21 UNL     1      31.667  -0.861  52.987  1.00  0.00    -0.013 C 
HETATM   27  C22 UNL     1      31.103  -2.065  53.746  1.00  0.00     0.009 C 
HETATM   28  C26 UNL     1      31.547  -1.148  51.523  1.00  0.00     0.009 C 
HETATM   29  C23 UNL     1      29.646  -2.143  53.427  1.00  0.00    -0.013 C 
HETATM   30  C24 UNL     1      29.397  -2.391  51.952  1.00  0.00     0.009 C 
HETATM   31  C28 UNL     1      28.915  -0.886  53.798  1.00  0.00     0.019 C 
HETATM   32  C25 UNL     1      30.071  -1.292  51.191  1.00  0.00    -0.013 C 
HETATM   33  C27 UNL     1      29.433   0.015  51.524  1.00  0.00     0.019 C 
ENDBRANCH  23  24
ENDBRANCH  21  23
ENDBRANCH   6  19
BRANCH   1  34
HETATM   34  C5  UNL     1      30.260   1.777  58.411  1.00  0.00     0.111 C 
BRANCH  34  35
HETATM   35  C2  UNL     1      31.209   0.884  57.632  1.00  0.00    -0.043 C 
HETATM   36  C1  UNL     1      30.380  -0.087  56.811  1.00  0.00     0.015 C 
HETATM   37  C3  UNL     1      32.067   1.756  56.756  1.00  0.00     0.015 C 
HETATM   38  C4  UNL     1      32.061   0.134  58.633  1.00  0.00     0.015 C 
ENDBRANCH  34  35
ENDBRANCH   1  34
TORSDOF 7
ENDMDL
MODEL 5
REMARK VINA RESULT: -7.291611239      2.944      6.019
REMARK  7 active torsions:
REMARK  status: ('A' for Active; 'I' for Inactive)
REMARK    1  A    between atoms: C2_2  and  C5_5 
REMARK    2  A    between atoms: C5_5  and  C6_6 
REMARK       I    between atoms: C6_6  and  N1_8 
REMARK    3  A    between atoms: C9_11  and  N2_12 
REMARK    4  A    between atoms: C9_11  and  C17_24 
REMARK       I    between atoms: N2_12  and  C10_14 
REMARK       I    between atoms: C10_14  and  N3_16 
REMARK    5  A    between atoms: N3_16  and  C11_18 
REMARK       I    between atoms: C17_24  and  N4_26 
REMARK    6  A    between atoms: N4_26  and  C18_28 
REMARK    7  A    between atoms: C18_28  and  C19_29 
ROOT
HETATM    1  C6  UNL     1      27.077   5.265  56.222  1.00  0.00     0.222 C 
HETATM    2  O1  UNL     1      28.280   5.298  56.646  1.00  0.00    -0.273 OA
HETATM    3  N1  UNL     1      26.114   4.435  56.883  1.00  0.00    -0.317 N 
HETATM    4  C7  UNL     1      24.729   4.165  56.713  1.00  0.00     0.133 C 
HETATM    5  C8  UNL     1      24.668   3.548  58.070  1.00  0.00     0.084 C 
HETATM    6  C9  UNL     1      26.144   3.522  57.997  1.00  0.00     0.196 C 
ENDROOT
BRANCH   6   7
HETATM    7  N2  UNL     1      26.729   4.148  59.201  1.00  0.00    -0.308 N 
HETATM    8  C10 UNL     1      26.643   3.547  60.446  1.00  0.00     0.318 C 
HETATM    9  O2  UNL     1      26.047   2.429  60.605  1.00  0.00    -0.247 OA
HETATM   10  N3  UNL     1      27.195   4.100  61.632  1.00  0.00    -0.338 N 
ATOM     11  H3  UNL     1      27.685   4.991  61.566  1.00  0.00     0.164 HD
ATOM     12  H2  UNL     1      27.208   5.045  59.113  1.00  0.00     0.167 HD
BRANCH  10  13
HETATM   13  C11 UNL     1      27.099   3.469  62.924  1.00  0.00     0.086 C 
HETATM   14  C12 UNL     1      28.506   3.070  63.338  1.00  0.00     0.025 C 
HETATM   15  C13 UNL     1      28.329   2.347  64.680  1.00  0.00     0.002 C 
HETATM   16  C14 UNL     1      27.999   3.388  65.698  1.00  0.00     0.000 C 
HETATM   17  C15 UNL     1      27.367   4.627  65.126  1.00  0.00     0.002 C 
HETATM   18  C16 UNL     1      26.438   4.324  63.973  1.00  0.00     0.025 C 
ENDBRANCH  10  13
ENDBRANCH   6   7
BRANCH   6  19
HETATM   19  C17 UNL     1      26.823   2.221  57.713  1.00  0.00     0.271 C 
HETATM   20  O3  UNL     1      26.149   1.171  57.722  1.00  0.00    -0.268 OA
HETATM   21  N4  UNL     1      28.189   2.204  57.440  1.00  0.00    -0.336 N 
ATOM     22  H4  UNL     1      28.644   3.116  57.464  1.00  0.00     0.168 HD
BRANCH  21  23
HETATM   23  C18 UNL     1      29.035   1.132  57.137  1.00  0.00     0.073 C 
BRANCH  23  24
HETATM   24  C19 UNL     1      29.569   0.876  55.782  1.00  0.00    -0.007 C 
HETATM   25  C20 UNL     1      30.148   1.992  55.004  1.00  0.00     0.019 C 
HETATM   26  C21 UNL     1      30.453   1.538  53.578  1.00  0.00    -0.013 C 
HETATM   27  C22 UNL     1      31.528   0.450  53.617  1.00  0.00     0.009 C 
HETATM   28  C26 UNL     1      29.264   0.980  52.859  1.00  0.00     0.009 C 
HETATM   29  C23 UNL     1      30.990  -0.669  54.448  1.00  0.00    -0.013 C 
HETATM   30  C24 UNL     1      29.751  -1.291  53.836  1.00  0.00     0.009 C 
HETATM   31  C28 UNL     1      30.629  -0.224  55.835  1.00  0.00     0.019 C 
HETATM   32  C25 UNL     1      28.740  -0.200  53.660  1.00  0.00    -0.013 C 
HETATM   33  C27 UNL     1      28.343   0.337  54.994  1.00  0.00     0.019 C 
ENDBRANCH  23  24
ENDBRANCH  21  23
ENDBRANCH   6  19
BRANCH   1  34
HETATM   34  C5  UNL     1      26.763   6.109  55.047  1.00  0.00     0.111 C 
BRANCH  34  35
HETATM   35  C2  UNL     1      27.200   5.447  53.752  1.00  0.00    -0.043 C 
HETATM   36  C1  UNL     1      28.604   5.923  53.426  1.00  0.00     0.015 C 
HETATM   37  C3  UNL     1      27.152   3.955  53.945  1.00  0.00     0.015 C 
HETATM   38  C4  UNL     1      26.234   5.874  52.669  1.00  0.00     0.015 C 
ENDBRANCH  34  35
ENDBRANCH   1  34
TORSDOF 7
ENDMDL
