MODEL 1
REMARK VINA RESULT: -7.888392608      0.000      0.000
REMARK  5 active torsions:
REMARK  status: ('A' for Active; 'I' for Inactive)
REMARK    1  A    between atoms: C2_2  and  C3_3 
REMARK    2  A    between atoms: C2_2  and  C30_36 
REMARK    3  A    between atoms: C3_3  and  C4_4 
REMARK    4  A    between atoms: C4_4  and  N1_5 
REMARK    5  A    between atoms: C18_22  and  C19_23 
ROOT
HETATM    1  N1  UNL     1      24.185   4.035  56.375  1.00  0.00     0.093 N 
HETATM    2  C5  UNL     1      23.934   3.667  54.979  1.00  0.00     0.273 C 
HETATM    3  C6  UNL     1      25.177   4.184  54.291  1.00  0.00     0.042 C 
HETATM    4  C7  UNL     1      26.240   4.193  55.345  1.00  0.00    -0.004 C 
HETATM    5  C8  UNL     1      26.556   5.646  55.690  1.00  0.00     0.018 C 
HETATM    6  C9  UNL     1      25.569   3.581  56.524  1.00  0.00     0.231 C 
HETATM    7  C10 UNL     1      25.690   2.104  56.658  1.00  0.00     0.037 C 
HETATM    8  C11 UNL     1      27.066   1.594  56.279  1.00  0.00     0.008 C 
HETATM    9  C12 UNL     1      27.365   2.030  54.839  1.00  0.00    -0.001 C 
HETATM   10  C13 UNL     1      28.570   1.339  54.298  1.00  0.00    -0.005 C 
HETATM   11  C14 UNL     1      28.155  -0.071  53.854  1.00  0.00     0.006 C 
HETATM   12  C15 UNL     1      29.261  -0.836  53.210  1.00  0.00     0.008 C 
HETATM   13  C16 UNL     1      29.827  -0.012  52.049  1.00  0.00     0.028 C 
HETATM   14  C17 UNL     1      30.735  -0.736  51.151  1.00  0.00     0.237 A 
HETATM   15  N2  UNL     1      31.136  -2.076  51.608  1.00  0.00    -0.048 N 
ATOM     16  H21 UNL     1      31.039  -3.038  51.284  1.00  0.00     0.279 HD
ATOM     17  H22 UNL     1      30.881  -2.720  52.356  1.00  0.00     0.279 HD
HETATM   18  C18 UNL     1      32.102  -0.927  51.409  1.00  0.00     0.231 A 
HETATM   19  C20 UNL     1      32.745  -0.532  52.663  1.00  0.00     0.051 C 
HETATM   20  C21 UNL     1      32.698   0.936  53.001  1.00  0.00     0.004 C 
HETATM   21  C22 UNL     1      31.340   1.179  53.659  1.00  0.00     0.010 C 
HETATM   22  C23 UNL     1      30.337   1.320  52.571  1.00  0.00    -0.034 C 
HETATM   23  C24 UNL     1      30.850   2.121  51.403  1.00  0.00     0.016 C 
HETATM   24  C25 UNL     1      29.118   2.040  53.093  1.00  0.00    -0.002 C 
HETATM   25  C26 UNL     1      29.356   3.508  53.315  1.00  0.00     0.006 C 
HETATM   26  C27 UNL     1      27.966   4.104  53.604  1.00  0.00     0.011 C 
HETATM   27  C28 UNL     1      27.520   3.537  54.907  1.00  0.00    -0.031 C 
HETATM   28  C29 UNL     1      28.570   3.852  55.954  1.00  0.00     0.016 C 
ENDROOT
BRANCH   1  29
HETATM   29  C4  UNL     1      23.302   3.291  57.246  1.00  0.00     0.273 C 
BRANCH  29  30
HETATM   30  C3  UNL     1      22.160   2.711  56.480  1.00  0.00     0.043 C 
BRANCH  30  31
HETATM   31  C2  UNL     1      21.377   1.647  57.145  1.00  0.00     0.072 C 
HETATM   32  C1  UNL     1      22.106   0.663  57.979  1.00  0.00     0.019 C 
BRANCH  31  33
HETATM   33  C30 UNL     1      20.613   0.855  56.111  1.00  0.00     0.234 C 
HETATM   34  N4  UNL     1      20.354   1.416  54.824  1.00  0.00    -0.062 NA
HETATM   35  O2  UNL     1      20.231  -0.292  56.441  1.00  0.00    -0.277 OA
ENDBRANCH  31  33
ENDBRANCH  30  31
ENDBRANCH  29  30
ENDBRANCH   1  29
BRANCH  18  36
HETATM   36  C19 UNL     1      33.037  -1.104  50.241  1.00  0.00     0.269 C 
HETATM   37  N3  UNL     1      32.606  -0.628  48.997  1.00  0.00    -0.060 NA
HETATM   38  O1  UNL     1      34.137  -1.648  50.384  1.00  0.00    -0.274 OA
ENDBRANCH  18  36
TORSDOF 5
ENDMDL
MODEL 2
REMARK VINA RESULT: -7.772274154      4.078      4.828
REMARK  5 active torsions:
REMARK  status: ('A' for Active; 'I' for Inactive)
REMARK    1  A    between atoms: C2_2  and  C3_3 
REMARK    2  A    between atoms: C2_2  and  C30_36 
REMARK    3  A    between atoms: C3_3  and  C4_4 
REMARK    4  A    between atoms: C4_4  and  N1_5 
REMARK    5  A    between atoms: C18_22  and  C19_23 
ROOT
HETATM    1  N1  UNL     1      24.264   3.285  56.525  1.00  0.00     0.093 N 
HETATM    2  C5  UNL     1      24.864   2.298  55.626  1.00  0.00     0.273 C 
HETATM    3  C6  UNL     1      26.229   2.895  55.369  1.00  0.00     0.042 C 
HETATM    4  C7  UNL     1      26.521   3.745  56.567  1.00  0.00    -0.004 C 
HETATM    5  C8  UNL     1      26.464   5.209  56.137  1.00  0.00     0.018 C 
HETATM    6  C9  UNL     1      25.365   3.489  57.468  1.00  0.00     0.231 C 
HETATM    7  C10 UNL     1      25.520   2.371  58.438  1.00  0.00     0.037 C 
HETATM    8  C11 UNL     1      26.913   2.301  59.031  1.00  0.00     0.008 C 
HETATM    9  C12 UNL     1      27.923   2.163  57.884  1.00  0.00    -0.001 C 
HETATM   10  C13 UNL     1      29.280   1.811  58.390  1.00  0.00    -0.005 C 
HETATM   11  C14 UNL     1      29.306   0.304  58.682  1.00  0.00     0.006 C 
HETATM   12  C15 UNL     1      30.646  -0.189  59.113  1.00  0.00     0.008 C 
HETATM   13  C16 UNL     1      31.687   0.211  58.062  1.00  0.00     0.028 C 
HETATM   14  C17 UNL     1      33.000  -0.430  58.206  1.00  0.00     0.237 A 
HETATM   15  N2  UNL     1      33.195  -1.194  59.448  1.00  0.00    -0.048 N 
ATOM     16  H21 UNL     1      33.380  -2.162  59.711  1.00  0.00     0.279 HD
ATOM     17  H22 UNL     1      32.625  -1.504  60.235  1.00  0.00     0.279 HD
HETATM   18  C18 UNL     1      34.004   0.030  59.073  1.00  0.00     0.231 A 
HETATM   19  C20 UNL     1      33.804   1.127  60.022  1.00  0.00     0.051 C 
HETATM   20  C21 UNL     1      33.449   2.465  59.426  1.00  0.00     0.004 C 
HETATM   21  C22 UNL     1      31.939   2.439  59.190  1.00  0.00     0.010 C 
HETATM   22  C23 UNL     1      31.702   1.721  57.910  1.00  0.00    -0.034 C 
HETATM   23  C24 UNL     1      32.705   2.079  56.844  1.00  0.00     0.016 C 
HETATM   24  C25 UNL     1      30.341   2.084  57.368  1.00  0.00    -0.002 C 
HETATM   25  C26 UNL     1      30.285   3.479  56.810  1.00  0.00     0.006 C 
HETATM   26  C27 UNL     1      28.924   3.576  56.099  1.00  0.00     0.011 C 
HETATM   27  C28 UNL     1      27.880   3.494  57.159  1.00  0.00    -0.031 C 
HETATM   28  C29 UNL     1      28.139   4.588  58.175  1.00  0.00     0.016 C 
ENDROOT
BRANCH   1  29
HETATM   29  C4  UNL     1      23.115   2.712  57.190  1.00  0.00     0.273 C 
BRANCH  29  30
HETATM   30  C3  UNL     1      22.060   2.334  56.203  1.00  0.00     0.043 C 
BRANCH  30  31
HETATM   31  C2  UNL     1      20.997   1.420  56.674  1.00  0.00     0.072 C 
HETATM   32  C1  UNL     1      21.394   0.256  57.501  1.00  0.00     0.019 C 
BRANCH  31  33
HETATM   33  C30 UNL     1      20.238   0.869  55.490  1.00  0.00     0.234 C 
HETATM   34  N4  UNL     1      20.211   1.589  54.257  1.00  0.00    -0.062 NA
HETATM   35  O2  UNL     1      19.652  -0.227  55.650  1.00  0.00    -0.277 OA
ENDBRANCH  31  33
ENDBRANCH  30  31
ENDBRANCH  29  30
ENDBRANCH   1  29
BRANCH  18  36
HETATM   36  C19 UNL     1      35.442  -0.263  58.730  1.00  0.00     0.269 C 
HETATM   37  N3  UNL     1      35.789  -0.265  57.375  1.00  0.00    -0.060 NA
HETATM   38  O1  UNL     1      36.272  -0.491  59.616  1.00  0.00    -0.274 OA
ENDBRANCH  18  36
TORSDOF 5
ENDMDL
MODEL 3
REMARK VINA RESULT: -7.464283967      3.967      4.998
REMARK  5 active torsions:
REMARK  status: ('A' for Active; 'I' for Inactive)
REMARK    1  A    between atoms: C2_2  and  C3_3 
REMARK    2  A    between atoms: C2_2  and  C30_36 
REMARK    3  A    between atoms: C3_3  and  C4_4 
REMARK    4  A    between atoms: C4_4  and  N1_5 
REMARK    5  A    between atoms: C18_22  and  C19_23 
ROOT
HETATM    1  N1  UNL     1      24.547   3.834  56.634  1.00  0.00     0.093 N 
HETATM    2  C5  UNL     1      25.613   4.600  55.983  1.00  0.00     0.273 C 
HETATM    3  C6  UNL     1      26.610   4.767  57.107  1.00  0.00     0.042 C 
HETATM    4  C7  UNL     1      26.369   3.611  58.027  1.00  0.00    -0.004 C 
HETATM    5  C8  UNL     1      25.741   4.146  59.311  1.00  0.00     0.018 C 
HETATM    6  C9  UNL     1      25.338   2.807  57.315  1.00  0.00     0.231 C 
HETATM    7  C10 UNL     1      25.843   1.751  56.397  1.00  0.00     0.037 C 
HETATM    8  C11 UNL     1      27.052   1.024  56.952  1.00  0.00     0.008 C 
HETATM    9  C12 UNL     1      28.149   2.057  57.238  1.00  0.00    -0.001 C 
HETATM   10  C13 UNL     1      29.457   1.401  57.520  1.00  0.00    -0.005 C 
HETATM   11  C14 UNL     1      30.092   1.001  56.181  1.00  0.00     0.006 C 
HETATM   12  C15 UNL     1      31.453   0.411  56.327  1.00  0.00     0.008 C 
HETATM   13  C16 UNL     1      32.337   1.384  57.114  1.00  0.00     0.028 C 
HETATM   14  C17 UNL     1      33.772   1.071  57.109  1.00  0.00     0.237 A 
HETATM   15  N2  UNL     1      34.130  -0.235  56.533  1.00  0.00    -0.048 N 
ATOM     16  H21 UNL     1      34.679  -0.583  55.746  1.00  0.00     0.279 HD
ATOM     17  H22 UNL     1      33.660  -0.984  56.025  1.00  0.00     0.279 HD
HETATM   18  C18 UNL     1      34.374   0.147  57.977  1.00  0.00     0.231 A 
HETATM   19  C20 UNL     1      33.615  -0.699  58.900  1.00  0.00     0.051 C 
HETATM   20  C21 UNL     1      32.793   0.021  59.939  1.00  0.00     0.004 C 
HETATM   21  C22 UNL     1      31.479   0.398  59.256  1.00  0.00     0.010 C 
HETATM   22  C23 UNL     1      31.722   1.641  58.478  1.00  0.00    -0.034 C 
HETATM   23  C24 UNL     1      32.592   2.629  59.211  1.00  0.00     0.016 C 
HETATM   24  C25 UNL     1      30.411   2.333  58.203  1.00  0.00    -0.002 C 
HETATM   25  C26 UNL     1      29.829   2.992  59.423  1.00  0.00     0.006 C 
HETATM   26  C27 UNL     1      28.649   3.834  58.904  1.00  0.00     0.011 C 
HETATM   27  C28 UNL     1      27.626   2.876  58.403  1.00  0.00    -0.031 C 
HETATM   28  C29 UNL     1      27.271   1.919  59.524  1.00  0.00     0.016 C 
ENDROOT
BRANCH   1  29
HETATM   29  C4  UNL     1      23.686   3.243  55.634  1.00  0.00     0.273 C 
BRANCH  29  30
HETATM   30  C3  UNL     1      22.320   2.997  56.185  1.00  0.00     0.043 C 
BRANCH  30  31
HETATM   31  C2  UNL     1      21.822   1.605  56.148  1.00  0.00     0.072 C 
HETATM   32  C1  UNL     1      20.603   1.321  55.353  1.00  0.00     0.019 C 
BRANCH  31  33
HETATM   33  C30 UNL     1      21.542   1.127  57.553  1.00  0.00     0.234 C 
HETATM   34  N4  UNL     1      22.622   0.818  58.434  1.00  0.00    -0.062 NA
HETATM   35  O2  UNL     1      20.339   1.021  57.889  1.00  0.00    -0.277 OA
ENDBRANCH  31  33
ENDBRANCH  30  31
ENDBRANCH  29  30
ENDBRANCH   1  29
BRANCH  18  36
HETATM   36  C19 UNL     1      35.828   0.330  58.329  1.00  0.00     0.269 C 
HETATM   37  N3  UNL     1      36.635  -0.814  58.332  1.00  0.00    -0.060 NA
HETATM   38  O1  UNL     1      36.280   1.447  58.602  1.00  0.00    -0.274 OA
ENDBRANCH  18  36
TORSDOF 5
ENDMDL
MODEL 4
REMARK VINA RESULT: -7.463762607      6.422      7.639
REMARK  5 active torsions:
REMARK  status: ('A' for Active; 'I' for Inactive)
REMARK    1  A    between atoms: C2_2  and  C3_3 
REMARK    2  A    between atoms: C2_2  and  C30_36 
REMARK    3  A    between atoms: C3_3  and  C4_4 
REMARK    4  A    between atoms: C4_4  and  N1_5 
REMARK    5  A    between atoms: C18_22  and  C19_23 
ROOT
HETATM    1  N1  UNL     1      26.112   2.323  57.480  1.00  0.00     0.093 N 
HETATM    2  C5  UNL     1      26.065   1.176  58.389  1.00  0.00     0.273 C 
HETATM    3  C6  UNL     1      27.319   0.422  58.009  1.00  0.00     0.042 C 
HETATM    4  C7  UNL     1      28.245   1.453  57.444  1.00  0.00    -0.004 C 
HETATM    5  C8  UNL     1      28.367   1.212  55.941  1.00  0.00     0.018 C 
HETATM    6  C9  UNL     1      27.509   2.731  57.642  1.00  0.00     0.231 C 
HETATM    7  C10 UNL     1      27.765   3.450  58.919  1.00  0.00     0.037 C 
HETATM    8  C11 UNL     1      29.221   3.397  59.336  1.00  0.00     0.008 C 
HETATM    9  C12 UNL     1      29.639   1.925  59.453  1.00  0.00    -0.001 C 
HETATM   10  C13 UNL     1      30.964   1.785  60.122  1.00  0.00    -0.005 C 
HETATM   11  C14 UNL     1      30.751   1.912  61.637  1.00  0.00     0.006 C 
HETATM   12  C15 UNL     1      31.998   1.700  62.427  1.00  0.00     0.008 C 
HETATM   13  C16 UNL     1      32.606   0.347  62.045  1.00  0.00     0.028 C 
HETATM   14  C17 UNL     1      33.683  -0.127  62.923  1.00  0.00     0.237 A 
HETATM   15  N2  UNL     1      34.164   0.850  63.912  1.00  0.00    -0.048 N 
ATOM     16  H21 UNL     1      34.206   0.930  64.929  1.00  0.00     0.279 HD
ATOM     17  H22 UNL     1      33.892   1.775  64.246  1.00  0.00     0.279 HD
HETATM   18  C18 UNL     1      35.022   0.275  62.806  1.00  0.00     0.231 A 
HETATM   19  C20 UNL     1      35.471   1.308  61.871  1.00  0.00     0.051 C 
HETATM   20  C21 UNL     1      35.234   1.031  60.409  1.00  0.00     0.004 C 
HETATM   21  C22 UNL     1      33.791   1.447  60.124  1.00  0.00     0.010 C 
HETATM   22  C23 UNL     1      32.912   0.329  60.557  1.00  0.00    -0.034 C 
HETATM   23  C24 UNL     1      33.472  -1.025  60.206  1.00  0.00     0.016 C 
HETATM   24  C25 UNL     1      31.573   0.439  59.871  1.00  0.00    -0.002 C 
HETATM   25  C26 UNL     1      31.630   0.074  58.413  1.00  0.00     0.006 C 
HETATM   26  C27 UNL     1      30.162   0.010  57.954  1.00  0.00     0.011 C 
HETATM   27  C28 UNL     1      29.628   1.398  58.031  1.00  0.00    -0.031 C 
HETATM   28  C29 UNL     1      30.511   2.301  57.191  1.00  0.00     0.016 C 
ENDROOT
BRANCH   1  29
HETATM   29  C4  UNL     1      25.215   3.358  57.946  1.00  0.00     0.273 C 
BRANCH  29  30
HETATM   30  C3  UNL     1      23.891   2.784  58.327  1.00  0.00     0.043 C 
BRANCH  30  31
HETATM   31  C2  UNL     1      23.077   2.193  57.242  1.00  0.00     0.072 C 
HETATM   32  C1  UNL     1      22.301   3.110  56.374  1.00  0.00     0.019 C 
BRANCH  31  33
HETATM   33  C30 UNL     1      22.090   1.209  57.823  1.00  0.00     0.234 C 
HETATM   34  N4  UNL     1      20.739   1.192  57.362  1.00  0.00    -0.062 NA
HETATM   35  O2  UNL     1      22.517   0.430  58.707  1.00  0.00    -0.277 OA
ENDBRANCH  31  33
ENDBRANCH  30  31
ENDBRANCH  29  30
ENDBRANCH   1  29
BRANCH  18  36
HETATM   36  C19 UNL     1      36.101  -0.662  63.286  1.00  0.00     0.269 C 
HETATM   37  N3  UNL     1      35.787  -2.025  63.341  1.00  0.00    -0.060 NA
HETATM   38  O1  UNL     1      37.212  -0.235  63.617  1.00  0.00    -0.274 OA
ENDBRANCH  18  36
TORSDOF 5
ENDMDL
MODEL 5
REMARK VINA RESULT: -7.429414389      3.535      4.311
REMARK  5 active torsions:
REMARK  status: ('A' for Active; 'I' for Inactive)
REMARK    1  A    between atoms: C2_2  and  C3_3 
REMARK    2  A    between atoms: C2_2  and  C30_36 
REMARK    3  A    between atoms: C3_3  and  C4_4 
REMARK    4  A    between atoms: C4_4  and  N1_5 
REMARK    5  A    between atoms: C18_22  and  C19_23 
ROOT
HETATM    1  N1  UNL     1      25.342   2.475  58.151  1.00  0.00     0.093 N 
HETATM    2  C5  UNL     1      25.785   2.822  56.799  1.00  0.00     0.273 C 
HETATM    3  C6  UNL     1      27.062   3.584  57.073  1.00  0.00     0.042 C 
HETATM    4  C7  UNL     1      27.555   3.072  58.390  1.00  0.00    -0.004 C 
HETATM    5  C8  UNL     1      27.382   4.179  59.427  1.00  0.00     0.018 C 
HETATM    6  C9  UNL     1      26.597   1.983  58.723  1.00  0.00     0.231 C 
HETATM    7  C10 UNL     1      26.960   0.619  58.252  1.00  0.00     0.037 C 
HETATM    8  C11 UNL     1      28.441   0.329  58.388  1.00  0.00     0.008 C 
HETATM    9  C12 UNL     1      29.218   1.393  57.603  1.00  0.00    -0.001 C 
HETATM   10  C13 UNL     1      30.654   1.024  57.456  1.00  0.00    -0.005 C 
HETATM   11  C14 UNL     1      30.772   0.004  56.315  1.00  0.00     0.006 C 
HETATM   12  C15 UNL     1      32.181  -0.379  56.011  1.00  0.00     0.008 C 
HETATM   13  C16 UNL     1      32.994   0.889  55.733  1.00  0.00     0.028 C 
HETATM   14  C17 UNL     1      34.326   0.666  55.156  1.00  0.00     0.237 A 
HETATM   15  N2  UNL     1      34.771  -0.736  55.124  1.00  0.00    -0.048 N 
ATOM     16  H21 UNL     1      35.025  -1.425  54.417  1.00  0.00     0.279 HD
ATOM     17  H22 UNL     1      34.368  -1.654  55.307  1.00  0.00     0.279 HD
HETATM   18  C18 UNL     1      35.464   0.353  55.916  1.00  0.00     0.231 A 
HETATM   19  C20 UNL     1      35.421   0.091  57.355  1.00  0.00     0.051 C 
HETATM   20  C21 UNL     1      34.927   1.221  58.222  1.00  0.00     0.004 C 
HETATM   21  C22 UNL     1      33.401   1.142  58.197  1.00  0.00     0.010 C 
HETATM   22  C23 UNL     1      32.943   1.802  56.945  1.00  0.00    -0.034 C 
HETATM   23  C24 UNL     1      33.718   3.055  56.627  1.00  0.00     0.016 C 
HETATM   24  C25 UNL     1      31.496   2.206  57.083  1.00  0.00    -0.002 C 
HETATM   25  C26 UNL     1      31.302   3.386  57.995  1.00  0.00     0.006 C 
HETATM   26  C27 UNL     1      29.828   3.795  57.820  1.00  0.00     0.011 C 
HETATM   27  C28 UNL     1      29.007   2.683  58.373  1.00  0.00    -0.031 C 
HETATM   28  C29 UNL     1      29.427   2.443  59.810  1.00  0.00     0.016 C 
ENDROOT
BRANCH   1  29
HETATM   29  C4  UNL     1      24.354   1.421  58.091  1.00  0.00     0.273 C 
BRANCH  29  30
HETATM   30  C3  UNL     1      22.982   1.985  57.917  1.00  0.00     0.043 C 
BRANCH  30  31
HETATM   31  C2  UNL     1      22.322   1.752  56.614  1.00  0.00     0.072 C 
HETATM   32  C1  UNL     1      22.123   2.914  55.715  1.00  0.00     0.019 C 
BRANCH  31  33
HETATM   33  C30 UNL     1      20.959   1.140  56.836  1.00  0.00     0.234 C 
HETATM   34  N4  UNL     1      20.202   0.654  55.727  1.00  0.00    -0.062 NA
HETATM   35  O2  UNL     1      20.546   1.084  58.018  1.00  0.00    -0.277 OA
ENDBRANCH  31  33
ENDBRANCH  30  31
ENDBRANCH  29  30
ENDBRANCH   1  29
BRANCH  18  36
HETATM   36  C19 UNL     1      36.818   0.739  55.378  1.00  0.00     0.269 C 
HETATM   37  N3  UNL     1      36.847   1.526  54.221  1.00  0.00    -0.060 NA
HETATM   38  O1  UNL     1      37.854   0.371  55.942  1.00  0.00    -0.274 OA
ENDBRANCH  18  36
TORSDOF 5
ENDMDL
