MODEL 1
REMARK VINA RESULT: -8.158200938      0.000      0.000
REMARK  6 active torsions:
REMARK  status: ('A' for Active; 'I' for Inactive)
REMARK    1  A    between atoms: C2_2  and  N1_3 
REMARK    2  A    between atoms: C2_2  and  N3_17 
REMARK       I    between atoms: N1_3  and  C3_5 
REMARK    3  A    between atoms: C3_5  and  C4_7 
REMARK       I    between atoms: C4_7  and  N2_9 
REMARK    4  A    between atoms: N2_9  and  C5_11 
REMARK    5  A    between atoms: C5_11  and  C6_12 
REMARK    6  A    between atoms: N3_17  and  C11_19 
ROOT
HETATM    1  C11 UNL     1      28.543   2.937  52.443  1.00  0.00     0.028 C 
HETATM    2  C12 UNL     1      29.938   3.214  52.002  1.00  0.00     0.032 C 
HETATM    3  C13 UNL     1      30.366   2.060  51.115  1.00  0.00     0.017 C 
HETATM    4  C14 UNL     1      29.414   0.956  50.994  1.00  0.00    -0.008 C 
HETATM    5  C15 UNL     1      30.219  -0.257  50.794  1.00  0.00     0.073 C 
HETATM    6  N4  UNL     1      30.934  -0.785  51.717  1.00  0.00    -0.365 N 
HETATM    7  C16 UNL     1      31.528  -1.971  51.062  1.00  0.00     0.131 C 
HETATM    8  C17 UNL     1      30.889  -3.099  51.963  1.00  0.00     0.047 C 
HETATM    9  C18 UNL     1      29.647  -2.768  52.647  1.00  0.00    -0.028 C 
HETATM   10  C19 UNL     1      29.235  -1.770  53.576  1.00  0.00    -0.015 C 
HETATM   11  C20 UNL     1      29.831  -0.410  53.828  1.00  0.00     0.020 C 
HETATM   12  C21 UNL     1      30.224  -0.158  55.264  1.00  0.00     0.020 C 
HETATM   13  C22 UNL     1      31.511  -0.775  55.683  1.00  0.00     0.002 C 
HETATM   14  C23 UNL     1      32.649  -0.054  55.029  1.00  0.00     0.006 C 
HETATM   15  C24 UNL     1      32.298   0.238  53.587  1.00  0.00     0.054 C 
HETATM   16  C25 UNL     1      31.223  -0.586  53.103  1.00  0.00     0.001 C 
HETATM   17  C26 UNL     1      29.301   0.791  53.288  1.00  0.00     0.007 C 
HETATM   18  C27 UNL     1      28.521   0.466  52.101  1.00  0.00     0.021 C 
HETATM   19  C28 UNL     1      28.511   1.955  53.655  1.00  0.00     0.036 C 
HETATM   20  C29 UNL     1      28.391   1.558  50.225  1.00  0.00     0.017 C 
HETATM   21  C30 UNL     1      27.777   2.588  51.214  1.00  0.00     0.032 C 
ENDROOT
BRANCH   1  22
HETATM   22  N3  UNL     1      27.894   4.054  52.998  1.00  0.00    -0.393 N 
ATOM     23  H3  UNL     1      28.504   4.658  53.548  1.00  0.00     0.156 HD
BRANCH  22  24
HETATM   24  C2  UNL     1      26.614   4.473  52.936  1.00  0.00     0.176 C 
HETATM   25  C1  UNL     1      26.342   5.944  53.110  1.00  0.00     0.055 C 
BRANCH  24  26
HETATM   26  N1  UNL     1      25.879   3.824  54.026  1.00  0.00    -0.333 N 
HETATM   27  C3  UNL     1      26.249   3.971  55.364  1.00  0.00     0.310 C 
HETATM   28  O1  UNL     1      27.248   4.688  55.645  1.00  0.00    -0.262 OA
ATOM     29  H1  UNL     1      25.070   3.246  53.799  1.00  0.00     0.165 HD
BRANCH  27  30
HETATM   30  C4  UNL     1      25.536   3.336  56.456  1.00  0.00     0.309 C 
HETATM   31  O2  UNL     1      25.691   3.778  57.647  1.00  0.00    -0.262 OA
HETATM   32  N2  UNL     1      24.666   2.235  56.253  1.00  0.00    -0.353 N 
ATOM     33  H2  UNL     1      24.536   1.869  55.309  1.00  0.00     0.162 HD
BRANCH  32  34
HETATM   34  C5  UNL     1      23.966   1.626  57.343  1.00  0.00     0.127 C 
BRANCH  34  35
HETATM   35  C6  UNL     1      22.609   2.273  57.582  1.00  0.00     0.003 C 
HETATM   36  C7  UNL     1      21.752   1.234  58.286  1.00  0.00     0.006 C 
HETATM   37  C8  UNL     1      21.320   0.366  57.145  1.00  0.00     0.000 C 
HETATM   38  C9  UNL     1      21.044   1.330  56.038  1.00  0.00     0.000 C 
HETATM   39  C10 UNL     1      21.898   2.537  56.268  1.00  0.00     0.006 C 
ENDBRANCH  34  35
ENDBRANCH  32  34
ENDBRANCH  27  30
ENDBRANCH  24  26
ENDBRANCH  22  24
ENDBRANCH   1  22
TORSDOF 6
ENDMDL
MODEL 2
REMARK VINA RESULT: -7.980586150      2.184      4.087
REMARK  6 active torsions:
REMARK  status: ('A' for Active; 'I' for Inactive)
REMARK    1  A    between atoms: C2_2  and  N1_3 
REMARK    2  A    between atoms: C2_2  and  N3_17 
REMARK       I    between atoms: N1_3  and  C3_5 
REMARK    3  A    between atoms: C3_5  and  C4_7 
REMARK       I    between atoms: C4_7  and  N2_9 
REMARK    4  A    between atoms: N2_9  and  C5_11 
REMARK    5  A    between atoms: C5_11  and  C6_12 
REMARK    6  A    between atoms: N3_17  and  C11_19 
ROOT
HETATM    1  C11 UNL     1      30.864   0.250  55.664  1.00  0.00     0.028 C 
HETATM    2  C12 UNL     1      32.236  -0.174  55.269  1.00  0.00     0.032 C 
HETATM    3  C13 UNL     1      32.580   0.559  53.987  1.00  0.00     0.017 C 
HETATM    4  C14 UNL     1      31.514   1.376  53.408  1.00  0.00    -0.008 C 
HETATM    5  C15 UNL     1      31.726   1.354  51.954  1.00  0.00     0.073 C 
HETATM    6  N4  UNL     1      31.521   0.316  51.230  1.00  0.00    -0.365 N 
HETATM    7  C16 UNL     1      31.844   0.777  49.862  1.00  0.00     0.131 C 
HETATM    8  C17 UNL     1      30.426   0.588  49.194  1.00  0.00     0.047 C 
HETATM    9  C18 UNL     1      29.274   0.612  50.083  1.00  0.00    -0.028 C 
HETATM   10  C19 UNL     1      28.855  -0.135  51.222  1.00  0.00    -0.015 C 
HETATM   11  C20 UNL     1      29.691  -0.922  52.195  1.00  0.00     0.020 C 
HETATM   12  C21 UNL     1      29.277  -2.366  52.347  1.00  0.00     0.020 C 
HETATM   13  C22 UNL     1      29.734  -3.271  51.258  1.00  0.00     0.002 C 
HETATM   14  C23 UNL     1      31.214  -3.470  51.358  1.00  0.00     0.006 C 
HETATM   15  C24 UNL     1      31.879  -2.149  51.676  1.00  0.00     0.054 C 
HETATM   16  C25 UNL     1      31.037  -1.021  51.376  1.00  0.00     0.001 C 
HETATM   17  C26 UNL     1      30.087  -0.430  53.467  1.00  0.00     0.007 C 
HETATM   18  C27 UNL     1      30.050   1.026  53.437  1.00  0.00     0.021 C 
HETATM   19  C28 UNL     1      29.771  -0.545  54.882  1.00  0.00     0.036 C 
HETATM   20  C29 UNL     1      31.438   2.434  54.343  1.00  0.00     0.017 C 
HETATM   21  C30 UNL     1      30.852   1.739  55.604  1.00  0.00     0.032 C 
ENDROOT
BRANCH   1  22
HETATM   22  N3  UNL     1      30.529  -0.085  56.988  1.00  0.00    -0.393 N 
ATOM     23  H3  UNL     1      30.462  -1.088  57.158  1.00  0.00     0.156 HD
BRANCH  22  24
HETATM   24  C2  UNL     1      30.280   0.676  58.073  1.00  0.00     0.176 C 
HETATM   25  C1  UNL     1      30.945   0.299  59.370  1.00  0.00     0.055 C 
BRANCH  24  26
HETATM   26  N1  UNL     1      28.843   0.598  58.353  1.00  0.00    -0.333 N 
HETATM   27  C3  UNL     1      28.020   1.726  58.341  1.00  0.00     0.310 C 
HETATM   28  O1  UNL     1      28.531   2.850  58.078  1.00  0.00    -0.262 OA
ATOM     29  H1  UNL     1      28.430  -0.311  58.563  1.00  0.00     0.165 HD
BRANCH  27  30
HETATM   30  C4  UNL     1      26.597   1.670  58.617  1.00  0.00     0.309 C 
HETATM   31  O2  UNL     1      26.187   1.806  59.821  1.00  0.00    -0.262 OA
HETATM   32  N2  UNL     1      25.636   1.470  57.595  1.00  0.00    -0.353 N 
ATOM     33  H2  UNL     1      25.949   1.355  56.631  1.00  0.00     0.162 HD
BRANCH  32  34
HETATM   34  C5  UNL     1      24.234   1.425  57.886  1.00  0.00     0.127 C 
BRANCH  34  35
HETATM   35  C6  UNL     1      23.567   2.777  57.684  1.00  0.00     0.003 C 
HETATM   36  C7  UNL     1      22.174   2.496  57.144  1.00  0.00     0.006 C 
HETATM   37  C8  UNL     1      22.451   2.232  55.697  1.00  0.00     0.000 C 
HETATM   38  C9  UNL     1      23.496   3.236  55.336  1.00  0.00     0.000 C 
HETATM   39  C10 UNL     1      24.257   3.561  56.583  1.00  0.00     0.006 C 
ENDBRANCH  34  35
ENDBRANCH  32  34
ENDBRANCH  27  30
ENDBRANCH  24  26
ENDBRANCH  22  24
ENDBRANCH   1  22
TORSDOF 6
ENDMDL
MODEL 3
REMARK VINA RESULT: -7.954331713      3.509      5.166
REMARK  6 active torsions:
REMARK  status: ('A' for Active; 'I' for Inactive)
REMARK    1  A    between atoms: C2_2  and  N1_3 
REMARK    2  A    between atoms: C2_2  and  N3_17 
REMARK       I    between atoms: N1_3  and  C3_5 
REMARK    3  A    between atoms: C3_5  and  C4_7 
REMARK       I    between atoms: C4_7  and  N2_9 
REMARK    4  A    between atoms: N2_9  and  C5_11 
REMARK    5  A    between atoms: C5_11  and  C6_12 
REMARK    6  A    between atoms: N3_17  and  C11_19 
ROOT
HETATM    1  C11 UNL     1      27.639   1.917  55.607  1.00  0.00     0.028 C 
HETATM    2  C12 UNL     1      27.957   0.682  56.377  1.00  0.00     0.032 C 
HETATM    3  C13 UNL     1      29.467   0.607  56.498  1.00  0.00     0.017 C 
HETATM    4  C14 UNL     1      30.221   1.634  55.781  1.00  0.00    -0.008 C 
HETATM    5  C15 UNL     1      31.493   1.010  55.392  1.00  0.00     0.073 C 
HETATM    6  N4  UNL     1      31.584   0.108  54.486  1.00  0.00    -0.365 N 
HETATM    7  C16 UNL     1      33.033  -0.189  54.435  1.00  0.00     0.131 C 
HETATM    8  C17 UNL     1      33.326   0.257  52.949  1.00  0.00     0.047 C 
HETATM    9  C18 UNL     1      32.416   1.231  52.365  1.00  0.00    -0.028 C 
HETATM   10  C19 UNL     1      31.013   1.292  52.123  1.00  0.00    -0.015 C 
HETATM   11  C20 UNL     1      29.902   0.550  52.816  1.00  0.00     0.020 C 
HETATM   12  C21 UNL     1      29.012  -0.245  51.891  1.00  0.00     0.020 C 
HETATM   13  C22 UNL     1      29.571  -1.548  51.442  1.00  0.00     0.002 C 
HETATM   14  C23 UNL     1      29.586  -2.510  52.589  1.00  0.00     0.006 C 
HETATM   15  C24 UNL     1      30.046  -1.794  53.840  1.00  0.00     0.054 C 
HETATM   16  C25 UNL     1      30.741  -0.568  53.551  1.00  0.00     0.001 C 
HETATM   17  C26 UNL     1      29.098   1.117  53.839  1.00  0.00     0.007 C 
HETATM   18  C27 UNL     1      29.829   2.219  54.451  1.00  0.00     0.021 C 
HETATM   19  C28 UNL     1      27.779   1.685  54.070  1.00  0.00     0.036 C 
HETATM   20  C29 UNL     1      29.920   2.783  56.550  1.00  0.00     0.017 C 
HETATM   21  C30 UNL     1      28.414   3.019  56.242  1.00  0.00     0.032 C 
ENDROOT
BRANCH   1  22
HETATM   22  N3  UNL     1      26.288   2.300  55.688  1.00  0.00    -0.393 N 
ATOM     23  H3  UNL     1      25.963   2.849  54.892  1.00  0.00     0.156 HD
BRANCH  22  24
HETATM   24  C2  UNL     1      25.344   2.075  56.624  1.00  0.00     0.176 C 
HETATM   25  C1  UNL     1      23.901   2.245  56.228  1.00  0.00     0.055 C 
BRANCH  24  26
HETATM   26  N1  UNL     1      25.551   3.039  57.709  1.00  0.00    -0.333 N 
HETATM   27  C3  UNL     1      25.804   2.638  59.022  1.00  0.00     0.310 C 
HETATM   28  O1  UNL     1      25.858   1.405  59.283  1.00  0.00    -0.262 OA
ATOM     29  H1  UNL     1      25.509   4.036  57.497  1.00  0.00     0.165 HD
BRANCH  27  30
HETATM   30  C4  UNL     1      26.010   3.576  60.109  1.00  0.00     0.309 C 
HETATM   31  O2  UNL     1      26.999   4.385  60.060  1.00  0.00    -0.262 OA
HETATM   32  N2  UNL     1      25.149   3.629  61.234  1.00  0.00    -0.353 N 
ATOM     33  H2  UNL     1      24.359   2.986  61.290  1.00  0.00     0.162 HD
BRANCH  32  34
HETATM   34  C5  UNL     1      25.365   4.567  62.295  1.00  0.00     0.127 C 
BRANCH  34  35
HETATM   35  C6  UNL     1      25.694   3.874  63.610  1.00  0.00     0.003 C 
HETATM   36  C7  UNL     1      26.606   4.817  64.379  1.00  0.00     0.006 C 
HETATM   37  C8  UNL     1      27.930   4.566  63.726  1.00  0.00     0.000 C 
HETATM   38  C9  UNL     1      27.952   3.090  63.500  1.00  0.00     0.000 C 
HETATM   39  C10 UNL     1      26.533   2.633  63.370  1.00  0.00     0.006 C 
ENDBRANCH  34  35
ENDBRANCH  32  34
ENDBRANCH  27  30
ENDBRANCH  24  26
ENDBRANCH  22  24
ENDBRANCH   1  22
TORSDOF 6
ENDMDL
MODEL 4
REMARK VINA RESULT: -7.890588882      3.671      8.071
REMARK  6 active torsions:
REMARK  status: ('A' for Active; 'I' for Inactive)
REMARK    1  A    between atoms: C2_2  and  N1_3 
REMARK    2  A    between atoms: C2_2  and  N3_17 
REMARK       I    between atoms: N1_3  and  C3_5 
REMARK    3  A    between atoms: C3_5  and  C4_7 
REMARK       I    between atoms: C4_7  and  N2_9 
REMARK    4  A    between atoms: N2_9  and  C5_11 
REMARK    5  A    between atoms: C5_11  and  C6_12 
REMARK    6  A    between atoms: N3_17  and  C11_19 
ROOT
HETATM    1  C11 UNL     1      30.451  -0.139  53.640  1.00  0.00     0.028 C 
HETATM    2  C12 UNL     1      30.983   1.247  53.517  1.00  0.00     0.032 C 
HETATM    3  C13 UNL     1      31.321   1.723  54.917  1.00  0.00     0.017 C 
HETATM    4  C14 UNL     1      30.966   0.817  56.008  1.00  0.00    -0.008 C 
HETATM    5  C15 UNL     1      30.659   1.669  57.164  1.00  0.00     0.073 C 
HETATM    6  N4  UNL     1      29.608   2.400  57.238  1.00  0.00    -0.365 N 
HETATM    7  C16 UNL     1      29.724   3.043  58.565  1.00  0.00     0.131 C 
HETATM    8  C17 UNL     1      28.431   2.444  59.245  1.00  0.00     0.047 C 
HETATM    9  C18 UNL     1      27.930   1.186  58.709  1.00  0.00    -0.028 C 
HETATM   10  C19 UNL     1      27.489   0.731  57.433  1.00  0.00    -0.015 C 
HETATM   11  C20 UNL     1      27.826   1.272  56.069  1.00  0.00     0.020 C 
HETATM   12  C21 UNL     1      26.626   1.647  55.234  1.00  0.00     0.020 C 
HETATM   13  C22 UNL     1      26.005   2.955  55.574  1.00  0.00     0.002 C 
HETATM   14  C23 UNL     1      26.910   4.067  55.144  1.00  0.00     0.006 C 
HETATM   15  C24 UNL     1      28.340   3.712  55.485  1.00  0.00     0.054 C 
HETATM   16  C25 UNL     1      28.430   2.673  56.476  1.00  0.00     0.001 C 
HETATM   17  C26 UNL     1      28.807   0.698  55.218  1.00  0.00     0.007 C 
HETATM   18  C27 UNL     1      29.745  -0.063  56.032  1.00  0.00     0.021 C 
HETATM   19  C28 UNL     1      28.941  -0.140  54.037  1.00  0.00     0.036 C 
HETATM   20  C29 UNL     1      31.903  -0.226  55.815  1.00  0.00     0.017 C 
HETATM   21  C30 UNL     1      31.419  -0.885  54.493  1.00  0.00     0.032 C 
ENDROOT
BRANCH   1  22
HETATM   22  N3  UNL     1      30.398  -0.834  52.419  1.00  0.00    -0.393 N 
ATOM     23  H3  UNL     1      31.266  -0.803  51.885  1.00  0.00     0.156 HD
BRANCH  22  24
HETATM   24  C2  UNL     1      29.409  -1.534  51.825  1.00  0.00     0.176 C 
HETATM   25  C1  UNL     1      29.593  -3.019  51.663  1.00  0.00     0.055 C 
BRANCH  24  26
HETATM   26  N1  UNL     1      29.260  -1.023  50.459  1.00  0.00    -0.333 N 
HETATM   27  C3  UNL     1      28.597   0.172  50.179  1.00  0.00     0.310 C 
HETATM   28  O1  UNL     1      28.111   0.837  51.135  1.00  0.00    -0.262 OA
ATOM     29  H1  UNL     1      29.655  -1.561  49.686  1.00  0.00     0.165 HD
BRANCH  27  30
HETATM   30  C4  UNL     1      28.437   0.693  48.835  1.00  0.00     0.309 C 
HETATM   31  O2  UNL     1      29.228   1.608  48.419  1.00  0.00    -0.262 OA
HETATM   32  N2  UNL     1      27.429   0.222  47.957  1.00  0.00    -0.353 N 
ATOM     33  H2  UNL     1      26.787  -0.505  48.276  1.00  0.00     0.162 HD
BRANCH  32  34
HETATM   34  C5  UNL     1      27.291   0.743  46.630  1.00  0.00     0.127 C 
BRANCH  34  35
HETATM   35  C6  UNL     1      27.981  -0.137  45.597  1.00  0.00     0.003 C 
HETATM   36  C7  UNL     1      28.116   0.702  44.336  1.00  0.00     0.006 C 
HETATM   37  C8  UNL     1      26.743   0.599  43.748  1.00  0.00     0.000 C 
HETATM   38  C9  UNL     1      26.350  -0.822  43.985  1.00  0.00     0.000 C 
HETATM   39  C10 UNL     1      27.090  -1.298  45.196  1.00  0.00     0.006 C 
ENDBRANCH  34  35
ENDBRANCH  32  34
ENDBRANCH  27  30
ENDBRANCH  24  26
ENDBRANCH  22  24
ENDBRANCH   1  22
TORSDOF 6
ENDMDL
MODEL 5
REMARK VINA RESULT: -7.867935154      4.957      6.795
REMARK  6 active torsions:
REMARK  status: ('A' for Active; 'I' for Inactive)
REMARK    1  A    between atoms: C2_2  and  N1_3 
REMARK    2  A    between atoms: C2_2  and  N3_17 
REMARK       I    between atoms: N1_3  and  C3_5 
REMARK    3  A    between atoms: C3_5  and  C4_7 
REMARK       I    between atoms: C4_7  and  N2_9 
REMARK    4  A    between atoms: N2_9  and  C5_11 
REMARK    5  A    between atoms: C5_11  and  C6_12 
REMARK    6  A    between atoms: N3_17  and  C11_19 
ROOT
HETATM    1  C11 UNL     1      28.110   2.415  58.485  1.00  0.00     0.028 C 
HETATM    2  C12 UNL     1      27.590   1.040  58.249  1.00  0.00     0.032 C 
HETATM    3  C13 UNL     1      28.791   0.121  58.131  1.00  0.00     0.017 C 
HETATM    4  C14 UNL     1      30.102   0.769  58.161  1.00  0.00    -0.008 C 
HETATM    5  C15 UNL     1      30.986  -0.059  57.330  1.00  0.00     0.073 C 
HETATM    6  N4  UNL     1      30.889  -0.127  56.053  1.00  0.00    -0.365 N 
HETATM    7  C16 UNL     1      31.982  -1.047  55.670  1.00  0.00     0.131 C 
HETATM    8  C17 UNL     1      32.844  -0.058  54.791  1.00  0.00     0.047 C 
HETATM    9  C18 UNL     1      32.694   1.364  55.066  1.00  0.00    -0.028 C 
HETATM   10  C19 UNL     1      31.609   2.287  55.071  1.00  0.00    -0.015 C 
HETATM   11  C20 UNL     1      30.138   2.016  55.244  1.00  0.00     0.020 C 
HETATM   12  C21 UNL     1      29.272   2.546  54.126  1.00  0.00     0.020 C 
HETATM   13  C22 UNL     1      29.257   1.717  52.892  1.00  0.00     0.002 C 
HETATM   14  C23 UNL     1      28.506   0.447  53.150  1.00  0.00     0.006 C 
HETATM   15  C24 UNL     1      28.884  -0.094  54.510  1.00  0.00     0.054 C 
HETATM   16  C25 UNL     1      30.121   0.456  55.000  1.00  0.00     0.001 C 
HETATM   17  C26 UNL     1      29.447   2.189  56.472  1.00  0.00     0.007 C 
HETATM   18  C27 UNL     1      30.409   2.115  57.563  1.00  0.00     0.021 C 
HETATM   19  C28 UNL     1      28.541   3.101  57.151  1.00  0.00     0.036 C 
HETATM   20  C29 UNL     1      30.175   1.180  59.513  1.00  0.00     0.017 C 
HETATM   21  C30 UNL     1      29.104   2.304  59.590  1.00  0.00     0.032 C 
ENDROOT
BRANCH   1  22
HETATM   22  N3  UNL     1      27.132   3.319  58.936  1.00  0.00    -0.393 N 
ATOM     23  H3  UNL     1      27.507   4.210  59.260  1.00  0.00     0.156 HD
BRANCH  22  24
HETATM   24  C2  UNL     1      25.789   3.223  59.018  1.00  0.00     0.176 C 
HETATM   25  C1  UNL     1      24.970   3.767  57.878  1.00  0.00     0.055 C 
BRANCH  24  26
HETATM   26  N1  UNL     1      25.358   3.992  60.190  1.00  0.00    -0.333 N 
HETATM   27  C3  UNL     1      25.648   3.587  61.493  1.00  0.00     0.310 C 
HETATM   28  O1  UNL     1      26.306   2.525  61.669  1.00  0.00    -0.262 OA
ATOM     29  H1  UNL     1      24.827   4.851  60.047  1.00  0.00     0.165 HD
BRANCH  27  30
HETATM   30  C4  UNL     1      25.229   4.332  62.665  1.00  0.00     0.309 C 
HETATM   31  O2  UNL     1      24.454   3.775  63.518  1.00  0.00    -0.262 OA
HETATM   32  N2  UNL     1      25.647   5.665  62.904  1.00  0.00    -0.353 N 
ATOM     33  H2  UNL     1      26.261   6.123  62.230  1.00  0.00     0.162 HD
BRANCH  32  34
HETATM   34  C5  UNL     1      25.228   6.382  64.071  1.00  0.00     0.127 C 
BRANCH  34  35
HETATM   35  C6  UNL     1      24.246   7.494  63.733  1.00  0.00     0.003 C 
HETATM   36  C7  UNL     1      25.079   8.731  63.435  1.00  0.00     0.006 C 
HETATM   37  C8  UNL     1      25.411   9.218  64.811  1.00  0.00     0.000 C 
HETATM   38  C9  UNL     1      24.154   9.003  65.588  1.00  0.00     0.000 C 
HETATM   39  C10 UNL     1      23.417   7.869  64.948  1.00  0.00     0.006 C 
ENDBRANCH  34  35
ENDBRANCH  32  34
ENDBRANCH  27  30
ENDBRANCH  24  26
ENDBRANCH  22  24
ENDBRANCH   1  22
TORSDOF 6
ENDMDL
