MODEL 1
REMARK VINA RESULT: -6.856279573      0.000      0.000
REMARK  7 active torsions:
REMARK  status: ('A' for Active; 'I' for Inactive)
REMARK    1  A    between atoms: C7_7  and  C16_19 
REMARK    2  A    between atoms: C19_22  and  C20_23 
REMARK       I    between atoms: C20_23  and  N2_25 
REMARK    3  A    between atoms: N2_25  and  C21_27 
REMARK    4  A    between atoms: C21_27  and  C22_28 
REMARK    5  A    between atoms: C21_27  and  C26_32 
REMARK    6  A    between atoms: C22_28  and  C23_29 
REMARK    7  A    between atoms: C27_35  and  C29_37 
ROOT
HETATM    1  C16 UNL     1      30.734   1.047  57.774  1.00  0.00    -0.009 C 
HETATM    2  C17 UNL     1      31.367  -0.168  57.183  1.00  0.00     0.009 C 
HETATM    3  C18 UNL     1      30.986  -0.449  55.756  1.00  0.00     0.041 C 
HETATM    4  C19 UNL     1      31.193   0.837  55.001  1.00  0.00    -0.007 C 
HETATM    5  C27 UNL     1      30.409   1.959  55.610  1.00  0.00     0.029 C 
HETATM    6  C28 UNL     1      31.090   2.225  56.935  1.00  0.00     0.015 C 
ENDROOT
BRANCH   4   7
HETATM    7  C20 UNL     1      31.262   0.724  53.568  1.00  0.00     0.244 C 
HETATM    8  O2  UNL     1      31.574   1.768  52.894  1.00  0.00    -0.268 OA
HETATM    9  N2  UNL     1      31.025  -0.427  52.779  1.00  0.00    -0.343 N 
ATOM     10  H2  UNL     1      30.769  -1.292  53.255  1.00  0.00     0.163 HD
BRANCH   9  11
HETATM   11  C21 UNL     1      31.128  -0.447  51.314  1.00  0.00     0.186 C 
BRANCH  11  12
HETATM   12  C22 UNL     1      29.755  -0.653  50.754  1.00  0.00     0.040 C 
BRANCH  12  13
HETATM   13  C23 UNL     1      29.324   0.313  49.707  1.00  0.00    -0.020 C 
HETATM   14  C24 UNL     1      30.010   1.644  49.796  1.00  0.00     0.009 C 
HETATM   15  C25 UNL     1      27.831   0.586  49.984  1.00  0.00     0.009 C 
ENDBRANCH  12  13
ENDBRANCH  11  12
BRANCH  11  16
HETATM   16  C26 UNL     1      32.147  -1.389  50.867  1.00  0.00     0.196 C 
HETATM   17  O3  UNL     1      33.327  -0.977  50.695  1.00  0.00    -0.646 OA
HETATM   18  O4  UNL     1      31.887  -2.711  50.621  1.00  0.00    -0.646 OA
ENDBRANCH  11  16
ENDBRANCH   9  11
ENDBRANCH   4   7
BRANCH   5  19
HETATM   19  C29 UNL     1      28.937   1.796  55.702  1.00  0.00     0.032 C 
HETATM   20  C2  UNL     1      28.488   1.308  54.371  1.00  0.00    -0.084 C 
HETATM   21  C1  UNL     1      28.217   0.028  54.103  1.00  0.00     0.015 C 
HETATM   22  C3  UNL     1      28.362   2.253  53.276  1.00  0.00     0.034 C 
HETATM   23  C4  UNL     1      28.000   3.612  53.681  1.00  0.00     0.005 C 
HETATM   24  C5  UNL     1      27.844   3.983  55.057  1.00  0.00     0.012 C 
HETATM   25  C6  UNL     1      28.158   3.012  56.198  1.00  0.00    -0.019 C 
HETATM   26  C7  UNL     1      28.945   3.743  57.280  1.00  0.00    -0.000 C 
HETATM   27  C14 UNL     1      26.779   2.630  56.740  1.00  0.00    -0.014 C 
HETATM   28  C8  UNL     1      28.515   3.624  58.686  1.00  0.00     0.008 C 
HETATM   29  C9  UNL     1      27.067   3.664  58.971  1.00  0.00     0.026 C 
HETATM   30  C10 UNL     1      26.402   3.820  57.597  1.00  0.00     0.093 C 
HETATM   31  N1  UNL     1      25.029   4.028  57.850  1.00  0.00    -0.356 N 
HETATM   32  C11 UNL     1      24.008   3.535  57.000  1.00  0.00     0.217 C 
ATOM     33  H1  UNL     1      24.761   4.555  58.681  1.00  0.00     0.162 HD
HETATM   34  O1  UNL     1      22.899   4.133  56.882  1.00  0.00    -0.274 OA
HETATM   35  C12 UNL     1      24.344   2.301  56.288  1.00  0.00     0.103 C 
HETATM   36  C13 UNL     1      25.756   2.334  55.704  1.00  0.00     0.021 C 
HETATM   37  C15 UNL     1      26.795   1.369  57.588  1.00  0.00     0.018 C 
ENDBRANCH   5  19
TORSDOF 7
ENDMDL
MODEL 2
REMARK VINA RESULT: -6.791211947      1.045      1.627
REMARK  7 active torsions:
REMARK  status: ('A' for Active; 'I' for Inactive)
REMARK    1  A    between atoms: C7_7  and  C16_19 
REMARK    2  A    between atoms: C19_22  and  C20_23 
REMARK       I    between atoms: C20_23  and  N2_25 
REMARK    3  A    between atoms: N2_25  and  C21_27 
REMARK    4  A    between atoms: C21_27  and  C22_28 
REMARK    5  A    between atoms: C21_27  and  C26_32 
REMARK    6  A    between atoms: C22_28  and  C23_29 
REMARK    7  A    between atoms: C27_35  and  C29_37 
ROOT
HETATM    1  C16 UNL     1      30.878   1.341  57.889  1.00  0.00    -0.009 C 
HETATM    2  C17 UNL     1      31.546   0.102  57.394  1.00  0.00     0.009 C 
HETATM    3  C18 UNL     1      31.130  -0.333  56.016  1.00  0.00     0.041 C 
HETATM    4  C19 UNL     1      31.252   0.881  55.134  1.00  0.00    -0.007 C 
HETATM    5  C27 UNL     1      30.438   2.023  55.662  1.00  0.00     0.029 C 
HETATM    6  C28 UNL     1      31.151   2.446  56.928  1.00  0.00     0.015 C 
ENDROOT
BRANCH   4   7
HETATM    7  C20 UNL     1      31.277   0.631  53.717  1.00  0.00     0.244 C 
HETATM    8  O2  UNL     1      31.345   1.639  52.927  1.00  0.00    -0.268 OA
HETATM    9  N2  UNL     1      31.237  -0.621  53.059  1.00  0.00    -0.343 N 
ATOM     10  H2  UNL     1      31.178  -1.464  53.631  1.00  0.00     0.163 HD
BRANCH   9  11
HETATM   11  C21 UNL     1      31.275  -0.776  51.598  1.00  0.00     0.186 C 
BRANCH  11  12
HETATM   12  C22 UNL     1      30.228  -1.773  51.210  1.00  0.00     0.040 C 
BRANCH  12  13
HETATM   13  C23 UNL     1      30.319  -3.106  51.866  1.00  0.00    -0.020 C 
HETATM   14  C24 UNL     1      29.843  -4.236  51.002  1.00  0.00     0.009 C 
HETATM   15  C25 UNL     1      29.345  -3.047  53.061  1.00  0.00     0.009 C 
ENDBRANCH  12  13
ENDBRANCH  11  12
BRANCH  11  16
HETATM   16  C26 UNL     1      32.627  -1.056  51.131  1.00  0.00     0.196 C 
HETATM   17  O3  UNL     1      32.782  -1.706  50.061  1.00  0.00    -0.646 OA
HETATM   18  O4  UNL     1      33.749  -0.647  51.801  1.00  0.00    -0.646 OA
ENDBRANCH  11  16
ENDBRANCH   9  11
ENDBRANCH   4   7
BRANCH   5  19
HETATM   19  C29 UNL     1      28.979   1.807  55.827  1.00  0.00     0.032 C 
HETATM   20  C2  UNL     1      28.508   1.172  54.567  1.00  0.00    -0.084 C 
HETATM   21  C1  UNL     1      28.286  -0.138  54.433  1.00  0.00     0.015 C 
HETATM   22  C3  UNL     1      28.301   2.000  53.391  1.00  0.00     0.034 C 
HETATM   23  C4  UNL     1      27.891   3.375  53.678  1.00  0.00     0.005 C 
HETATM   24  C5  UNL     1      27.765   3.872  55.017  1.00  0.00     0.012 C 
HETATM   25  C6  UNL     1      28.163   3.032  56.233  1.00  0.00    -0.019 C 
HETATM   26  C7  UNL     1      28.952   3.897  57.208  1.00  0.00    -0.000 C 
HETATM   27  C14 UNL     1      26.822   2.646  56.862  1.00  0.00    -0.014 C 
HETATM   28  C8  UNL     1      28.575   3.898  58.634  1.00  0.00     0.008 C 
HETATM   29  C9  UNL     1      27.138   3.905  58.970  1.00  0.00     0.026 C 
HETATM   30  C10 UNL     1      26.420   3.897  57.614  1.00  0.00     0.093 C 
HETATM   31  N1  UNL     1      25.049   4.070  57.899  1.00  0.00    -0.356 N 
HETATM   32  C11 UNL     1      24.022   3.454  57.140  1.00  0.00     0.217 C 
ATOM     33  H1  UNL     1      24.785   4.663  58.685  1.00  0.00     0.162 HD
HETATM   34  O1  UNL     1      22.883   3.990  57.008  1.00  0.00    -0.274 OA
HETATM   35  C12 UNL     1      24.390   2.171  56.537  1.00  0.00     0.103 C 
HETATM   36  C13 UNL     1      25.779   2.207  55.899  1.00  0.00     0.021 C 
HETATM   37  C15 UNL     1      26.925   1.476  57.826  1.00  0.00     0.018 C 
ENDBRANCH   5  19
TORSDOF 7
ENDMDL
MODEL 3
REMARK VINA RESULT: -6.659222732      2.336      7.446
REMARK  7 active torsions:
REMARK  status: ('A' for Active; 'I' for Inactive)
REMARK    1  A    between atoms: C7_7  and  C16_19 
REMARK    2  A    between atoms: C19_22  and  C20_23 
REMARK       I    between atoms: C20_23  and  N2_25 
REMARK    3  A    between atoms: N2_25  and  C21_27 
REMARK    4  A    between atoms: C21_27  and  C22_28 
REMARK    5  A    between atoms: C21_27  and  C26_32 
REMARK    6  A    between atoms: C22_28  and  C23_29 
REMARK    7  A    between atoms: C27_35  and  C29_37 
ROOT
HETATM    1  C16 UNL     1      32.222   0.577  57.472  1.00  0.00    -0.009 C 
HETATM    2  C17 UNL     1      31.983   1.387  58.701  1.00  0.00     0.009 C 
HETATM    3  C18 UNL     1      30.651   2.082  58.752  1.00  0.00     0.041 C 
HETATM    4  C19 UNL     1      29.615   1.034  58.438  1.00  0.00    -0.007 C 
HETATM    5  C27 UNL     1      29.886   0.376  57.120  1.00  0.00     0.029 C 
HETATM    6  C28 UNL     1      31.139  -0.440  57.353  1.00  0.00     0.015 C 
ENDROOT
BRANCH   4   7
HETATM    7  C20 UNL     1      28.259   1.361  58.796  1.00  0.00     0.244 C 
HETATM    8  O2  UNL     1      27.358   0.466  58.628  1.00  0.00    -0.268 OA
HETATM    9  N2  UNL     1      27.775   2.581  59.326  1.00  0.00    -0.343 N 
ATOM     10  H2  UNL     1      28.442   3.337  59.480  1.00  0.00     0.163 HD
BRANCH   9  11
HETATM   11  C21 UNL     1      26.366   2.818  59.669  1.00  0.00     0.186 C 
BRANCH  11  12
HETATM   12  C22 UNL     1      25.756   3.644  58.580  1.00  0.00     0.040 C 
BRANCH  12  13
HETATM   13  C23 UNL     1      24.394   3.240  58.137  1.00  0.00    -0.020 C 
HETATM   14  C24 UNL     1      24.289   1.793  57.757  1.00  0.00     0.009 C 
HETATM   15  C25 UNL     1      24.123   4.039  56.845  1.00  0.00     0.009 C 
ENDBRANCH  12  13
ENDBRANCH  11  12
BRANCH  11  16
HETATM   16  C26 UNL     1      26.232   3.346  61.021  1.00  0.00     0.196 C 
HETATM   17  O3  UNL     1      26.227   2.542  61.993  1.00  0.00    -0.646 OA
HETATM   18  O4  UNL     1      26.108   4.683  61.293  1.00  0.00    -0.646 OA
ENDBRANCH  11  16
ENDBRANCH   9  11
ENDBRANCH   4   7
BRANCH   5  19
HETATM   19  C29 UNL     1      29.938   1.244  55.918  1.00  0.00     0.032 C 
HETATM   20  C2  UNL     1      28.836   2.231  56.070  1.00  0.00    -0.084 C 
HETATM   21  C1  UNL     1      29.016   3.484  56.496  1.00  0.00     0.015 C 
HETATM   22  C3  UNL     1      27.473   1.823  55.775  1.00  0.00     0.034 C 
HETATM   23  C4  UNL     1      27.354   0.797  54.740  1.00  0.00     0.005 C 
HETATM   24  C5  UNL     1      28.501   0.204  54.115  1.00  0.00     0.012 C 
HETATM   25  C6  UNL     1      29.926   0.523  54.572  1.00  0.00    -0.019 C 
HETATM   26  C7  UNL     1      30.732  -0.768  54.653  1.00  0.00    -0.000 C 
HETATM   27  C14 UNL     1      30.480   1.400  53.446  1.00  0.00    -0.014 C 
HETATM   28  C8  UNL     1      32.060  -0.829  54.015  1.00  0.00     0.008 C 
HETATM   29  C9  UNL     1      32.222  -0.191  52.694  1.00  0.00     0.026 C 
HETATM   30  C10 UNL     1      30.841   0.396  52.371  1.00  0.00     0.093 C 
HETATM   31  N1  UNL     1      30.919   0.868  51.043  1.00  0.00    -0.356 N 
HETATM   32  C11 UNL     1      30.233   2.025  50.597  1.00  0.00     0.217 C 
ATOM     33  H1  UNL     1      31.495   0.354  50.377  1.00  0.00     0.162 HD
HETATM   34  O1  UNL     1      29.844   2.143  49.398  1.00  0.00    -0.274 OA
HETATM   35  C12 UNL     1      30.020   3.046  51.624  1.00  0.00     0.103 C 
HETATM   36  C13 UNL     1      29.551   2.448  52.950  1.00  0.00     0.021 C 
HETATM   37  C15 UNL     1      31.715   2.188  53.850  1.00  0.00     0.018 C 
ENDBRANCH   5  19
TORSDOF 7
ENDMDL
MODEL 4
REMARK VINA RESULT: -6.424122890      2.490      4.528
REMARK  7 active torsions:
REMARK  status: ('A' for Active; 'I' for Inactive)
REMARK    1  A    between atoms: C7_7  and  C16_19 
REMARK    2  A    between atoms: C19_22  and  C20_23 
REMARK       I    between atoms: C20_23  and  N2_25 
REMARK    3  A    between atoms: N2_25  and  C21_27 
REMARK    4  A    between atoms: C21_27  and  C22_28 
REMARK    5  A    between atoms: C21_27  and  C26_32 
REMARK    6  A    between atoms: C22_28  and  C23_29 
REMARK    7  A    between atoms: C27_35  and  C29_37 
ROOT
HETATM    1  C16 UNL     1      25.604   3.664  55.608  1.00  0.00    -0.009 C 
HETATM    2  C17 UNL     1      26.163   4.018  54.271  1.00  0.00     0.009 C 
HETATM    3  C18 UNL     1      27.539   3.476  53.998  1.00  0.00     0.041 C 
HETATM    4  C19 UNL     1      27.489   2.007  54.325  1.00  0.00    -0.007 C 
HETATM    5  C27 UNL     1      27.035   1.778  55.735  1.00  0.00     0.029 C 
HETATM    6  C28 UNL     1      25.576   2.180  55.735  1.00  0.00     0.015 C 
ENDROOT
BRANCH   4   7
HETATM    7  C20 UNL     1      28.557   1.205  53.791  1.00  0.00     0.244 C 
HETATM    8  O2  UNL     1      29.357   1.748  52.949  1.00  0.00    -0.268 OA
HETATM    9  N2  UNL     1      28.853  -0.148  54.083  1.00  0.00    -0.343 N 
ATOM     10  H2  UNL     1      28.251  -0.640  54.744  1.00  0.00     0.163 HD
BRANCH   9  11
HETATM   11  C21 UNL     1      29.977  -0.884  53.490  1.00  0.00     0.186 C 
BRANCH  11  12
HETATM   12  C22 UNL     1      29.538  -2.296  53.259  1.00  0.00     0.040 C 
BRANCH  12  13
HETATM   13  C23 UNL     1      29.544  -2.761  51.845  1.00  0.00    -0.020 C 
HETATM   14  C24 UNL     1      30.786  -3.511  51.464  1.00  0.00     0.009 C 
HETATM   15  C25 UNL     1      29.542  -1.479  50.987  1.00  0.00     0.009 C 
ENDBRANCH  12  13
ENDBRANCH  11  12
BRANCH  11  16
HETATM   16  C26 UNL     1      31.194  -0.714  54.274  1.00  0.00     0.196 C 
HETATM   17  O3  UNL     1      31.556  -1.642  55.050  1.00  0.00    -0.646 OA
HETATM   18  O4  UNL     1      31.972   0.411  54.214  1.00  0.00    -0.646 OA
ENDBRANCH  11  16
ENDBRANCH   9  11
ENDBRANCH   4   7
BRANCH   5  19
HETATM   19  C29 UNL     1      27.837   2.391  56.822  1.00  0.00     0.032 C 
HETATM   20  C2  UNL     1      29.253   2.023  56.553  1.00  0.00    -0.084 C 
HETATM   21  C1  UNL     1      30.136   2.841  55.977  1.00  0.00     0.015 C 
HETATM   22  C3  UNL     1      29.716   0.690  56.899  1.00  0.00     0.034 C 
HETATM   23  C4  UNL     1      29.044   0.091  58.053  1.00  0.00     0.005 C 
HETATM   24  C5  UNL     1      27.974   0.751  58.742  1.00  0.00     0.012 C 
HETATM   25  C6  UNL     1      27.387   2.075  58.246  1.00  0.00    -0.019 C 
HETATM   26  C7  UNL     1      25.865   2.012  58.321  1.00  0.00    -0.000 C 
HETATM   27  C14 UNL     1      27.905   3.103  59.255  1.00  0.00    -0.014 C 
HETATM   28  C8  UNL     1      25.131   3.121  58.958  1.00  0.00     0.008 C 
HETATM   29  C9  UNL     1      25.694   3.705  60.191  1.00  0.00     0.026 C 
HETATM   30  C10 UNL     1      26.986   2.916  60.443  1.00  0.00     0.093 C 
HETATM   31  N1  UNL     1      27.461   3.339  61.703  1.00  0.00    -0.356 N 
HETATM   32  C11 UNL     1      28.840   3.451  62.006  1.00  0.00     0.217 C 
ATOM     33  H1  UNL     1      26.781   3.574  62.426  1.00  0.00     0.162 HD
HETATM   34  O1  UNL     1      29.276   3.281  63.183  1.00  0.00    -0.274 OA
HETATM   35  C12 UNL     1      29.696   3.773  60.863  1.00  0.00     0.103 C 
HETATM   36  C13 UNL     1      29.338   2.956  59.621  1.00  0.00     0.021 C 
HETATM   37  C15 UNL     1      27.815   4.534  58.753  1.00  0.00     0.018 C 
ENDBRANCH   5  19
TORSDOF 7
ENDMDL
MODEL 5
REMARK VINA RESULT: -6.420236872      1.161      1.431
REMARK  7 active torsions:
REMARK  status: ('A' for Active; 'I' for Inactive)
REMARK    1  A    between atoms: C7_7  and  C16_19 
REMARK    2  A    between atoms: C19_22  and  C20_23 
REMARK       I    between atoms: C20_23  and  N2_25 
REMARK    3  A    between atoms: N2_25  and  C21_27 
REMARK    4  A    between atoms: C21_27  and  C22_28 
REMARK    5  A    between atoms: C21_27  and  C26_32 
REMARK    6  A    between atoms: C22_28  and  C23_29 
REMARK    7  A    between atoms: C27_35  and  C29_37 
ROOT
HETATM    1  C16 UNL     1      31.381   0.183  57.114  1.00  0.00    -0.009 C 
HETATM    2  C17 UNL     1      31.868  -0.799  56.103  1.00  0.00     0.009 C 
HETATM    3  C18 UNL     1      31.213  -0.696  54.753  1.00  0.00     0.041 C 
HETATM    4  C19 UNL     1      31.290   0.755  54.356  1.00  0.00    -0.007 C 
HETATM    5  C27 UNL     1      30.656   1.637  55.387  1.00  0.00     0.029 C 
HETATM    6  C28 UNL     1      31.585   1.559  56.579  1.00  0.00     0.015 C 
ENDROOT
BRANCH   4   7
HETATM    7  C20 UNL     1      31.078   1.038  52.961  1.00  0.00     0.244 C 
HETATM    8  O2  UNL     1      31.194   2.253  52.567  1.00  0.00    -0.268 OA
HETATM    9  N2  UNL     1      30.748   0.123  51.933  1.00  0.00    -0.343 N 
ATOM     10  H2  UNL     1      30.637  -0.860  52.181  1.00  0.00     0.163 HD
BRANCH   9  11
HETATM   11  C21 UNL     1      30.557   0.509  50.528  1.00  0.00     0.186 C 
BRANCH  11  12
HETATM   12  C22 UNL     1      29.227  -0.011  50.079  1.00  0.00     0.040 C 
BRANCH  12  13
HETATM   13  C23 UNL     1      28.087   0.941  50.176  1.00  0.00    -0.020 C 
HETATM   14  C24 UNL     1      27.034   0.726  49.129  1.00  0.00     0.009 C 
HETATM   15  C25 UNL     1      28.685   2.335  49.897  1.00  0.00     0.009 C 
ENDBRANCH  12  13
ENDBRANCH  11  12
BRANCH  11  16
HETATM   16  C26 UNL     1      31.702   0.121  49.713  1.00  0.00     0.196 C 
HETATM   17  O3  UNL     1      31.566   0.058  48.460  1.00  0.00    -0.646 OA
HETATM   18  O4  UNL     1      32.928  -0.184  50.241  1.00  0.00    -0.646 OA
ENDBRANCH  11  16
ENDBRANCH   9  11
ENDBRANCH   4   7
BRANCH   5  19
HETATM   19  C29 UNL     1      29.228   1.398  55.711  1.00  0.00     0.032 C 
HETATM   20  C2  UNL     1      28.539   1.175  54.412  1.00  0.00    -0.084 C 
HETATM   21  C1  UNL     1      28.225  -0.033  53.936  1.00  0.00     0.015 C 
HETATM   22  C3  UNL     1      28.208   2.319  53.580  1.00  0.00     0.034 C 
HETATM   23  C4  UNL     1      27.925   3.549  54.319  1.00  0.00     0.005 C 
HETATM   24  C5  UNL     1      28.029   3.624  55.747  1.00  0.00     0.012 C 
HETATM   25  C6  UNL     1      28.553   2.454  56.583  1.00  0.00    -0.019 C 
HETATM   26  C7  UNL     1      29.527   2.979  57.632  1.00  0.00    -0.000 C 
HETATM   27  C14 UNL     1      27.300   1.912  57.276  1.00  0.00    -0.014 C 
HETATM   28  C8  UNL     1      29.367   2.557  59.036  1.00  0.00     0.008 C 
HETATM   29  C9  UNL     1      27.998   2.479  59.583  1.00  0.00     0.026 C 
HETATM   30  C10 UNL     1      27.087   2.885  58.416  1.00  0.00     0.093 C 
HETATM   31  N1  UNL     1      25.786   2.979  58.954  1.00  0.00    -0.356 N 
HETATM   32  C11 UNL     1      24.624   2.630  58.221  1.00  0.00     0.217 C 
ATOM     33  H1  UNL     1      25.676   3.314  59.911  1.00  0.00     0.162 HD
HETATM   34  O1  UNL     1      23.511   3.193  58.435  1.00  0.00    -0.274 OA
HETATM   35  C12 UNL     1      24.824   1.583  57.217  1.00  0.00     0.103 C 
HETATM   36  C13 UNL     1      26.102   1.793  56.405  1.00  0.00     0.021 C 
HETATM   37  C15 UNL     1      27.478   0.507  57.824  1.00  0.00     0.018 C 
ENDBRANCH   5  19
TORSDOF 7
ENDMDL
