MODEL 1
REMARK VINA RESULT: -7.326397929      0.000      0.000
REMARK  6 active torsions:
REMARK  status: ('A' for Active; 'I' for Inactive)
REMARK    1  A    between atoms: C2_2  and  C3_3 
REMARK    2  A    between atoms: C6_6  and  N1_7 
REMARK    3  A    between atoms: C6_6  and  C17_24 
REMARK       I    between atoms: N1_7  and  C7_9 
REMARK       I    between atoms: C7_9  and  N2_11 
REMARK    4  A    between atoms: C11_15  and  C12_16 
REMARK       I    between atoms: C12_16  and  N3_18 
REMARK    5  A    between atoms: N3_18  and  C13_20 
REMARK       I    between atoms: C17_24  and  N4_26 
REMARK    6  A    between atoms: N4_26  and  C18_28 
ROOT
HETATM    1  C3  UNL     1      22.309   2.968  56.599  1.00  0.00    -0.015 C 
HETATM    2  C4  UNL     1      22.541   2.166  57.844  1.00  0.00     0.007 C 
HETATM    3  C5  UNL     1      23.888   1.493  57.816  1.00  0.00     0.041 C 
HETATM    4  C6  UNL     1      25.037   2.497  57.743  1.00  0.00     0.115 C 
HETATM    5  C27 UNL     1      24.443   3.851  57.548  1.00  0.00     0.041 C 
HETATM    6  C28 UNL     1      23.475   3.907  56.386  1.00  0.00     0.007 C 
ENDROOT
BRANCH   4   7
HETATM    7  N1  UNL     1      25.924   2.080  56.699  1.00  0.00    -0.325 N 
HETATM    8  C7  UNL     1      27.176   2.673  56.425  1.00  0.00     0.320 C 
HETATM    9  O1  UNL     1      27.649   3.643  57.073  1.00  0.00    -0.247 OA
HETATM   10  N2  UNL     1      27.995   2.182  55.362  1.00  0.00    -0.321 N 
HETATM   11  C8  UNL     1      27.652   1.088  54.489  1.00  0.00     0.129 C 
HETATM   12  C11 UNL     1      29.299   2.656  54.955  1.00  0.00     0.181 C 
HETATM   13  C9  UNL     1      28.106   1.645  53.127  1.00  0.00     0.022 C 
HETATM   14  C10 UNL     1      29.312   2.489  53.466  1.00  0.00     0.037 C 
ATOM     15  H1  UNL     1      25.631   1.299  56.112  1.00  0.00     0.165 HD
BRANCH  12  16
HETATM   16  C12 UNL     1      30.412   1.824  55.521  1.00  0.00     0.241 C 
HETATM   17  O2  UNL     1      31.384   1.525  54.772  1.00  0.00    -0.271 OA
HETATM   18  N3  UNL     1      30.412   1.362  56.865  1.00  0.00    -0.351 N 
ATOM     19  H3  UNL     1      29.634   1.596  57.482  1.00  0.00     0.163 HD
BRANCH  18  20
HETATM   20  C13 UNL     1      31.511   0.559  57.363  1.00  0.00     0.022 C 
HETATM   21  C14 UNL     1      31.815  -0.576  56.409  1.00  0.00     0.037 C 
HETATM   22  C15 UNL     1      31.093  -0.083  58.673  1.00  0.00     0.037 C 
HETATM   23  C16 UNL     1      32.730   1.440  57.534  1.00  0.00     0.037 C 
ENDBRANCH  18  20
ENDBRANCH  12  16
ENDBRANCH   4   7
BRANCH   4  24
HETATM   24  C17 UNL     1      25.771   2.514  59.043  1.00  0.00     0.246 C 
HETATM   25  O3  UNL     1      26.195   1.417  59.479  1.00  0.00    -0.271 OA
HETATM   26  N4  UNL     1      26.008   3.678  59.786  1.00  0.00    -0.354 N 
ATOM     27  H4  UNL     1      25.671   4.578  59.444  1.00  0.00     0.162 HD
BRANCH  26  28
HETATM   28  C18 UNL     1      26.725   3.607  61.034  1.00  0.00     0.084 C 
HETATM   29  C19 UNL     1      25.853   3.292  62.207  1.00  0.00     0.026 C 
HETATM   30  C20 UNL     1      25.106   4.437  62.822  1.00  0.00     0.008 C 
HETATM   31  C21 UNL     1      25.784   5.689  62.496  1.00  0.00    -0.001 A 
HETATM   32  C22 UNL     1      27.301   5.302  62.622  1.00  0.00     0.000 A 
HETATM   33  C24 UNL     1      26.747   6.484  63.165  1.00  0.00    -0.040 A 
HETATM   34  C23 UNL     1      27.605   4.846  61.254  1.00  0.00     0.031 C 
HETATM   35  C25 UNL     1      27.168   7.814  62.539  1.00  0.00     0.015 C 
HETATM   36  C26 UNL     1      26.659   6.609  64.687  1.00  0.00     0.015 C 
ENDBRANCH  26  28
ENDBRANCH   4  24
BRANCH   1  37
HETATM   37  C2  UNL     1      22.129   2.097  55.378  1.00  0.00     0.000 C 
HETATM   38  C1  UNL     1      20.783   1.418  55.365  1.00  0.00     0.005 C 
ENDBRANCH   1  37
TORSDOF 6
ENDMDL
MODEL 2
REMARK VINA RESULT: -7.099842464      0.822      1.246
REMARK  6 active torsions:
REMARK  status: ('A' for Active; 'I' for Inactive)
REMARK    1  A    between atoms: C2_2  and  C3_3 
REMARK    2  A    between atoms: C6_6  and  N1_7 
REMARK    3  A    between atoms: C6_6  and  C17_24 
REMARK       I    between atoms: N1_7  and  C7_9 
REMARK       I    between atoms: C7_9  and  N2_11 
REMARK    4  A    between atoms: C11_15  and  C12_16 
REMARK       I    between atoms: C12_16  and  N3_18 
REMARK    5  A    between atoms: N3_18  and  C13_20 
REMARK       I    between atoms: C17_24  and  N4_26 
REMARK    6  A    between atoms: N4_26  and  C18_28 
ROOT
HETATM    1  C3  UNL     1      22.241   2.952  56.639  1.00  0.00    -0.015 C 
HETATM    2  C4  UNL     1      22.490   2.153  57.882  1.00  0.00     0.007 C 
HETATM    3  C5  UNL     1      23.839   1.483  57.839  1.00  0.00     0.041 C 
HETATM    4  C6  UNL     1      24.984   2.491  57.752  1.00  0.00     0.115 C 
HETATM    5  C27 UNL     1      24.383   3.844  57.562  1.00  0.00     0.041 C 
HETATM    6  C28 UNL     1      23.402   3.894  56.412  1.00  0.00     0.007 C 
ENDROOT
BRANCH   4   7
HETATM    7  N1  UNL     1      25.860   2.077  56.698  1.00  0.00    -0.325 N 
HETATM    8  C7  UNL     1      27.171   2.563  56.506  1.00  0.00     0.320 C 
HETATM    9  O1  UNL     1      27.715   3.425  57.246  1.00  0.00    -0.247 OA
HETATM   10  N2  UNL     1      27.973   2.083  55.425  1.00  0.00    -0.321 N 
HETATM   11  C8  UNL     1      27.556   1.104  54.455  1.00  0.00     0.129 C 
HETATM   12  C11 UNL     1      29.330   2.458  55.093  1.00  0.00     0.181 C 
HETATM   13  C9  UNL     1      28.105   1.724  53.156  1.00  0.00     0.022 C 
HETATM   14  C10 UNL     1      29.375   2.413  53.596  1.00  0.00     0.037 C 
ATOM     15  H1  UNL     1      25.512   1.380  56.039  1.00  0.00     0.165 HD
BRANCH  12  16
HETATM   16  C12 UNL     1      30.338   1.476  55.612  1.00  0.00     0.241 C 
HETATM   17  O2  UNL     1      30.133   0.936  56.736  1.00  0.00    -0.271 OA
HETATM   18  N3  UNL     1      31.512   1.132  54.888  1.00  0.00    -0.351 N 
ATOM     19  H3  UNL     1      31.691   1.558  53.979  1.00  0.00     0.163 HD
BRANCH  18  20
HETATM   20  C13 UNL     1      32.456   0.177  55.435  1.00  0.00     0.022 C 
HETATM   21  C14 UNL     1      32.794   0.525  56.868  1.00  0.00     0.037 C 
HETATM   22  C15 UNL     1      33.754   0.273  54.654  1.00  0.00     0.037 C 
HETATM   23  C16 UNL     1      31.856  -1.210  55.360  1.00  0.00     0.037 C 
ENDBRANCH  18  20
ENDBRANCH  12  16
ENDBRANCH   4   7
BRANCH   4  24
HETATM   24  C17 UNL     1      25.733   2.513  59.043  1.00  0.00     0.246 C 
HETATM   25  O3  UNL     1      26.162   1.416  59.478  1.00  0.00    -0.271 OA
HETATM   26  N4  UNL     1      25.978   3.679  59.781  1.00  0.00    -0.354 N 
ATOM     27  H4  UNL     1      25.637   4.578  59.439  1.00  0.00     0.162 HD
BRANCH  26  28
HETATM   28  C18 UNL     1      26.710   3.612  61.019  1.00  0.00     0.084 C 
HETATM   29  C19 UNL     1      25.852   3.291  62.203  1.00  0.00     0.026 C 
HETATM   30  C20 UNL     1      25.106   4.432  62.826  1.00  0.00     0.008 C 
HETATM   31  C21 UNL     1      25.772   5.688  62.493  1.00  0.00    -0.001 A 
HETATM   32  C22 UNL     1      27.293   5.310  62.602  1.00  0.00     0.000 A 
HETATM   33  C24 UNL     1      26.738   6.489  63.151  1.00  0.00    -0.040 A 
HETATM   34  C23 UNL     1      27.584   4.856  61.231  1.00  0.00     0.031 C 
HETATM   35  C25 UNL     1      27.145   7.821  62.521  1.00  0.00     0.015 C 
HETATM   36  C26 UNL     1      26.667   6.613  64.674  1.00  0.00     0.015 C 
ENDBRANCH  26  28
ENDBRANCH   4  24
BRANCH   1  37
HETATM   37  C2  UNL     1      22.050   2.079  55.422  1.00  0.00     0.000 C 
HETATM   38  C1  UNL     1      20.696   1.416  55.412  1.00  0.00     0.005 C 
ENDBRANCH   1  37
TORSDOF 6
ENDMDL
MODEL 3
REMARK VINA RESULT: -6.912898848      3.450      6.361
REMARK  6 active torsions:
REMARK  status: ('A' for Active; 'I' for Inactive)
REMARK    1  A    between atoms: C2_2  and  C3_3 
REMARK    2  A    between atoms: C6_6  and  N1_7 
REMARK    3  A    between atoms: C6_6  and  C17_24 
REMARK       I    between atoms: N1_7  and  C7_9 
REMARK       I    between atoms: C7_9  and  N2_11 
REMARK    4  A    between atoms: C11_15  and  C12_16 
REMARK       I    between atoms: C12_16  and  N3_18 
REMARK    5  A    between atoms: N3_18  and  C13_20 
REMARK       I    between atoms: C17_24  and  N4_26 
REMARK    6  A    between atoms: N4_26  and  C18_28 
ROOT
HETATM    1  C3  UNL     1      28.306   5.890  51.597  1.00  0.00    -0.015 C 
HETATM    2  C4  UNL     1      26.975   5.331  51.997  1.00  0.00     0.007 C 
HETATM    3  C5  UNL     1      27.126   4.255  53.041  1.00  0.00     0.041 C 
HETATM    4  C6  UNL     1      27.765   4.779  54.326  1.00  0.00     0.115 C 
HETATM    5  C27 UNL     1      28.200   6.184  54.075  1.00  0.00     0.041 C 
HETATM    6  C28 UNL     1      29.059   6.320  52.836  1.00  0.00     0.007 C 
ENDROOT
BRANCH   4   7
HETATM    7  N1  UNL     1      28.821   3.886  54.694  1.00  0.00    -0.325 N 
HETATM    8  C7  UNL     1      28.648   2.515  54.985  1.00  0.00     0.320 C 
HETATM    9  O1  UNL     1      27.535   1.927  54.956  1.00  0.00    -0.247 OA
HETATM   10  N2  UNL     1      29.768   1.701  55.338  1.00  0.00    -0.321 N 
HETATM   11  C8  UNL     1      31.129   2.162  55.438  1.00  0.00     0.129 C 
HETATM   12  C11 UNL     1      29.775   0.289  55.649  1.00  0.00     0.181 C 
HETATM   13  C9  UNL     1      31.587   1.450  56.725  1.00  0.00     0.022 C 
HETATM   14  C10 UNL     1      30.833   0.141  56.700  1.00  0.00     0.037 C 
ATOM     15  H1  UNL     1      29.766   4.267  54.749  1.00  0.00     0.165 HD
BRANCH  12  16
HETATM   16  C12 UNL     1      30.174  -0.554  54.474  1.00  0.00     0.241 C 
HETATM   17  O2  UNL     1      31.141  -1.356  54.606  1.00  0.00    -0.271 OA
HETATM   18  N3  UNL     1      29.504  -0.484  53.222  1.00  0.00    -0.351 N 
ATOM     19  H3  UNL     1      28.721   0.157  53.101  1.00  0.00     0.163 HD
BRANCH  18  20
HETATM   20  C13 UNL     1      29.929  -1.320  52.116  1.00  0.00     0.022 C 
HETATM   21  C14 UNL     1      31.413  -1.157  51.867  1.00  0.00     0.037 C 
HETATM   22  C15 UNL     1      29.229  -0.852  50.854  1.00  0.00     0.037 C 
HETATM   23  C16 UNL     1      29.607  -2.764  52.435  1.00  0.00     0.037 C 
ENDBRANCH  18  20
ENDBRANCH  12  16
ENDBRANCH   4   7
BRANCH   4  24
HETATM   24  C17 UNL     1      26.743   4.818  55.414  1.00  0.00     0.246 C 
HETATM   25  O3  UNL     1      26.966   5.581  56.386  1.00  0.00    -0.271 OA
HETATM   26  N4  UNL     1      25.567   4.057  55.404  1.00  0.00    -0.354 N 
ATOM     27  H4  UNL     1      25.371   3.433  54.621  1.00  0.00     0.162 HD
BRANCH  26  28
HETATM   28  C18 UNL     1      24.633   4.152  56.497  1.00  0.00     0.084 C 
HETATM   29  C19 UNL     1      24.911   3.189  57.607  1.00  0.00     0.026 C 
HETATM   30  C20 UNL     1      24.402   1.790  57.431  1.00  0.00     0.008 C 
HETATM   31  C21 UNL     1      23.296   1.792  56.477  1.00  0.00    -0.001 A 
HETATM   32  C22 UNL     1      22.514   3.100  56.859  1.00  0.00     0.000 A 
HETATM   33  C24 UNL     1      21.887   1.857  56.611  1.00  0.00    -0.040 A 
HETATM   34  C23 UNL     1      23.179   4.101  56.007  1.00  0.00     0.031 C 
HETATM   35  C25 UNL     1      21.021   1.741  55.357  1.00  0.00     0.015 C 
HETATM   36  C26 UNL     1      21.232   1.130  57.787  1.00  0.00     0.015 C 
ENDBRANCH  26  28
ENDBRANCH   4  24
BRANCH   1  37
HETATM   37  C2  UNL     1      29.137   4.898  50.817  1.00  0.00     0.000 C 
HETATM   38  C1  UNL     1      30.485   4.671  51.452  1.00  0.00     0.005 C 
ENDBRANCH   1  37
TORSDOF 6
ENDMDL
MODEL 4
REMARK VINA RESULT: -6.625381810      2.014      7.030
REMARK  6 active torsions:
REMARK  status: ('A' for Active; 'I' for Inactive)
REMARK    1  A    between atoms: C2_2  and  C3_3 
REMARK    2  A    between atoms: C6_6  and  N1_7 
REMARK    3  A    between atoms: C6_6  and  C17_24 
REMARK       I    between atoms: N1_7  and  C7_9 
REMARK       I    between atoms: C7_9  and  N2_11 
REMARK    4  A    between atoms: C11_15  and  C12_16 
REMARK       I    between atoms: C12_16  and  N3_18 
REMARK    5  A    between atoms: N3_18  and  C13_20 
REMARK       I    between atoms: C17_24  and  N4_26 
REMARK    6  A    between atoms: N4_26  and  C18_28 
ROOT
HETATM    1  C3  UNL     1      29.290  -0.061  52.526  1.00  0.00    -0.015 C 
HETATM    2  C4  UNL     1      30.479   0.830  52.719  1.00  0.00     0.007 C 
HETATM    3  C5  UNL     1      30.241   1.829  53.822  1.00  0.00     0.041 C 
HETATM    4  C6  UNL     1      29.997   1.155  55.172  1.00  0.00     0.115 C 
HETATM    5  C27 UNL     1      29.904  -0.315  54.934  1.00  0.00     0.041 C 
HETATM    6  C28 UNL     1      28.905  -0.673  53.855  1.00  0.00     0.007 C 
ENDROOT
BRANCH   4   7
HETATM    7  N1  UNL     1      28.827   1.738  55.754  1.00  0.00    -0.325 N 
HETATM    8  C7  UNL     1      28.222   1.299  56.952  1.00  0.00     0.320 C 
HETATM    9  O1  UNL     1      28.649   0.336  57.641  1.00  0.00    -0.247 OA
HETATM   10  N2  UNL     1      27.056   1.952  57.458  1.00  0.00    -0.321 N 
HETATM   11  C8  UNL     1      26.394   3.069  56.834  1.00  0.00     0.129 C 
HETATM   12  C11 UNL     1      26.322   1.646  58.666  1.00  0.00     0.181 C 
HETATM   13  C9  UNL     1      24.916   2.667  57.002  1.00  0.00     0.022 C 
HETATM   14  C10 UNL     1      24.892   1.927  58.318  1.00  0.00     0.037 C 
ATOM     15  H1  UNL     1      28.400   2.528  55.269  1.00  0.00     0.165 HD
BRANCH  12  16
HETATM   16  C12 UNL     1      26.702   2.542  59.808  1.00  0.00     0.241 C 
HETATM   17  O2  UNL     1      27.886   2.977  59.866  1.00  0.00    -0.271 OA
HETATM   18  N3  UNL     1      25.780   2.917  60.824  1.00  0.00    -0.351 N 
ATOM     19  H3  UNL     1      24.821   2.574  60.790  1.00  0.00     0.163 HD
BRANCH  18  20
HETATM   20  C13 UNL     1      26.199   3.784  61.907  1.00  0.00     0.022 C 
HETATM   21  C14 UNL     1      27.431   3.230  62.587  1.00  0.00     0.037 C 
HETATM   22  C15 UNL     1      25.106   3.812  62.959  1.00  0.00     0.037 C 
HETATM   23  C16 UNL     1      26.481   5.165  61.354  1.00  0.00     0.037 C 
ENDBRANCH  18  20
ENDBRANCH  12  16
ENDBRANCH   4   7
BRANCH   4  24
HETATM   24  C17 UNL     1      31.169   1.388  56.067  1.00  0.00     0.246 C 
HETATM   25  O3  UNL     1      31.936   2.338  55.776  1.00  0.00    -0.271 OA
HETATM   26  N4  UNL     1      31.449   0.611  57.199  1.00  0.00    -0.354 N 
ATOM     27  H4  UNL     1      30.834  -0.163  57.450  1.00  0.00     0.162 HD
BRANCH  26  28
HETATM   28  C18 UNL     1      32.603   0.904  58.011  1.00  0.00     0.084 C 
HETATM   29  C19 UNL     1      33.289  -0.318  58.536  1.00  0.00     0.026 C 
HETATM   30  C20 UNL     1      32.709  -0.941  59.769  1.00  0.00     0.008 C 
HETATM   31  C21 UNL     1      31.934   0.058  60.500  1.00  0.00    -0.001 A 
HETATM   32  C22 UNL     1      32.814   1.351  60.352  1.00  0.00     0.000 A 
HETATM   33  C24 UNL     1      32.231   0.936  61.572  1.00  0.00    -0.040 A 
HETATM   34  C23 UNL     1      32.282   1.930  59.106  1.00  0.00     0.031 C 
HETATM   35  C25 UNL     1      31.110   1.800  62.149  1.00  0.00     0.015 C 
HETATM   36  C26 UNL     1      33.157   0.441  62.684  1.00  0.00     0.015 C 
ENDBRANCH  26  28
ENDBRANCH   4  24
BRANCH   1  37
HETATM   37  C2  UNL     1      28.106   0.677  51.946  1.00  0.00     0.000 C 
HETATM   38  C1  UNL     1      28.121   0.667  50.439  1.00  0.00     0.005 C 
ENDBRANCH   1  37
TORSDOF 6
ENDMDL
MODEL 5
REMARK VINA RESULT: -6.606655034      2.435      7.245
REMARK  6 active torsions:
REMARK  status: ('A' for Active; 'I' for Inactive)
REMARK    1  A    between atoms: C2_2  and  C3_3 
REMARK    2  A    between atoms: C6_6  and  N1_7 
REMARK    3  A    between atoms: C6_6  and  C17_24 
REMARK       I    between atoms: N1_7  and  C7_9 
REMARK       I    between atoms: C7_9  and  N2_11 
REMARK    4  A    between atoms: C11_15  and  C12_16 
REMARK       I    between atoms: C12_16  and  N3_18 
REMARK    5  A    between atoms: N3_18  and  C13_20 
REMARK       I    between atoms: C17_24  and  N4_26 
REMARK    6  A    between atoms: N4_26  and  C18_28 
ROOT
HETATM    1  C3  UNL     1      24.795   3.266  56.397  1.00  0.00    -0.015 C 
HETATM    2  C4  UNL     1      26.154   2.767  56.012  1.00  0.00     0.007 C 
HETATM    3  C5  UNL     1      27.185   3.140  57.046  1.00  0.00     0.041 C 
HETATM    4  C6  UNL     1      26.884   2.528  58.413  1.00  0.00     0.115 C 
HETATM    5  C27 UNL     1      25.544   1.878  58.333  1.00  0.00     0.041 C 
HETATM    6  C28 UNL     1      24.472   2.804  57.800  1.00  0.00     0.007 C 
ENDROOT
BRANCH   4   7
HETATM    7  N1  UNL     1      26.984   3.565  59.395  1.00  0.00    -0.325 N 
HETATM    8  C7  UNL     1      26.531   3.455  60.728  1.00  0.00     0.320 C 
HETATM    9  O1  UNL     1      25.982   2.424  61.199  1.00  0.00    -0.247 OA
HETATM   10  N2  UNL     1      26.680   4.547  61.638  1.00  0.00    -0.321 N 
HETATM   11  C8  UNL     1      27.272   5.820  61.315  1.00  0.00     0.129 C 
HETATM   12  C11 UNL     1      26.290   4.601  63.030  1.00  0.00     0.181 C 
HETATM   13  C9  UNL     1      26.298   6.784  62.018  1.00  0.00     0.022 C 
HETATM   14  C10 UNL     1      25.854   6.018  63.242  1.00  0.00     0.037 C 
ATOM     15  H1  UNL     1      27.413   4.446  59.111  1.00  0.00     0.165 HD
BRANCH  12  16
HETATM   16  C12 UNL     1      27.439   4.330  63.956  1.00  0.00     0.241 C 
HETATM   17  O2  UNL     1      27.399   4.808  65.125  1.00  0.00    -0.271 OA
HETATM   18  N3  UNL     1      28.567   3.556  63.567  1.00  0.00    -0.351 N 
ATOM     19  H3  UNL     1      28.613   3.163  62.628  1.00  0.00     0.163 HD
BRANCH  18  20
HETATM   20  C13 UNL     1      29.651   3.324  64.501  1.00  0.00     0.022 C 
HETATM   21  C14 UNL     1      30.158   4.634  65.063  1.00  0.00     0.037 C 
HETATM   22  C15 UNL     1      30.815   2.702  63.751  1.00  0.00     0.037 C 
HETATM   23  C16 UNL     1      29.160   2.428  65.617  1.00  0.00     0.037 C 
ENDBRANCH  18  20
ENDBRANCH  12  16
ENDBRANCH   4   7
BRANCH   4  24
HETATM   24  C17 UNL     1      27.881   1.459  58.715  1.00  0.00     0.246 C 
HETATM   25  O3  UNL     1      27.488   0.269  58.642  1.00  0.00    -0.271 OA
HETATM   26  N4  UNL     1      29.212   1.714  59.069  1.00  0.00    -0.354 N 
ATOM     27  H4  UNL     1      29.547   2.676  59.131  1.00  0.00     0.162 HD
BRANCH  26  28
HETATM   28  C18 UNL     1      30.111   0.622  59.345  1.00  0.00     0.084 C 
HETATM   29  C19 UNL     1      31.097   0.920  60.430  1.00  0.00     0.026 C 
HETATM   30  C20 UNL     1      32.321   1.691  60.038  1.00  0.00     0.008 C 
HETATM   31  C21 UNL     1      32.557   1.531  58.605  1.00  0.00    -0.001 A 
HETATM   32  C22 UNL     1      32.209   0.018  58.366  1.00  0.00     0.000 A 
HETATM   33  C24 UNL     1      33.358   0.651  57.837  1.00  0.00    -0.040 A 
HETATM   34  C23 UNL     1      30.769   0.090  58.065  1.00  0.00     0.031 C 
HETATM   35  C25 UNL     1      33.423   0.845  56.323  1.00  0.00     0.015 C 
HETATM   36  C26 UNL     1      34.726   0.242  58.387  1.00  0.00     0.015 C 
ENDBRANCH  26  28
ENDBRANCH   4  24
BRANCH   1  37
HETATM   37  C2  UNL     1      24.692   4.772  56.322  1.00  0.00     0.000 C 
HETATM   38  C1  UNL     1      23.981   5.226  55.073  1.00  0.00     0.005 C 
ENDBRANCH   1  37
TORSDOF 6
ENDMDL
