MODEL 1
REMARK VINA RESULT: -6.481445046      0.000      0.000
REMARK  11 active torsions:
REMARK  status: ('A' for Active; 'I' for Inactive)
REMARK    1  A    between atoms: C3_3  and  C4_4 
REMARK    2  A    between atoms: C4_4  and  C5_5 
REMARK    3  A    between atoms: C5_5  and  C6_6 
REMARK    4  A    between atoms: C6_6  and  O1_7 
REMARK    5  A    between atoms: O1_7  and  C7_8 
REMARK    6  A    between atoms: C7_8  and  O2_9 
REMARK    7  A    between atoms: C9_12  and  O3_14 
REMARK    8  A    between atoms: C11_16  and  N1_17 
REMARK       I    between atoms: N1_17  and  C12_19 
REMARK    9  A    between atoms: C12_19  and  C13_21 
REMARK   10  A    between atoms: C17_25  and  O5_26 
REMARK   11  A    between atoms: C20_30  and  O6_31 
ROOT
HETATM    1  C1  UNL     1      17.255  24.395  17.085  1.00  0.00     0.012 C 
HETATM    2  C2  UNL     1      16.124  24.770  17.274  1.00  0.00    -0.117 C 
HETATM    3  C3  UNL     1      14.754  25.241  17.528  1.00  0.00     0.093 C 
ENDROOT
BRANCH   3   4
HETATM    4  C4  UNL     1      14.549  25.333  19.003  1.00  0.00     0.014 C 
BRANCH   4   5
HETATM    5  C5  UNL     1      14.715  26.728  19.555  1.00  0.00     0.027 C 
BRANCH   5   6
HETATM    6  C6  UNL     1      14.893  26.644  21.017  1.00  0.00     0.171 C 
BRANCH   6   7
HETATM    7  O1  UNL     1      13.747  27.086  21.727  1.00  0.00    -0.354 OA
BRANCH   7   8
HETATM    8  C7  UNL     1      13.503  26.275  22.828  1.00  0.00     0.173 C 
HETATM    9  C8  UNL     1      13.197  24.882  22.633  1.00  0.00     0.108 C 
HETATM   10  C9  UNL     1      12.095  24.282  21.908  1.00  0.00     0.082 C 
HETATM   11  C10 UNL     1      11.347  25.012  20.849  1.00  0.00     0.048 C 
HETATM   12  C11 UNL     1      11.228  23.346  22.724  1.00  0.00     0.147 C 
HETATM   13  C17 UNL     1      10.255  23.857  23.671  1.00  0.00     0.144 C 
HETATM   14  C18 UNL     1      10.747  24.364  25.005  1.00  0.00     0.036 C 
HETATM   15  C19 UNL     1      10.852  25.870  24.947  1.00  0.00     0.035 C 
HETATM   16  C20 UNL     1      12.283  26.356  25.052  1.00  0.00     0.131 C 
HETATM   17  C21 UNL     1      12.776  27.094  23.863  1.00  0.00     0.035 C 
HETATM   18  C22 UNL     1      11.663  27.956  23.326  1.00  0.00     0.023 C 
HETATM   19  C23 UNL     1      13.745  28.176  24.433  1.00  0.00     0.023 C 
BRANCH   8  20
HETATM   20  O2  UNL     1      14.839  26.275  23.433  1.00  0.00    -0.364 OA
ATOM     21  H2  UNL     1      15.184  25.476  23.053  1.00  0.00     0.213 HD
ENDBRANCH   8  20
BRANCH  10  22
HETATM   22  O3  UNL     1      12.714  23.270  21.042  1.00  0.00    -0.388 OA
ATOM     23  H3  UNL     1      13.249  22.741  21.623  1.00  0.00     0.210 HD
ENDBRANCH  10  22
BRANCH  12  24
HETATM   24  N1  UNL     1      10.452  22.551  21.736  1.00  0.00    -0.347 N 
HETATM   25  C12 UNL     1      10.383  21.159  21.802  1.00  0.00     0.247 C 
HETATM   26  O4  UNL     1      10.984  20.549  22.710  1.00  0.00    -0.268 OA
ATOM     27  H1  UNL     1       9.957  23.036  20.988  1.00  0.00     0.163 HD
BRANCH  25  28
HETATM   28  C13 UNL     1       9.624  20.397  20.836  1.00  0.00     0.002 C 
HETATM   29  C14 UNL     1       8.599  21.090  19.953  1.00  0.00     0.054 C 
HETATM   30  C15 UNL     1       9.734  19.106  20.628  1.00  0.00    -0.019 C 
HETATM   31  C16 UNL     1       8.924  18.394  19.619  1.00  0.00     0.036 C 
ENDBRANCH  25  28
ENDBRANCH  12  24
BRANCH  13  32
HETATM   32  O5  UNL     1       9.299  24.743  23.235  1.00  0.00    -0.393 OA
ATOM     33  H5  UNL     1       8.531  24.410  22.786  1.00  0.00     0.210 HD
ENDBRANCH  13  32
BRANCH  16  34
HETATM   34  O6  UNL     1      12.307  27.234  26.143  1.00  0.00    -0.395 OA
ATOM     35  H6  UNL     1      11.684  27.921  25.935  1.00  0.00     0.210 HD
ENDBRANCH  16  34
ENDBRANCH   7   8
ENDBRANCH   6   7
ENDBRANCH   5   6
ENDBRANCH   4   5
ENDBRANCH   3   4
TORSDOF 11
ENDMDL
MODEL 2
REMARK VINA RESULT: -6.178042111      1.139      1.242
REMARK  11 active torsions:
REMARK  status: ('A' for Active; 'I' for Inactive)
REMARK    1  A    between atoms: C3_3  and  C4_4 
REMARK    2  A    between atoms: C4_4  and  C5_5 
REMARK    3  A    between atoms: C5_5  and  C6_6 
REMARK    4  A    between atoms: C6_6  and  O1_7 
REMARK    5  A    between atoms: O1_7  and  C7_8 
REMARK    6  A    between atoms: C7_8  and  O2_9 
REMARK    7  A    between atoms: C9_12  and  O3_14 
REMARK    8  A    between atoms: C11_16  and  N1_17 
REMARK       I    between atoms: N1_17  and  C12_19 
REMARK    9  A    between atoms: C12_19  and  C13_21 
REMARK   10  A    between atoms: C17_25  and  O5_26 
REMARK   11  A    between atoms: C20_30  and  O6_31 
ROOT
HETATM    1  C1  UNL     1      17.151  24.395  17.084  1.00  0.00     0.012 C 
HETATM    2  C2  UNL     1      16.901  25.498  17.502  1.00  0.00    -0.117 C 
HETATM    3  C3  UNL     1      16.598  26.835  18.039  1.00  0.00     0.093 C 
ENDROOT
BRANCH   3   4
HETATM    4  C4  UNL     1      15.829  26.674  19.307  1.00  0.00     0.014 C 
BRANCH   4   5
HETATM    5  C5  UNL     1      16.431  27.407  20.481  1.00  0.00     0.027 C 
BRANCH   5   6
HETATM    6  C6  UNL     1      15.704  27.023  21.707  1.00  0.00     0.171 C 
BRANCH   6   7
HETATM    7  O1  UNL     1      14.311  27.274  21.609  1.00  0.00    -0.354 OA
BRANCH   7   8
HETATM    8  C7  UNL     1      13.644  26.817  22.738  1.00  0.00     0.173 C 
HETATM    9  C8  UNL     1      13.353  25.414  22.875  1.00  0.00     0.108 C 
HETATM   10  C9  UNL     1      12.554  24.560  22.018  1.00  0.00     0.082 C 
HETATM   11  C10 UNL     1      12.277  24.894  20.596  1.00  0.00     0.048 C 
HETATM   12  C11 UNL     1      11.401  23.862  22.710  1.00  0.00     0.147 C 
HETATM   13  C17 UNL     1      10.183  24.574  23.045  1.00  0.00     0.144 C 
HETATM   14  C18 UNL     1      10.190  25.485  24.249  1.00  0.00     0.036 C 
HETATM   15  C19 UNL     1      10.391  26.908  23.783  1.00  0.00     0.035 C 
HETATM   16  C20 UNL     1      11.714  27.488  24.242  1.00  0.00     0.131 C 
HETATM   17  C21 UNL     1      12.640  27.864  23.146  1.00  0.00     0.035 C 
HETATM   18  C22 UNL     1      11.843  28.458  22.014  1.00  0.00     0.023 C 
HETATM   19  C23 UNL     1      13.397  29.123  23.673  1.00  0.00     0.023 C 
BRANCH   8  20
HETATM   20  O2  UNL     1      14.672  27.077  23.752  1.00  0.00    -0.364 OA
ATOM     21  H2  UNL     1      14.632  26.258  24.231  1.00  0.00     0.213 HD
ENDBRANCH   8  20
BRANCH  10  22
HETATM   22  O3  UNL     1      13.386  23.374  21.779  1.00  0.00    -0.388 OA
ATOM     23  H3  UNL     1      12.772  22.652  21.702  1.00  0.00     0.210 HD
ENDBRANCH  10  22
BRANCH  12  24
HETATM   24  N1  UNL     1      10.990  22.762  21.798  1.00  0.00    -0.347 N 
HETATM   25  C12 UNL     1      10.189  21.706  22.232  1.00  0.00     0.247 C 
HETATM   26  O4  UNL     1       9.798  21.667  23.416  1.00  0.00    -0.268 OA
ATOM     27  H1  UNL     1      11.303  22.780  20.827  1.00  0.00     0.163 HD
BRANCH  25  28
HETATM   28  C13 UNL     1       9.795  20.643  21.333  1.00  0.00     0.002 C 
HETATM   29  C14 UNL     1       9.006  20.962  20.074  1.00  0.00     0.054 C 
HETATM   30  C15 UNL     1      10.062  19.369  21.498  1.00  0.00    -0.019 C 
HETATM   31  C16 UNL     1       9.626  18.338  20.535  1.00  0.00     0.036 C 
ENDBRANCH  25  28
ENDBRANCH  12  24
BRANCH  13  32
HETATM   32  O5  UNL     1       9.497  25.230  22.051  1.00  0.00    -0.393 OA
ATOM     33  H5  UNL     1       9.498  26.180  22.039  1.00  0.00     0.210 HD
ENDBRANCH  13  32
BRANCH  16  34
HETATM   34  O6  UNL     1      11.392  28.652  24.952  1.00  0.00    -0.395 OA
ATOM     35  H6  UNL     1      10.531  28.911  24.644  1.00  0.00     0.210 HD
ENDBRANCH  16  34
ENDBRANCH   7   8
ENDBRANCH   6   7
ENDBRANCH   5   6
ENDBRANCH   4   5
ENDBRANCH   3   4
TORSDOF 11
ENDMDL
MODEL 3
REMARK VINA RESULT: -6.033633586      2.651      7.572
REMARK  11 active torsions:
REMARK  status: ('A' for Active; 'I' for Inactive)
REMARK    1  A    between atoms: C3_3  and  C4_4 
REMARK    2  A    between atoms: C4_4  and  C5_5 
REMARK    3  A    between atoms: C5_5  and  C6_6 
REMARK    4  A    between atoms: C6_6  and  O1_7 
REMARK    5  A    between atoms: O1_7  and  C7_8 
REMARK    6  A    between atoms: C7_8  and  O2_9 
REMARK    7  A    between atoms: C9_12  and  O3_14 
REMARK    8  A    between atoms: C11_16  and  N1_17 
REMARK       I    between atoms: N1_17  and  C12_19 
REMARK    9  A    between atoms: C12_19  and  C13_21 
REMARK   10  A    between atoms: C17_25  and  O5_26 
REMARK   11  A    between atoms: C20_30  and  O6_31 
ROOT
HETATM    1  C1  UNL     1       8.915  18.527  18.981  1.00  0.00     0.012 C 
HETATM    2  C2  UNL     1       9.240  18.498  20.142  1.00  0.00    -0.117 C 
HETATM    3  C3  UNL     1       9.634  18.491  21.560  1.00  0.00     0.093 C 
ENDROOT
BRANCH   3   4
HETATM    4  C4  UNL     1      10.386  19.747  21.850  1.00  0.00     0.014 C 
BRANCH   4   5
HETATM    5  C5  UNL     1       9.500  20.943  22.099  1.00  0.00     0.027 C 
BRANCH   5   6
HETATM    6  C6  UNL     1      10.340  22.155  22.159  1.00  0.00     0.171 C 
BRANCH   6   7
HETATM    7  O1  UNL     1       9.779  23.238  21.434  1.00  0.00    -0.354 OA
BRANCH   7   8
HETATM    8  C7  UNL     1      10.668  23.705  20.474  1.00  0.00     0.173 C 
HETATM    9  C8  UNL     1      12.022  24.017  20.849  1.00  0.00     0.108 C 
HETATM   10  C9  UNL     1      12.502  24.989  21.811  1.00  0.00     0.082 C 
HETATM   11  C10 UNL     1      11.648  25.508  22.913  1.00  0.00     0.048 C 
HETATM   12  C11 UNL     1      13.459  26.022  21.253  1.00  0.00     0.147 C 
HETATM   13  C17 UNL     1      12.982  27.133  20.450  1.00  0.00     0.144 C 
HETATM   14  C18 UNL     1      12.616  26.874  19.009  1.00  0.00     0.036 C 
HETATM   15  C19 UNL     1      11.118  26.708  18.907  1.00  0.00     0.035 C 
HETATM   16  C20 UNL     1      10.715  25.304  18.505  1.00  0.00     0.131 C 
HETATM   17  C21 UNL     1       9.905  24.579  19.513  1.00  0.00     0.035 C 
HETATM   18  C22 UNL     1       8.945  25.546  20.157  1.00  0.00     0.023 C 
HETATM   19  C23 UNL     1       8.925  23.693  18.682  1.00  0.00     0.023 C 
BRANCH   8  20
HETATM   20  O2  UNL     1      10.787  22.501  19.644  1.00  0.00    -0.364 OA
ATOM     21  H2  UNL     1      11.296  21.955  20.231  1.00  0.00     0.213 HD
ENDBRANCH   8  20
BRANCH  10  22
HETATM   22  O3  UNL     1      13.466  24.258  22.643  1.00  0.00    -0.388 OA
ATOM     23  H3  UNL     1      13.266  24.514  23.537  1.00  0.00     0.210 HD
ENDBRANCH  10  22
BRANCH  12  24
HETATM   24  N1  UNL     1      14.127  26.632  22.432  1.00  0.00    -0.347 N 
HETATM   25  C12 UNL     1      15.448  27.079  22.381  1.00  0.00     0.247 C 
HETATM   26  O4  UNL     1      16.101  26.970  21.324  1.00  0.00    -0.268 OA
ATOM     27  H1  UNL     1      13.605  26.727  23.304  1.00  0.00     0.163 HD
BRANCH  25  28
HETATM   28  C13 UNL     1      16.086  27.671  23.536  1.00  0.00     0.002 C 
HETATM   29  C14 UNL     1      15.318  27.819  24.840  1.00  0.00     0.054 C 
HETATM   30  C15 UNL     1      17.320  28.115  23.580  1.00  0.00    -0.019 C 
HETATM   31  C16 UNL     1      17.905  28.710  24.799  1.00  0.00     0.036 C 
ENDBRANCH  25  28
ENDBRANCH  12  24
BRANCH  13  32
HETATM   32  O5  UNL     1      12.015  27.963  20.965  1.00  0.00    -0.393 OA
ATOM     33  H5  UNL     1      12.260  28.835  21.251  1.00  0.00     0.210 HD
ENDBRANCH  13  32
BRANCH  16  34
HETATM   34  O6  UNL     1       9.936  25.449  17.350  1.00  0.00    -0.395 OA
ATOM     35  H6  UNL     1      10.444  25.061  16.646  1.00  0.00     0.210 HD
ENDBRANCH  16  34
ENDBRANCH   7   8
ENDBRANCH   6   7
ENDBRANCH   5   6
ENDBRANCH   4   5
ENDBRANCH   3   4
TORSDOF 11
ENDMDL
MODEL 4
REMARK VINA RESULT: -5.974056130      1.698      6.336
REMARK  11 active torsions:
REMARK  status: ('A' for Active; 'I' for Inactive)
REMARK    1  A    between atoms: C3_3  and  C4_4 
REMARK    2  A    between atoms: C4_4  and  C5_5 
REMARK    3  A    between atoms: C5_5  and  C6_6 
REMARK    4  A    between atoms: C6_6  and  O1_7 
REMARK    5  A    between atoms: O1_7  and  C7_8 
REMARK    6  A    between atoms: C7_8  and  O2_9 
REMARK    7  A    between atoms: C9_12  and  O3_14 
REMARK    8  A    between atoms: C11_16  and  N1_17 
REMARK       I    between atoms: N1_17  and  C12_19 
REMARK    9  A    between atoms: C12_19  and  C13_21 
REMARK   10  A    between atoms: C17_25  and  O5_26 
REMARK   11  A    between atoms: C20_30  and  O6_31 
ROOT
HETATM    1  C1  UNL     1       9.279  17.656  18.853  1.00  0.00     0.012 C 
HETATM    2  C2  UNL     1       9.479  18.122  19.948  1.00  0.00    -0.117 C 
HETATM    3  C3  UNL     1       9.703  18.712  21.277  1.00  0.00     0.093 C 
ENDROOT
BRANCH   3   4
HETATM    4  C4  UNL     1       9.574  20.195  21.167  1.00  0.00     0.014 C 
BRANCH   4   5
HETATM    5  C5  UNL     1      10.540  20.956  22.041  1.00  0.00     0.027 C 
BRANCH   5   6
HETATM    6  C6  UNL     1       9.776  21.876  22.907  1.00  0.00     0.171 C 
BRANCH   6   7
HETATM    7  O1  UNL     1      10.603  22.856  23.515  1.00  0.00    -0.354 OA
BRANCH   7   8
HETATM    8  C7  UNL     1      10.333  24.119  23.003  1.00  0.00     0.173 C 
HETATM    9  C8  UNL     1      10.933  24.527  21.760  1.00  0.00     0.108 C 
HETATM   10  C9  UNL     1      12.337  24.655  21.422  1.00  0.00     0.082 C 
HETATM   11  C10 UNL     1      13.404  23.939  22.170  1.00  0.00     0.048 C 
HETATM   12  C11 UNL     1      12.755  26.029  20.940  1.00  0.00     0.147 C 
HETATM   13  C17 UNL     1      12.933  27.129  21.869  1.00  0.00     0.144 C 
HETATM   14  C18 UNL     1      11.706  27.826  22.404  1.00  0.00     0.036 C 
HETATM   15  C19 UNL     1      11.390  27.276  23.774  1.00  0.00     0.035 C 
HETATM   16  C20 UNL     1      10.081  26.512  23.806  1.00  0.00     0.131 C 
HETATM   17  C21 UNL     1      10.209  25.077  24.159  1.00  0.00     0.035 C 
HETATM   18  C22 UNL     1      11.263  24.928  25.226  1.00  0.00     0.023 C 
HETATM   19  C23 UNL     1       8.916  24.743  24.966  1.00  0.00     0.023 C 
BRANCH   8  20
HETATM   20  O2  UNL     1       8.910  23.956  22.687  1.00  0.00    -0.364 OA
ATOM     21  H2  UNL     1       8.831  24.591  21.985  1.00  0.00     0.213 HD
ENDBRANCH   8  20
BRANCH  10  22
HETATM   22  O3  UNL     1      12.488  23.945  20.145  1.00  0.00    -0.388 OA
ATOM     23  H3  UNL     1      13.401  23.682  20.115  1.00  0.00     0.210 HD
ENDBRANCH  10  22
BRANCH  12  24
HETATM   24  N1  UNL     1      14.071  25.840  20.277  1.00  0.00    -0.347 N 
HETATM   25  C12 UNL     1      14.214  25.906  18.891  1.00  0.00     0.247 C 
HETATM   26  O4  UNL     1      13.218  26.128  18.173  1.00  0.00    -0.268 OA
ATOM     27  H1  UNL     1      14.894  25.657  20.851  1.00  0.00     0.163 HD
BRANCH  25  28
HETATM   28  C13 UNL     1      15.501  25.722  18.258  1.00  0.00     0.002 C 
HETATM   29  C14 UNL     1      16.610  26.740  18.474  1.00  0.00     0.054 C 
HETATM   30  C15 UNL     1      15.831  24.718  17.480  1.00  0.00    -0.019 C 
HETATM   31  C16 UNL     1      17.169  24.596  16.868  1.00  0.00     0.036 C 
ENDBRANCH  25  28
ENDBRANCH  12  24
BRANCH  13  32
HETATM   32  O5  UNL     1      13.799  26.977  22.926  1.00  0.00    -0.393 OA
ATOM     33  H5  UNL     1      14.501  26.340  22.861  1.00  0.00     0.210 HD
ENDBRANCH  13  32
BRANCH  16  34
HETATM   34  O6  UNL     1       9.305  27.131  24.795  1.00  0.00    -0.395 OA
ATOM     35  H6  UNL     1       8.647  26.491  25.043  1.00  0.00     0.210 HD
ENDBRANCH  16  34
ENDBRANCH   7   8
ENDBRANCH   6   7
ENDBRANCH   5   6
ENDBRANCH   4   5
ENDBRANCH   3   4
TORSDOF 11
ENDMDL
MODEL 5
REMARK VINA RESULT: -5.943058625      2.470      4.495
REMARK  11 active torsions:
REMARK  status: ('A' for Active; 'I' for Inactive)
REMARK    1  A    between atoms: C3_3  and  C4_4 
REMARK    2  A    between atoms: C4_4  and  C5_5 
REMARK    3  A    between atoms: C5_5  and  C6_6 
REMARK    4  A    between atoms: C6_6  and  O1_7 
REMARK    5  A    between atoms: O1_7  and  C7_8 
REMARK    6  A    between atoms: C7_8  and  O2_9 
REMARK    7  A    between atoms: C9_12  and  O3_14 
REMARK    8  A    between atoms: C11_16  and  N1_17 
REMARK       I    between atoms: N1_17  and  C12_19 
REMARK    9  A    between atoms: C12_19  and  C13_21 
REMARK   10  A    between atoms: C17_25  and  O5_26 
REMARK   11  A    between atoms: C20_30  and  O6_31 
ROOT
HETATM    1  C1  UNL     1      18.676  23.688  14.837  1.00  0.00     0.012 C 
HETATM    2  C2  UNL     1      17.984  24.027  15.765  1.00  0.00    -0.117 C 
HETATM    3  C3  UNL     1      17.116  24.430  16.883  1.00  0.00     0.093 C 
ENDROOT
BRANCH   3   4
HETATM    4  C4  UNL     1      15.796  24.854  16.331  1.00  0.00     0.014 C 
BRANCH   4   5
HETATM    5  C5  UNL     1      15.723  26.323  15.992  1.00  0.00     0.027 C 
BRANCH   5   6
HETATM    6  C6  UNL     1      16.650  27.062  16.872  1.00  0.00     0.171 C 
BRANCH   6   7
HETATM    7  O1  UNL     1      15.978  28.002  17.696  1.00  0.00    -0.354 OA
BRANCH   7   8
HETATM    8  C7  UNL     1      16.213  27.742  19.039  1.00  0.00     0.173 C 
HETATM    9  C8  UNL     1      15.633  26.574  19.650  1.00  0.00     0.108 C 
HETATM   10  C9  UNL     1      14.235  26.217  19.793  1.00  0.00     0.082 C 
HETATM   11  C10 UNL     1      13.176  26.783  18.917  1.00  0.00     0.048 C 
HETATM   12  C11 UNL     1      13.779  25.982  21.218  1.00  0.00     0.147 C 
HETATM   13  C17 UNL     1      13.532  27.091  22.121  1.00  0.00     0.144 C 
HETATM   14  C18 UNL     1      14.716  27.787  22.747  1.00  0.00     0.036 C 
HETATM   15  C19 UNL     1      15.014  29.043  21.963  1.00  0.00     0.035 C 
HETATM   16  C20 UNL     1      16.350  28.980  21.249  1.00  0.00     0.131 C 
HETATM   17  C21 UNL     1      16.267  29.057  19.770  1.00  0.00     0.035 C 
HETATM   18  C22 UNL     1      15.191  30.041  19.392  1.00  0.00     0.023 C 
HETATM   19  C23 UNL     1      17.549  29.833  19.335  1.00  0.00     0.023 C 
BRANCH   8  20
HETATM   20  O2  UNL     1      17.649  27.450  18.984  1.00  0.00    -0.364 OA
ATOM     21  H2  UNL     1      17.615  26.523  18.779  1.00  0.00     0.213 HD
ENDBRANCH   8  20
BRANCH  10  22
HETATM   22  O3  UNL     1      14.148  24.827  19.328  1.00  0.00    -0.388 OA
ATOM     23  H3  UNL     1      13.311  24.511  19.649  1.00  0.00     0.210 HD
ENDBRANCH  10  22
BRANCH  12  24
HETATM   24  N1  UNL     1      12.490  25.250  21.113  1.00  0.00    -0.347 N 
HETATM   25  C12 UNL     1      12.213  24.129  21.896  1.00  0.00     0.247 C 
HETATM   26  O4  UNL     1      13.062  23.715  22.712  1.00  0.00    -0.268 OA
ATOM     27  H1  UNL     1      11.787  25.576  20.449  1.00  0.00     0.163 HD
BRANCH  25  28
HETATM   28  C13 UNL     1      10.954  23.426  21.784  1.00  0.00     0.002 C 
HETATM   29  C14 UNL     1       9.682  24.188  21.447  1.00  0.00     0.054 C 
HETATM   30  C15 UNL     1      10.785  22.135  21.949  1.00  0.00    -0.019 C 
HETATM   31  C16 UNL     1       9.465  21.487  21.819  1.00  0.00     0.036 C 
ENDBRANCH  25  28
ENDBRANCH  12  24
BRANCH  13  32
HETATM   32  O5  UNL     1      12.643  28.071  21.748  1.00  0.00    -0.393 OA
ATOM     33  H5  UNL     1      12.756  28.501  20.908  1.00  0.00     0.210 HD
ENDBRANCH  13  32
BRANCH  16  34
HETATM   34  O6  UNL     1      17.074  30.091  21.699  1.00  0.00    -0.395 OA
ATOM     35  H6  UNL     1      17.904  29.749  22.010  1.00  0.00     0.210 HD
ENDBRANCH  16  34
ENDBRANCH   7   8
ENDBRANCH   6   7
ENDBRANCH   5   6
ENDBRANCH   4   5
ENDBRANCH   3   4
TORSDOF 11
ENDMDL
