MODEL 1
REMARK VINA RESULT: -7.867112086      0.000      0.000
REMARK  5 active torsions:
REMARK  status: ('A' for Active; 'I' for Inactive)
REMARK    1  A    between atoms: C3_4  and  C4_5 
REMARK       I    between atoms: N1_8  and  C5_9 
REMARK    2  A    between atoms: C5_9  and  C6_11 
REMARK    3  A    between atoms: C6_11  and  N2_12 
REMARK    4  A    between atoms: C6_11  and  C18_28 
REMARK       I    between atoms: N2_12  and  C7_14 
REMARK       I    between atoms: C7_14  and  N3_16 
REMARK    5  A    between atoms: N3_16  and  C8_18 
ROOT
HETATM    1  C6  UNL     1      25.415   2.279  57.863  1.00  0.00     0.182 C 
ENDROOT
BRANCH   1   2
HETATM    2  C5  UNL     1      26.663   1.824  57.221  1.00  0.00     0.244 C 
HETATM    3  N1  UNL     1      27.390   2.514  56.209  1.00  0.00    -0.328 N 
HETATM    4  C3  UNL     1      28.553   2.139  55.489  1.00  0.00     0.195 C 
HETATM    5  C25 UNL     1      27.025   3.855  55.809  1.00  0.00     0.205 C 
HETATM    6  C2  UNL     1      28.625   3.089  54.310  1.00  0.00     0.116 C 
HETATM    7  C1  UNL     1      27.327   3.834  54.350  1.00  0.00     0.147 C 
HETATM    8  O1  UNL     1      26.656   4.313  53.472  1.00  0.00    -0.296 OA
HETATM    9  O4  UNL     1      27.119   0.723  57.614  1.00  0.00    -0.271 OA
BRANCH   4  10
HETATM   10  C4  UNL     1      28.558   0.779  54.917  1.00  0.00     0.197 C 
HETATM   11  O2  UNL     1      27.800   0.427  54.005  1.00  0.00    -0.646 OA
HETATM   12  O3  UNL     1      29.460  -0.133  55.440  1.00  0.00    -0.646 OA
ENDBRANCH   4  10
ENDBRANCH   1   2
BRANCH   1  13
HETATM   13  N2  UNL     1      25.497   1.990  59.302  1.00  0.00    -0.329 N 
HETATM   14  C7  UNL     1      26.157   2.936  60.134  1.00  0.00     0.317 C 
HETATM   15  O5  UNL     1      26.628   3.955  59.612  1.00  0.00    -0.247 OA
HETATM   16  N3  UNL     1      26.252   2.683  61.519  1.00  0.00    -0.334 N 
ATOM     17  H3  UNL     1      25.835   1.823  61.873  1.00  0.00     0.165 HD
ATOM     18  H2  UNL     1      25.094   1.139  59.692  1.00  0.00     0.165 HD
BRANCH  16  19
HETATM   19  C8  UNL     1      26.897   3.554  62.465  1.00  0.00     0.035 C 
HETATM   20  C9  UNL     1      28.351   3.664  62.148  1.00  0.00     0.035 C 
HETATM   21  C10 UNL     1      29.037   4.558  63.169  1.00  0.00    -0.012 C 
HETATM   22  C11 UNL     1      28.405   5.930  63.155  1.00  0.00     0.009 C 
HETATM   23  C15 UNL     1      28.893   3.955  64.527  1.00  0.00     0.009 C 
HETATM   24  C12 UNL     1      26.930   5.784  63.481  1.00  0.00    -0.012 C 
HETATM   25  C13 UNL     1      26.797   5.220  64.867  1.00  0.00     0.009 C 
HETATM   26  C17 UNL     1      26.231   4.916  62.481  1.00  0.00     0.035 C 
HETATM   27  C14 UNL     1      27.423   3.831  64.874  1.00  0.00    -0.012 C 
HETATM   28  C16 UNL     1      26.698   2.989  63.866  1.00  0.00     0.035 C 
ENDBRANCH  16  19
ENDBRANCH   1  13
BRANCH   1  29
HETATM   29  C18 UNL     1      24.173   1.578  57.324  1.00  0.00     0.018 C 
HETATM   30  C19 UNL     1      23.118   1.358  58.372  1.00  0.00     0.007 C 
HETATM   31  C20 UNL     1      22.104   0.320  57.946  1.00  0.00     0.000 C 
HETATM   32  C21 UNL     1      20.858   1.051  57.508  1.00  0.00     0.000 C 
HETATM   33  C22 UNL     1      21.161   1.630  56.136  1.00  0.00     0.000 C 
HETATM   34  C23 UNL     1      22.193   2.722  56.252  1.00  0.00     0.000 C 
HETATM   35  C24 UNL     1      23.617   2.218  56.096  1.00  0.00     0.007 C 
ENDBRANCH   1  29
TORSDOF 5
ENDMDL
MODEL 2
REMARK VINA RESULT: -7.482645998      4.187      7.368
REMARK  5 active torsions:
REMARK  status: ('A' for Active; 'I' for Inactive)
REMARK    1  A    between atoms: C3_4  and  C4_5 
REMARK       I    between atoms: N1_8  and  C5_9 
REMARK    2  A    between atoms: C5_9  and  C6_11 
REMARK    3  A    between atoms: C6_11  and  N2_12 
REMARK    4  A    between atoms: C6_11  and  C18_28 
REMARK       I    between atoms: N2_12  and  C7_14 
REMARK       I    between atoms: C7_14  and  N3_16 
REMARK    5  A    between atoms: N3_16  and  C8_18 
ROOT
HETATM    1  C6  UNL     1      25.596   3.745  55.902  1.00  0.00     0.182 C 
ENDROOT
BRANCH   1   2
HETATM    2  C5  UNL     1      25.419   4.899  55.000  1.00  0.00     0.244 C 
HETATM    3  N1  UNL     1      26.262   6.043  54.921  1.00  0.00    -0.328 N 
HETATM    4  C3  UNL     1      26.148   7.223  54.142  1.00  0.00     0.195 C 
HETATM    5  C25 UNL     1      27.507   6.107  55.654  1.00  0.00     0.205 C 
HETATM    6  C2  UNL     1      27.115   8.213  54.760  1.00  0.00     0.116 C 
HETATM    7  C1  UNL     1      27.576   7.549  56.019  1.00  0.00     0.147 C 
HETATM    8  O1  UNL     1      27.924   8.005  57.079  1.00  0.00    -0.296 OA
HETATM    9  O4  UNL     1      24.427   4.854  54.231  1.00  0.00    -0.271 OA
BRANCH   4  10
HETATM   10  C4  UNL     1      24.829   7.884  54.146  1.00  0.00     0.197 C 
HETATM   11  O2  UNL     1      24.142   8.014  55.166  1.00  0.00    -0.646 OA
HETATM   12  O3  UNL     1      24.355   8.375  52.941  1.00  0.00    -0.646 OA
ENDBRANCH   4  10
ENDBRANCH   1   2
BRANCH   1  13
HETATM   13  N2  UNL     1      25.969   2.573  55.096  1.00  0.00    -0.329 N 
HETATM   14  C7  UNL     1      27.326   2.148  55.129  1.00  0.00     0.317 C 
HETATM   15  O5  UNL     1      28.125   2.779  55.831  1.00  0.00    -0.247 OA
HETATM   16  N3  UNL     1      27.712   1.028  54.363  1.00  0.00    -0.334 N 
ATOM     17  H3  UNL     1      26.993   0.559  53.812  1.00  0.00     0.165 HD
ATOM     18  H2  UNL     1      25.277   2.081  54.531  1.00  0.00     0.165 HD
BRANCH  16  19
HETATM   19  C8  UNL     1      29.050   0.502  54.304  1.00  0.00     0.035 C 
HETATM   20  C9  UNL     1      29.976   1.527  53.739  1.00  0.00     0.035 C 
HETATM   21  C10 UNL     1      31.383   0.957  53.647  1.00  0.00    -0.012 C 
HETATM   22  C11 UNL     1      31.857   0.540  55.018  1.00  0.00     0.009 C 
HETATM   23  C15 UNL     1      31.377  -0.227  52.737  1.00  0.00     0.009 C 
HETATM   24  C12 UNL     1      30.897  -0.501  55.563  1.00  0.00    -0.012 C 
HETATM   25  C13 UNL     1      30.933  -1.706  54.667  1.00  0.00     0.009 C 
HETATM   26  C17 UNL     1      29.506   0.042  55.674  1.00  0.00     0.035 C 
HETATM   27  C14 UNL     1      30.441  -1.284  53.289  1.00  0.00    -0.012 C 
HETATM   28  C16 UNL     1      29.046  -0.750  53.436  1.00  0.00     0.035 C 
ENDBRANCH  16  19
ENDBRANCH   1  13
BRANCH   1  29
HETATM   29  C18 UNL     1      24.330   3.387  56.673  1.00  0.00     0.018 C 
HETATM   30  C19 UNL     1      23.425   2.451  55.921  1.00  0.00     0.007 C 
HETATM   31  C20 UNL     1      22.024   2.438  56.490  1.00  0.00     0.000 C 
HETATM   32  C21 UNL     1      21.875   1.180  57.309  1.00  0.00     0.000 C 
HETATM   33  C22 UNL     1      22.630   1.422  58.606  1.00  0.00     0.000 C 
HETATM   34  C23 UNL     1      24.111   1.498  58.335  1.00  0.00     0.000 C 
HETATM   35  C24 UNL     1      24.597   2.910  58.062  1.00  0.00     0.007 C 
ENDBRANCH   1  29
TORSDOF 5
ENDMDL
MODEL 3
REMARK VINA RESULT: -7.449271123      4.185      7.372
REMARK  5 active torsions:
REMARK  status: ('A' for Active; 'I' for Inactive)
REMARK    1  A    between atoms: C3_4  and  C4_5 
REMARK       I    between atoms: N1_8  and  C5_9 
REMARK    2  A    between atoms: C5_9  and  C6_11 
REMARK    3  A    between atoms: C6_11  and  N2_12 
REMARK    4  A    between atoms: C6_11  and  C18_28 
REMARK       I    between atoms: N2_12  and  C7_14 
REMARK       I    between atoms: C7_14  and  N3_16 
REMARK    5  A    between atoms: N3_16  and  C8_18 
ROOT
HETATM    1  C6  UNL     1      25.587   3.715  55.914  1.00  0.00     0.182 C 
ENDROOT
BRANCH   1   2
HETATM    2  C5  UNL     1      25.420   4.868  55.008  1.00  0.00     0.244 C 
HETATM    3  N1  UNL     1      26.271   6.006  54.929  1.00  0.00    -0.328 N 
HETATM    4  C3  UNL     1      26.167   7.185  54.147  1.00  0.00     0.195 C 
HETATM    5  C25 UNL     1      27.514   6.063  55.665  1.00  0.00     0.205 C 
HETATM    6  C2  UNL     1      27.139   8.170  54.765  1.00  0.00     0.116 C 
HETATM    7  C1  UNL     1      27.592   7.506  56.027  1.00  0.00     0.147 C 
HETATM    8  O1  UNL     1      27.941   7.963  57.086  1.00  0.00    -0.296 OA
HETATM    9  O4  UNL     1      24.430   4.828  54.237  1.00  0.00    -0.271 OA
BRANCH   4  10
HETATM   10  C4  UNL     1      24.852   7.855  54.146  1.00  0.00     0.197 C 
HETATM   11  O2  UNL     1      24.163   7.992  55.164  1.00  0.00    -0.646 OA
HETATM   12  O3  UNL     1      24.384   8.346  52.939  1.00  0.00    -0.646 OA
ENDBRANCH   4  10
ENDBRANCH   1   2
BRANCH   1  13
HETATM   13  N2  UNL     1      25.956   2.539  55.111  1.00  0.00    -0.329 N 
HETATM   14  C7  UNL     1      27.309   2.106  55.151  1.00  0.00     0.317 C 
HETATM   15  O5  UNL     1      28.110   2.732  55.855  1.00  0.00    -0.247 OA
HETATM   16  N3  UNL     1      27.692   0.981  54.389  1.00  0.00    -0.334 N 
ATOM     17  H3  UNL     1      26.971   0.516  53.836  1.00  0.00     0.165 HD
ATOM     18  H2  UNL     1      25.263   2.050  54.545  1.00  0.00     0.165 HD
BRANCH  16  19
HETATM   19  C8  UNL     1      29.026   0.446  54.336  1.00  0.00     0.035 C 
HETATM   20  C9  UNL     1      29.471   0.050  55.705  1.00  0.00     0.035 C 
HETATM   21  C10 UNL     1      30.893  -0.484  55.652  1.00  0.00    -0.012 C 
HETATM   22  C11 UNL     1      30.958  -1.677  54.728  1.00  0.00     0.009 C 
HETATM   23  C15 UNL     1      31.804   0.588  55.150  1.00  0.00     0.009 C 
HETATM   24  C12 UNL     1      30.502  -1.241  53.347  1.00  0.00    -0.012 C 
HETATM   25  C13 UNL     1      31.451  -0.197  52.833  1.00  0.00     0.009 C 
HETATM   26  C17 UNL     1      29.097  -0.722  53.373  1.00  0.00     0.035 C 
HETATM   27  C14 UNL     1      31.373   1.009  53.760  1.00  0.00    -0.012 C 
HETATM   28  C16 UNL     1      29.957   1.506  53.759  1.00  0.00     0.035 C 
ENDBRANCH  16  19
ENDBRANCH   1  13
BRANCH   1  29
HETATM   29  C18 UNL     1      24.316   3.366  56.681  1.00  0.00     0.018 C 
HETATM   30  C19 UNL     1      23.411   2.428  55.932  1.00  0.00     0.007 C 
HETATM   31  C20 UNL     1      22.008   2.424  56.494  1.00  0.00     0.000 C 
HETATM   32  C21 UNL     1      21.851   1.172  57.321  1.00  0.00     0.000 C 
HETATM   33  C22 UNL     1      22.601   1.420  58.620  1.00  0.00     0.000 C 
HETATM   34  C23 UNL     1      24.083   1.489  58.355  1.00  0.00     0.000 C 
HETATM   35  C24 UNL     1      24.575   2.898  58.075  1.00  0.00     0.007 C 
ENDBRANCH   1  29
TORSDOF 5
ENDMDL
MODEL 4
REMARK VINA RESULT: -7.095783010      2.568      7.988
REMARK  5 active torsions:
REMARK  status: ('A' for Active; 'I' for Inactive)
REMARK    1  A    between atoms: C3_4  and  C4_5 
REMARK       I    between atoms: N1_8  and  C5_9 
REMARK    2  A    between atoms: C5_9  and  C6_11 
REMARK    3  A    between atoms: C6_11  and  N2_12 
REMARK    4  A    between atoms: C6_11  and  C18_28 
REMARK       I    between atoms: N2_12  and  C7_14 
REMARK       I    between atoms: C7_14  and  N3_16 
REMARK    5  A    between atoms: N3_16  and  C8_18 
ROOT
HETATM    1  C6  UNL     1      27.219   2.781  57.955  1.00  0.00     0.182 C 
ENDROOT
BRANCH   1   2
HETATM    2  C5  UNL     1      25.975   1.998  57.827  1.00  0.00     0.244 C 
HETATM    3  N1  UNL     1      24.793   2.400  57.143  1.00  0.00    -0.328 N 
HETATM    4  C3  UNL     1      23.535   1.757  57.016  1.00  0.00     0.195 C 
HETATM    5  C25 UNL     1      24.761   3.612  56.354  1.00  0.00     0.205 C 
HETATM    6  C2  UNL     1      22.583   2.823  56.511  1.00  0.00     0.116 C 
HETATM    7  C1  UNL     1      23.370   4.093  56.584  1.00  0.00     0.147 C 
HETATM    8  O1  UNL     1      23.028   5.233  56.776  1.00  0.00    -0.296 OA
HETATM    9  O4  UNL     1      25.972   0.869  58.377  1.00  0.00    -0.271 OA
BRANCH   4  10
HETATM   10  C4  UNL     1      22.939   1.234  58.260  1.00  0.00     0.197 C 
HETATM   11  O2  UNL     1      22.973   1.846  59.335  1.00  0.00    -0.646 OA
HETATM   12  O3  UNL     1      22.317  -0.002  58.203  1.00  0.00    -0.646 OA
ENDBRANCH   4  10
ENDBRANCH   1   2
BRANCH   1  13
HETATM   13  N2  UNL     1      28.363   1.868  57.816  1.00  0.00    -0.329 N 
HETATM   14  C7  UNL     1      28.670   1.380  56.516  1.00  0.00     0.317 C 
HETATM   15  O5  UNL     1      27.965   1.744  55.566  1.00  0.00    -0.247 OA
HETATM   16  N3  UNL     1      29.761   0.501  56.354  1.00  0.00    -0.334 N 
ATOM     17  H3  UNL     1      30.296   0.250  57.185  1.00  0.00     0.165 HD
ATOM     18  H2  UNL     1      28.919   1.594  58.625  1.00  0.00     0.165 HD
BRANCH  16  19
HETATM   19  C8  UNL     1      30.171  -0.068  55.098  1.00  0.00     0.035 C 
HETATM   20  C9  UNL     1      29.038  -0.822  54.485  1.00  0.00     0.035 C 
HETATM   21  C10 UNL     1      29.484  -1.450  53.174  1.00  0.00    -0.012 C 
HETATM   22  C11 UNL     1      29.954  -0.374  52.225  1.00  0.00     0.009 C 
HETATM   23  C15 UNL     1      30.599  -2.406  53.439  1.00  0.00     0.009 C 
HETATM   24  C12 UNL     1      31.105   0.372  52.875  1.00  0.00    -0.012 C 
HETATM   25  C13 UNL     1      32.238  -0.588  53.095  1.00  0.00     0.009 C 
HETATM   26  C17 UNL     1      30.686   1.010  54.164  1.00  0.00     0.035 C 
HETATM   27  C14 UNL     1      31.764  -1.664  54.063  1.00  0.00    -0.012 C 
HETATM   28  C16 UNL     1      31.357  -0.993  55.342  1.00  0.00     0.035 C 
ENDBRANCH  16  19
ENDBRANCH   1  13
BRANCH   1  29
HETATM   29  C18 UNL     1      27.352   3.481  59.303  1.00  0.00     0.018 C 
HETATM   30  C19 UNL     1      26.367   2.986  60.325  1.00  0.00     0.007 C 
HETATM   31  C20 UNL     1      26.224   3.944  61.486  1.00  0.00     0.000 C 
HETATM   32  C21 UNL     1      27.006   3.378  62.646  1.00  0.00     0.000 C 
HETATM   33  C22 UNL     1      28.473   3.632  62.337  1.00  0.00     0.000 C 
HETATM   34  C23 UNL     1      28.909   2.788  61.167  1.00  0.00     0.000 C 
HETATM   35  C24 UNL     1      28.748   3.491  59.831  1.00  0.00     0.007 C 
ENDBRANCH   1  29
TORSDOF 5
ENDMDL
MODEL 5
REMARK VINA RESULT: -7.027772997      2.214      5.010
REMARK  5 active torsions:
REMARK  status: ('A' for Active; 'I' for Inactive)
REMARK    1  A    between atoms: C3_4  and  C4_5 
REMARK       I    between atoms: N1_8  and  C5_9 
REMARK    2  A    between atoms: C5_9  and  C6_11 
REMARK    3  A    between atoms: C6_11  and  N2_12 
REMARK    4  A    between atoms: C6_11  and  C18_28 
REMARK       I    between atoms: N2_12  and  C7_14 
REMARK       I    between atoms: C7_14  and  N3_16 
REMARK    5  A    between atoms: N3_16  and  C8_18 
ROOT
HETATM    1  C6  UNL     1      25.390   2.142  58.345  1.00  0.00     0.182 C 
ENDROOT
BRANCH   1   2
HETATM    2  C5  UNL     1      24.165   2.489  57.600  1.00  0.00     0.244 C 
HETATM    3  N1  UNL     1      22.890   1.870  57.740  1.00  0.00    -0.328 N 
HETATM    4  C3  UNL     1      21.677   2.084  57.035  1.00  0.00     0.195 C 
HETATM    5  C25 UNL     1      22.641   0.897  58.780  1.00  0.00     0.205 C 
HETATM    6  C2  UNL     1      20.802   0.890  57.363  1.00  0.00     0.116 C 
HETATM    7  C1  UNL     1      21.706  -0.045  58.103  1.00  0.00     0.147 C 
HETATM    8  O1  UNL     1      21.724  -1.248  58.173  1.00  0.00    -0.296 OA
HETATM    9  O4  UNL     1      24.269   3.423  56.768  1.00  0.00    -0.271 OA
BRANCH   4  10
HETATM   10  C4  UNL     1      21.775   2.128  55.564  1.00  0.00     0.197 C 
HETATM   11  O2  UNL     1      22.700   2.689  54.965  1.00  0.00    -0.646 OA
HETATM   12  O3  UNL     1      20.774   1.506  54.837  1.00  0.00    -0.646 OA
ENDBRANCH   4  10
ENDBRANCH   1   2
BRANCH   1  13
HETATM   13  N2  UNL     1      25.953   3.372  58.921  1.00  0.00    -0.329 N 
HETATM   14  C7  UNL     1      26.357   3.344  60.284  1.00  0.00     0.317 C 
HETATM   15  O5  UNL     1      26.220   2.291  60.919  1.00  0.00    -0.247 OA
HETATM   16  N3  UNL     1      26.898   4.511  60.863  1.00  0.00    -0.334 N 
ATOM     17  H3  UNL     1      26.982   5.339  60.272  1.00  0.00     0.165 HD
ATOM     18  H2  UNL     1      26.049   4.219  58.361  1.00  0.00     0.165 HD
BRANCH  16  19
HETATM   19  C8  UNL     1      27.339   4.617  62.228  1.00  0.00     0.035 C 
HETATM   20  C9  UNL     1      28.299   3.518  62.540  1.00  0.00     0.035 C 
HETATM   21  C10 UNL     1      28.738   3.612  63.993  1.00  0.00    -0.012 C 
HETATM   22  C11 UNL     1      29.392   4.950  64.245  1.00  0.00     0.009 C 
HETATM   23  C15 UNL     1      27.545   3.463  64.879  1.00  0.00     0.009 C 
HETATM   24  C12 UNL     1      28.391   6.043  63.920  1.00  0.00    -0.012 C 
HETATM   25  C13 UNL     1      27.217   5.912  64.847  1.00  0.00     0.009 C 
HETATM   26  C17 UNL     1      27.953   5.978  62.489  1.00  0.00     0.035 C 
HETATM   27  C14 UNL     1      26.552   4.568  64.581  1.00  0.00    -0.012 C 
HETATM   28  C16 UNL     1      26.123   4.538  63.143  1.00  0.00     0.035 C 
ENDBRANCH  16  19
ENDBRANCH   1  13
BRANCH   1  29
HETATM   29  C18 UNL     1      26.467   1.512  57.468  1.00  0.00     0.018 C 
HETATM   30  C19 UNL     1      27.367   2.524  56.819  1.00  0.00     0.007 C 
HETATM   31  C20 UNL     1      28.136   1.937  55.656  1.00  0.00     0.000 C 
HETATM   32  C21 UNL     1      29.545   1.674  56.127  1.00  0.00     0.000 C 
HETATM   33  C22 UNL     1      29.481   0.426  56.994  1.00  0.00     0.000 C 
HETATM   34  C23 UNL     1      28.728   0.719  58.266  1.00  0.00     0.000 C 
HETATM   35  C24 UNL     1      27.240   0.438  58.159  1.00  0.00     0.007 C 
ENDBRANCH   1  29
TORSDOF 5
ENDMDL
