MODEL 1
REMARK VINA RESULT: -7.932261279      0.000      0.000
REMARK  6 active torsions:
REMARK  status: ('A' for Active; 'I' for Inactive)
REMARK    1  A    between atoms: C2_2  and  O1_3 
REMARK    2  A    between atoms: C2_2  and  C3_5 
REMARK    3  A    between atoms: C3_5  and  C4_6 
REMARK    4  A    between atoms: C4_6  and  C5_7 
REMARK    5  A    between atoms: C5_7  and  C6_9 
REMARK    6  A    between atoms: C8_11  and  O3_12 
ROOT
HETATM    1  C6  UNL     1      24.784   1.911  57.086  1.00  0.00     0.066 C 
HETATM    2  C7  UNL     1      24.534   1.822  58.580  1.00  0.00     0.045 C 
HETATM    3  C8  UNL     1      25.968   1.651  59.097  1.00  0.00     0.124 C 
HETATM    4  C9  UNL     1      26.807   2.480  58.194  1.00  0.00     0.028 C 
HETATM    5  C10 UNL     1      28.145   1.888  57.862  1.00  0.00     0.002 C 
HETATM    6  C11 UNL     1      28.149   0.439  57.553  1.00  0.00     0.006 C 
HETATM    7  C12 UNL     1      28.914   0.043  56.321  1.00  0.00     0.006 C 
HETATM    8  C13 UNL     1      30.239   0.717  56.306  1.00  0.00     0.004 C 
HETATM    9  C14 UNL     1      30.877   0.480  54.959  1.00  0.00     0.026 C 
HETATM   10  C15 UNL     1      31.078  -0.950  54.607  1.00  0.00     0.128 C 
HETATM   11  N1  UNL     1      32.270  -0.929  53.772  1.00  0.00    -0.360 N 
ATOM     12  H1  UNL     1      32.614  -1.714  53.220  1.00  0.00     0.162 HD
HETATM   13  C16 UNL     1      32.892   0.371  53.845  1.00  0.00     0.226 C 
HETATM   14  O4  UNL     1      33.737   0.850  53.041  1.00  0.00    -0.273 OA
HETATM   15  C17 UNL     1      32.309   0.988  55.064  1.00  0.00     0.049 C 
HETATM   16  C18 UNL     1      33.031   0.405  56.250  1.00  0.00     0.026 C 
HETATM   17  C19 UNL     1      32.264   2.468  55.053  1.00  0.00     0.098 C 
HETATM   18  C20 UNL     1      30.927   2.950  55.513  1.00  0.00     0.133 C 
HETATM   19  O5  UNL     1      30.512   3.963  54.979  1.00  0.00    -0.297 OA
HETATM   20  C21 UNL     1      30.224   2.181  56.556  1.00  0.00     0.068 C 
HETATM   21  C22 UNL     1      28.855   2.760  56.852  1.00  0.00    -0.029 C 
HETATM   22  C23 UNL     1      29.131   4.087  57.584  1.00  0.00     0.016 C 
HETATM   23  C24 UNL     1      28.050   3.093  55.650  1.00  0.00     0.011 C 
HETATM   24  C25 UNL     1      26.607   2.737  55.704  1.00  0.00     0.011 C 
HETATM   25  C26 UNL     1      25.953   2.848  57.026  1.00  0.00    -0.027 C 
HETATM   26  C27 UNL     1      25.379   4.264  57.187  1.00  0.00     0.016 C 
ENDROOT
BRANCH   1  27
HETATM   27  C5  UNL     1      23.612   2.351  56.318  1.00  0.00     0.132 C 
HETATM   28  O2  UNL     1      23.607   2.743  55.168  1.00  0.00    -0.298 OA
BRANCH  27  29
HETATM   29  C4  UNL     1      22.279   2.321  57.003  1.00  0.00     0.085 C 
BRANCH  29  30
HETATM   30  C3  UNL     1      21.166   2.022  56.047  1.00  0.00     0.071 C 
BRANCH  30  31
HETATM   31  C2  UNL     1      20.458   0.797  56.496  1.00  0.00     0.034 C 
HETATM   32  C1  UNL     1      20.957   0.032  57.449  1.00  0.00     0.045 C 
BRANCH  31  33
HETATM   33  O1  UNL     1      19.249   0.432  55.916  1.00  0.00    -0.366 OA
ATOM     34  H1  UNL     1      19.083   0.686  55.016  1.00  0.00     0.217 HD
ENDBRANCH  31  33
ENDBRANCH  30  31
ENDBRANCH  29  30
ENDBRANCH  27  29
ENDBRANCH   1  27
BRANCH   3  35
HETATM   35  O3  UNL     1      25.948   2.146  60.413  1.00  0.00    -0.395 OA
ATOM     36  H3  UNL     1      26.285   3.033  60.352  1.00  0.00     0.210 HD
ENDBRANCH   3  35
TORSDOF 6
ENDMDL
MODEL 2
REMARK VINA RESULT: -7.883315945      3.548      7.943
REMARK  6 active torsions:
REMARK  status: ('A' for Active; 'I' for Inactive)
REMARK    1  A    between atoms: C2_2  and  O1_3 
REMARK    2  A    between atoms: C2_2  and  C3_5 
REMARK    3  A    between atoms: C3_5  and  C4_6 
REMARK    4  A    between atoms: C4_6  and  C5_7 
REMARK    5  A    between atoms: C5_7  and  C6_9 
REMARK    6  A    between atoms: C8_11  and  O3_12 
ROOT
HETATM    1  C6  UNL     1      29.345  -1.178  52.883  1.00  0.00     0.066 C 
HETATM    2  C7  UNL     1      29.661  -0.324  51.669  1.00  0.00     0.045 C 
HETATM    3  C8  UNL     1      29.507   1.081  52.265  1.00  0.00     0.124 C 
HETATM    4  C9  UNL     1      30.006   0.968  53.658  1.00  0.00     0.028 C 
HETATM    5  C10 UNL     1      29.239   1.773  54.666  1.00  0.00     0.002 C 
HETATM    6  C11 UNL     1      27.764   1.736  54.532  1.00  0.00     0.006 C 
HETATM    7  C12 UNL     1      27.006   1.490  55.806  1.00  0.00     0.006 C 
HETATM    8  C13 UNL     1      27.540   2.353  56.892  1.00  0.00     0.004 C 
HETATM    9  C14 UNL     1      26.917   1.917  58.196  1.00  0.00     0.026 C 
HETATM   10  C15 UNL     1      25.431   1.990  58.232  1.00  0.00     0.128 C 
HETATM   11  N1  UNL     1      25.140   2.274  59.629  1.00  0.00    -0.360 N 
ATOM     12  H1  UNL     1      24.214   2.235  60.055  1.00  0.00     0.162 HD
HETATM   13  C16 UNL     1      26.359   2.617  60.321  1.00  0.00     0.226 C 
HETATM   14  O4  UNL     1      26.546   2.617  61.567  1.00  0.00    -0.273 OA
HETATM   15  C17 UNL     1      27.313   2.959  59.234  1.00  0.00     0.049 C 
HETATM   16  C18 UNL     1      26.992   4.360  58.781  1.00  0.00     0.026 C 
HETATM   17  C19 UNL     1      28.739   2.744  59.565  1.00  0.00     0.098 C 
HETATM   18  C20 UNL     1      29.433   2.041  58.445  1.00  0.00     0.133 C 
HETATM   19  O5  UNL     1      30.308   1.256  58.767  1.00  0.00    -0.297 OA
HETATM   20  C21 UNL     1      29.016   2.340  57.063  1.00  0.00     0.068 C 
HETATM   21  C22 UNL     1      29.763   1.490  56.055  1.00  0.00    -0.029 C 
HETATM   22  C23 UNL     1      31.205   2.032  56.064  1.00  0.00     0.016 C 
HETATM   23  C24 UNL     1      29.846   0.048  56.401  1.00  0.00     0.011 C 
HETATM   24  C25 UNL     1      29.637  -0.910  55.284  1.00  0.00     0.011 C 
HETATM   25  C26 UNL     1      30.135  -0.489  53.956  1.00  0.00    -0.027 C 
HETATM   26  C27 UNL     1      31.588  -0.959  53.790  1.00  0.00     0.016 C 
ENDROOT
BRANCH   1  27
HETATM   27  C5  UNL     1      29.671  -2.599  52.706  1.00  0.00     0.132 C 
HETATM   28  O2  UNL     1      29.640  -3.460  53.562  1.00  0.00    -0.298 OA
BRANCH  27  29
HETATM   29  C4  UNL     1      30.089  -3.051  51.339  1.00  0.00     0.085 C 
BRANCH  29  30
HETATM   30  C3  UNL     1      31.350  -3.858  51.379  1.00  0.00     0.071 C 
BRANCH  30  31
HETATM   31  C2  UNL     1      31.044  -5.255  50.984  1.00  0.00     0.034 C 
HETATM   32  C1  UNL     1      31.889  -5.959  50.254  1.00  0.00     0.045 C 
BRANCH  31  33
HETATM   33  O1  UNL     1      29.853  -5.852  51.379  1.00  0.00    -0.366 OA
ATOM     34  H1  UNL     1      29.091  -5.300  51.511  1.00  0.00     0.217 HD
ENDBRANCH  31  33
ENDBRANCH  30  31
ENDBRANCH  29  30
ENDBRANCH  27  29
ENDBRANCH   1  27
BRANCH   3  35
HETATM   35  O3  UNL     1      30.320   1.910  51.471  1.00  0.00    -0.395 OA
ATOM     36  H3  UNL     1      30.178   1.617  50.577  1.00  0.00     0.210 HD
ENDBRANCH   3  35
TORSDOF 6
ENDMDL
MODEL 3
REMARK VINA RESULT: -7.804218350      3.285      4.113
REMARK  6 active torsions:
REMARK  status: ('A' for Active; 'I' for Inactive)
REMARK    1  A    between atoms: C2_2  and  O1_3 
REMARK    2  A    between atoms: C2_2  and  C3_5 
REMARK    3  A    between atoms: C3_5  and  C4_6 
REMARK    4  A    between atoms: C4_6  and  C5_7 
REMARK    5  A    between atoms: C5_7  and  C6_9 
REMARK    6  A    between atoms: C8_11  and  O3_12 
ROOT
HETATM    1  C6  UNL     1      25.298   2.848  57.903  1.00  0.00     0.066 C 
HETATM    2  C7  UNL     1      25.251   4.250  57.325  1.00  0.00     0.045 C 
HETATM    3  C8  UNL     1      26.741   4.615  57.349  1.00  0.00     0.124 C 
HETATM    4  C9  UNL     1      27.456   3.350  57.044  1.00  0.00     0.028 C 
HETATM    5  C10 UNL     1      28.733   3.152  57.806  1.00  0.00     0.002 C 
HETATM    6  C11 UNL     1      28.686   3.505  59.244  1.00  0.00     0.006 C 
HETATM    7  C12 UNL     1      29.276   2.487  60.179  1.00  0.00     0.006 C 
HETATM    8  C13 UNL     1      30.592   2.024  59.664  1.00  0.00     0.004 C 
HETATM    9  C14 UNL     1      31.041   0.848  60.497  1.00  0.00     0.026 C 
HETATM   10  C15 UNL     1      31.184   1.132  61.950  1.00  0.00     0.128 C 
HETATM   11  N1  UNL     1      32.253   0.236  62.366  1.00  0.00    -0.360 N 
ATOM     12  H1  UNL     1      32.514   0.043  63.333  1.00  0.00     0.162 HD
HETATM   13  C16 UNL     1      32.887  -0.338  61.204  1.00  0.00     0.226 C 
HETATM   14  O4  UNL     1      33.619  -1.363  61.172  1.00  0.00    -0.273 OA
HETATM   15  C17 UNL     1      32.477   0.552  60.087  1.00  0.00     0.049 C 
HETATM   16  C18 UNL     1      33.349   1.779  60.148  1.00  0.00     0.026 C 
HETATM   17  C19 UNL     1      32.440  -0.096  58.756  1.00  0.00     0.098 C 
HETATM   18  C20 UNL     1      31.181   0.264  58.037  1.00  0.00     0.133 C 
HETATM   19  O5  UNL     1      30.704  -0.604  57.328  1.00  0.00    -0.297 OA
HETATM   20  C21 UNL     1      30.620   1.612  58.237  1.00  0.00     0.068 C 
HETATM   21  C22 UNL     1      29.306   1.788  57.501  1.00  0.00    -0.029 C 
HETATM   22  C23 UNL     1      29.687   1.832  56.008  1.00  0.00     0.016 C 
HETATM   23  C24 UNL     1      28.349   0.665  57.665  1.00  0.00     0.011 C 
HETATM   24  C25 UNL     1      26.925   1.038  57.870  1.00  0.00     0.011 C 
HETATM   25  C26 UNL     1      26.455   2.248  57.161  1.00  0.00    -0.027 C 
HETATM   26  C27 UNL     1      25.917   1.844  55.779  1.00  0.00     0.016 C 
ENDROOT
BRANCH   1  27
HETATM   27  C5  UNL     1      24.037   2.109  57.763  1.00  0.00     0.132 C 
HETATM   28  O2  UNL     1      23.835   0.956  58.085  1.00  0.00    -0.298 OA
BRANCH  27  29
HETATM   29  C4  UNL     1      22.870   2.834  57.162  1.00  0.00     0.085 C 
BRANCH  29  30
HETATM   30  C3  UNL     1      22.414   2.196  55.885  1.00  0.00     0.071 C 
BRANCH  30  31
HETATM   31  C2  UNL     1      20.999   1.773  56.034  1.00  0.00     0.034 C 
HETATM   32  C1  UNL     1      20.623   0.984  57.023  1.00  0.00     0.045 C 
BRANCH  31  33
HETATM   33  O1  UNL     1      20.039   2.204  55.127  1.00  0.00    -0.366 OA
ATOM     34  H1  UNL     1      19.924   1.716  54.320  1.00  0.00     0.217 HD
ENDBRANCH  31  33
ENDBRANCH  30  31
ENDBRANCH  29  30
ENDBRANCH  27  29
ENDBRANCH   1  27
BRANCH   3  35
HETATM   35  O3  UNL     1      26.902   5.578  56.336  1.00  0.00    -0.395 OA
ATOM     36  H3  UNL     1      26.033   5.936  56.192  1.00  0.00     0.210 HD
ENDBRANCH   3  35
TORSDOF 6
ENDMDL
MODEL 4
REMARK VINA RESULT: -7.649994799      1.037      1.073
REMARK  6 active torsions:
REMARK  status: ('A' for Active; 'I' for Inactive)
REMARK    1  A    between atoms: C2_2  and  O1_3 
REMARK    2  A    between atoms: C2_2  and  C3_5 
REMARK    3  A    between atoms: C3_5  and  C4_6 
REMARK    4  A    between atoms: C4_6  and  C5_7 
REMARK    5  A    between atoms: C5_7  and  C6_9 
REMARK    6  A    between atoms: C8_11  and  O3_12 
ROOT
HETATM    1  C6  UNL     1      25.295   1.813  57.547  1.00  0.00     0.066 C 
HETATM    2  C7  UNL     1      24.905   1.902  59.011  1.00  0.00     0.045 C 
HETATM    3  C8  UNL     1      26.288   1.863  59.674  1.00  0.00     0.124 C 
HETATM    4  C9  UNL     1      27.181   2.610  58.753  1.00  0.00     0.028 C 
HETATM    5  C10 UNL     1      28.564   2.043  58.624  1.00  0.00     0.002 C 
HETATM    6  C11 UNL     1      28.647   0.568  58.507  1.00  0.00     0.006 C 
HETATM    7  C12 UNL     1      29.540   0.055  57.412  1.00  0.00     0.006 C 
HETATM    8  C13 UNL     1      30.838   0.782  57.431  1.00  0.00     0.004 C 
HETATM    9  C14 UNL     1      31.610   0.408  56.190  1.00  0.00     0.026 C 
HETATM   10  C15 UNL     1      31.893  -1.045  56.047  1.00  0.00     0.128 C 
HETATM   11  N1  UNL     1      33.159  -1.075  55.329  1.00  0.00    -0.360 N 
ATOM     12  H1  UNL     1      33.581  -1.907  54.917  1.00  0.00     0.162 HD
HETATM   13  C16 UNL     1      33.727   0.251  55.289  1.00  0.00     0.226 C 
HETATM   14  O4  UNL     1      34.628   0.664  54.511  1.00  0.00    -0.273 OA
HETATM   15  C17 UNL     1      33.008   0.990  56.360  1.00  0.00     0.049 C 
HETATM   16  C18 UNL     1      33.631   0.594  57.673  1.00  0.00     0.026 C 
HETATM   17  C19 UNL     1      32.914   2.452  56.152  1.00  0.00     0.098 C 
HETATM   18  C20 UNL     1      31.523   2.927  56.422  1.00  0.00     0.133 C 
HETATM   19  O5  UNL     1      31.127   3.845  55.725  1.00  0.00    -0.297 OA
HETATM   20  C21 UNL     1      30.749   2.264  57.487  1.00  0.00     0.068 C 
HETATM   21  C22 UNL     1      29.339   2.812  57.579  1.00  0.00    -0.029 C 
HETATM   22  C23 UNL     1      29.498   4.232  58.155  1.00  0.00     0.016 C 
HETATM   23  C24 UNL     1      28.643   2.954  56.275  1.00  0.00     0.011 C 
HETATM   24  C25 UNL     1      27.215   2.542  56.243  1.00  0.00     0.011 C 
HETATM   25  C26 UNL     1      26.432   2.787  57.473  1.00  0.00    -0.027 C 
HETATM   26  C27 UNL     1      25.798   4.185  57.396  1.00  0.00     0.016 C 
ENDROOT
BRANCH   1  27
HETATM   27  C5  UNL     1      24.189   2.098  56.624  1.00  0.00     0.132 C 
HETATM   28  O2  UNL     1      24.279   2.311  55.432  1.00  0.00    -0.298 OA
BRANCH  27  29
HETATM   29  C4  UNL     1      22.802   2.136  57.191  1.00  0.00     0.085 C 
BRANCH  29  30
HETATM   30  C3  UNL     1      21.771   2.367  56.129  1.00  0.00     0.071 C 
BRANCH  30  31
HETATM   31  C2  UNL     1      20.706   1.341  56.258  1.00  0.00     0.034 C 
HETATM   32  C1  UNL     1      20.726   0.456  57.236  1.00  0.00     0.045 C 
BRANCH  31  33
HETATM   33  O1  UNL     1      19.660   1.296  55.343  1.00  0.00    -0.366 OA
ATOM     34  H1  UNL     1      18.872   1.793  55.529  1.00  0.00     0.217 HD
ENDBRANCH  31  33
ENDBRANCH  30  31
ENDBRANCH  29  30
ENDBRANCH  27  29
ENDBRANCH   1  27
BRANCH   3  35
HETATM   35  O3  UNL     1      26.124   2.518  60.908  1.00  0.00    -0.395 OA
ATOM     36  H3  UNL     1      26.800   2.161  61.473  1.00  0.00     0.210 HD
ENDBRANCH   3  35
TORSDOF 6
ENDMDL
MODEL 5
REMARK VINA RESULT: -7.644391958      1.923      2.336
REMARK  6 active torsions:
REMARK  status: ('A' for Active; 'I' for Inactive)
REMARK    1  A    between atoms: C2_2  and  O1_3 
REMARK    2  A    between atoms: C2_2  and  C3_5 
REMARK    3  A    between atoms: C3_5  and  C4_6 
REMARK    4  A    between atoms: C4_6  and  C5_7 
REMARK    5  A    between atoms: C5_7  and  C6_9 
REMARK    6  A    between atoms: C8_11  and  O3_12 
ROOT
HETATM    1  C6  UNL     1      25.547   1.783  58.344  1.00  0.00     0.066 C 
HETATM    2  C7  UNL     1      26.231   2.242  59.619  1.00  0.00     0.045 C 
HETATM    3  C8  UNL     1      27.700   2.215  59.177  1.00  0.00     0.124 C 
HETATM    4  C9  UNL     1      27.684   2.637  57.753  1.00  0.00     0.028 C 
HETATM    5  C10 UNL     1      28.666   1.917  56.875  1.00  0.00     0.002 C 
HETATM    6  C11 UNL     1      28.766   0.454  57.086  1.00  0.00     0.006 C 
HETATM    7  C12 UNL     1      28.735  -0.383  55.838  1.00  0.00     0.006 C 
HETATM    8  C13 UNL     1      29.649   0.193  54.816  1.00  0.00     0.004 C 
HETATM    9  C14 UNL     1      29.419  -0.531  53.512  1.00  0.00     0.026 C 
HETATM   10  C15 UNL     1      29.648  -2.000  53.566  1.00  0.00     0.128 C 
HETATM   11  N1  UNL     1      30.106  -2.321  52.222  1.00  0.00    -0.360 N 
ATOM     12  H1  UNL     1      30.207  -3.263  51.846  1.00  0.00     0.162 HD
HETATM   13  C16 UNL     1      30.393  -1.104  51.502  1.00  0.00     0.226 C 
HETATM   14  O4  UNL     1      30.506  -0.974  50.254  1.00  0.00    -0.273 OA
HETATM   15  C17 UNL     1      30.519  -0.072  52.564  1.00  0.00     0.049 C 
HETATM   16  C18 UNL     1      31.889  -0.220  53.171  1.00  0.00     0.026 C 
HETATM   17  C19 UNL     1      30.195   1.307  52.133  1.00  0.00     0.098 C 
HETATM   18  C20 UNL     1      29.310   1.971  53.138  1.00  0.00     0.133 C 
HETATM   19  O5  UNL     1      28.478   2.741  52.691  1.00  0.00    -0.297 OA
HETATM   20  C21 UNL     1      29.502   1.650  54.564  1.00  0.00     0.068 C 
HETATM   21  C22 UNL     1      28.478   2.345  55.438  1.00  0.00    -0.029 C 
HETATM   22  C23 UNL     1      28.868   3.835  55.404  1.00  0.00     0.016 C 
HETATM   23  C24 UNL     1      27.081   2.257  54.945  1.00  0.00     0.011 C 
HETATM   24  C25 UNL     1      26.036   1.996  55.970  1.00  0.00     0.011 C 
HETATM   25  C26 UNL     1      26.261   2.594  57.304  1.00  0.00    -0.027 C 
HETATM   26  C27 UNL     1      25.630   3.994  57.341  1.00  0.00     0.016 C 
ENDROOT
BRANCH   1  27
HETATM   27  C5  UNL     1      24.090   1.962  58.360  1.00  0.00     0.132 C 
HETATM   28  O2  UNL     1      23.432   2.456  59.254  1.00  0.00    -0.298 OA
BRANCH  27  29
HETATM   29  C4  UNL     1      23.318   1.492  57.164  1.00  0.00     0.085 C 
BRANCH  29  30
HETATM   30  C3  UNL     1      22.301   2.500  56.725  1.00  0.00     0.071 C 
BRANCH  30  31
HETATM   31  C2  UNL     1      21.044   1.796  56.369  1.00  0.00     0.034 C 
HETATM   32  C1  UNL     1      20.640   0.738  57.047  1.00  0.00     0.045 C 
BRANCH  31  33
HETATM   33  O1  UNL     1      20.265   2.242  55.308  1.00  0.00    -0.366 OA
ATOM     34  H1  UNL     1      19.611   2.910  55.475  1.00  0.00     0.217 HD
ENDBRANCH  31  33
ENDBRANCH  30  31
ENDBRANCH  29  30
ENDBRANCH  27  29
ENDBRANCH   1  27
BRANCH   3  35
HETATM   35  O3  UNL     1      28.352   3.147  60.004  1.00  0.00    -0.395 OA
ATOM     36  H3  UNL     1      29.048   2.659  60.430  1.00  0.00     0.210 HD
ENDBRANCH   3  35
TORSDOF 6
ENDMDL
