MODEL 1
REMARK VINA RESULT: -7.407419185      0.000      0.000
REMARK  7 active torsions:
REMARK  status: ('A' for Active; 'I' for Inactive)
REMARK    1  A    between atoms: C2_2  and  C4_4 
REMARK    2  A    between atoms: C4_4  and  N1_5 
REMARK       I    between atoms: N1_5  and  C5_7 
REMARK    3  A    between atoms: C5_7  and  C6_9 
REMARK    4  A    between atoms: C6_9  and  N2_10 
REMARK    5  A    between atoms: N2_10  and  C7_12 
REMARK    6  A    between atoms: C7_12  and  C9_17 
REMARK    7  A    between atoms: C18_26  and  O2_27 
ROOT
HETATM    1  C7  UNL     1      23.761   3.215  57.381  1.00  0.00     0.091 C 
HETATM    2  N3  UNL     1      22.576   2.704  57.142  1.00  0.00    -0.283 N 
ATOM      3  H3  UNL     1      21.874   3.269  56.662  1.00  0.00     0.179 HD
HETATM    4  C8  UNL     1      22.258   1.404  57.532  1.00  0.00     0.183 C 
HETATM    5  N4  UNL     1      21.982   0.309  57.841  1.00  0.00    -0.172 NA
ENDROOT
BRANCH   1   6
HETATM    6  N2  UNL     1      24.011   4.520  56.963  1.00  0.00    -0.370 N 
ATOM      7  H2  UNL     1      24.400   5.173  57.644  1.00  0.00     0.161 HD
BRANCH   6   8
HETATM    8  C6  UNL     1      23.759   5.000  55.654  1.00  0.00     0.223 C 
BRANCH   8   9
HETATM    9  C5  UNL     1      24.914   5.422  54.846  1.00  0.00     0.235 C 
HETATM   10  N1  UNL     1      25.491   4.476  53.940  1.00  0.00    -0.359 N 
ATOM     11  H1  UNL     1      25.085   3.542  53.882  1.00  0.00     0.162 HD
HETATM   12  O1  UNL     1      25.376   6.580  54.951  1.00  0.00    -0.272 OA
BRANCH  10  13
HETATM   13  C4  UNL     1      26.619   4.789  53.110  1.00  0.00     0.126 C 
BRANCH  13  14
HETATM   14  C2  UNL     1      27.864   4.177  53.721  1.00  0.00    -0.005 C 
HETATM   15  C1  UNL     1      28.726   3.502  52.674  1.00  0.00     0.011 C 
HETATM   16  C3  UNL     1      28.696   5.238  54.409  1.00  0.00     0.011 C 
ENDBRANCH  13  14
ENDBRANCH  10  13
ENDBRANCH   8   9
ENDBRANCH   6   8
ENDBRANCH   1   6
BRANCH   1  17
HETATM   17  C9  UNL     1      24.740   2.362  58.051  1.00  0.00     0.062 C 
HETATM   18  C10 UNL     1      25.137   2.789  59.444  1.00  0.00     0.013 C 
HETATM   19  C11 UNL     1      26.516   2.127  59.674  1.00  0.00     0.010 C 
HETATM   20  C12 UNL     1      26.745   1.343  58.427  1.00  0.00     0.023 C 
HETATM   21  C13 UNL     1      28.131   1.140  58.019  1.00  0.00    -0.074 C 
HETATM   22  C26 UNL     1      26.096   2.278  57.391  1.00  0.00    -0.026 C 
HETATM   23  C14 UNL     1      29.108   1.339  58.888  1.00  0.00    -0.023 C 
HETATM   24  C23 UNL     1      28.359   0.703  56.618  1.00  0.00     0.023 C 
HETATM   25  C15 UNL     1      30.546   1.149  58.535  1.00  0.00     0.033 C 
HETATM   26  C16 UNL     1      30.564   0.106  57.425  1.00  0.00     0.000 C 
HETATM   27  C17 UNL     1      31.893  -0.464  57.135  1.00  0.00     0.037 C 
HETATM   28  C21 UNL     1      29.793   0.617  56.228  1.00  0.00    -0.033 C 
HETATM   29  C18 UNL     1      32.379  -0.373  55.731  1.00  0.00     0.118 C 
HETATM   30  C19 UNL     1      31.346  -0.599  54.675  1.00  0.00     0.032 C 
HETATM   31  C20 UNL     1      29.933  -0.388  55.111  1.00  0.00     0.012 C 
HETATM   32  C22 UNL     1      30.287   1.981  55.791  1.00  0.00     0.016 C 
HETATM   33  C24 UNL     1      27.506   1.432  55.609  1.00  0.00     0.010 C 
HETATM   34  C25 UNL     1      26.099   1.540  56.097  1.00  0.00     0.011 C 
HETATM   35  C27 UNL     1      26.863   3.555  57.393  1.00  0.00     0.016 C 
BRANCH  29  36
HETATM   36  O2  UNL     1      33.357  -1.382  55.557  1.00  0.00    -0.396 OA
ATOM     37  H2  UNL     1      33.242  -1.740  54.685  1.00  0.00     0.210 HD
ENDBRANCH  29  36
ENDBRANCH   1  17
TORSDOF 7
ENDMDL
MODEL 2
REMARK VINA RESULT: -7.180666363      1.820      2.839
REMARK  7 active torsions:
REMARK  status: ('A' for Active; 'I' for Inactive)
REMARK    1  A    between atoms: C2_2  and  C4_4 
REMARK    2  A    between atoms: C4_4  and  N1_5 
REMARK       I    between atoms: N1_5  and  C5_7 
REMARK    3  A    between atoms: C5_7  and  C6_9 
REMARK    4  A    between atoms: C6_9  and  N2_10 
REMARK    5  A    between atoms: N2_10  and  C7_12 
REMARK    6  A    between atoms: C7_12  and  C9_17 
REMARK    7  A    between atoms: C18_26  and  O2_27 
ROOT
HETATM    1  C7  UNL     1      23.783   3.246  57.207  1.00  0.00     0.091 C 
HETATM    2  N3  UNL     1      22.570   2.798  56.977  1.00  0.00    -0.283 N 
ATOM      3  H3  UNL     1      21.899   3.395  56.492  1.00  0.00     0.179 HD
HETATM    4  C8  UNL     1      22.182   1.523  57.383  1.00  0.00     0.183 C 
HETATM    5  N4  UNL     1      21.848   0.448  57.706  1.00  0.00    -0.172 NA
ENDROOT
BRANCH   1   6
HETATM    6  N2  UNL     1      24.102   4.530  56.773  1.00  0.00    -0.370 N 
ATOM      7  H2  UNL     1      24.398   5.210  57.474  1.00  0.00     0.161 HD
BRANCH   6   8
HETATM    8  C6  UNL     1      24.044   4.953  55.422  1.00  0.00     0.223 C 
BRANCH   8   9
HETATM    9  C5  UNL     1      24.371   6.357  55.130  1.00  0.00     0.235 C 
HETATM   10  N1  UNL     1      23.313   7.230  54.720  1.00  0.00    -0.359 N 
ATOM     11  H1  UNL     1      22.368   6.854  54.644  1.00  0.00     0.162 HD
HETATM   12  O1  UNL     1      25.545   6.774  55.239  1.00  0.00    -0.272 OA
BRANCH  10  13
HETATM   13  C4  UNL     1      23.529   8.615  54.411  1.00  0.00     0.126 C 
BRANCH  13  14
HETATM   14  C2  UNL     1      22.217   9.360  54.548  1.00  0.00    -0.005 C 
HETATM   15  C1  UNL     1      21.748   9.407  55.988  1.00  0.00     0.011 C 
HETATM   16  C3  UNL     1      22.358  10.782  54.049  1.00  0.00     0.011 C 
ENDBRANCH  13  14
ENDBRANCH  10  13
ENDBRANCH   8   9
ENDBRANCH   6   8
ENDBRANCH   1   6
BRANCH   1  17
HETATM   17  C9  UNL     1      24.715   2.349  57.885  1.00  0.00     0.062 C 
HETATM   18  C10 UNL     1      25.038   2.698  59.318  1.00  0.00     0.013 C 
HETATM   19  C11 UNL     1      26.395   2.009  59.589  1.00  0.00     0.010 C 
HETATM   20  C12 UNL     1      26.687   1.288  58.318  1.00  0.00     0.023 C 
HETATM   21  C13 UNL     1      28.092   1.090  57.977  1.00  0.00    -0.074 C 
HETATM   22  C26 UNL     1      26.104   2.282  57.298  1.00  0.00    -0.026 C 
HETATM   23  C14 UNL     1      29.020   1.233  58.909  1.00  0.00    -0.023 C 
HETATM   24  C23 UNL     1      28.394   0.723  56.570  1.00  0.00     0.023 C 
HETATM   25  C15 UNL     1      30.474   1.045  58.626  1.00  0.00     0.033 C 
HETATM   26  C16 UNL     1      30.544   0.059  57.467  1.00  0.00     0.000 C 
HETATM   27  C17 UNL     1      31.883  -0.511  57.222  1.00  0.00     0.037 C 
HETATM   28  C21 UNL     1      29.847   0.641  56.256  1.00  0.00    -0.033 C 
HETATM   29  C18 UNL     1      32.447  -0.353  55.853  1.00  0.00     0.118 C 
HETATM   30  C19 UNL     1      31.473  -0.512  54.731  1.00  0.00     0.032 C 
HETATM   31  C20 UNL     1      30.040  -0.308  55.098  1.00  0.00     0.012 C 
HETATM   32  C22 UNL     1      30.376   2.019  55.919  1.00  0.00     0.016 C 
HETATM   33  C24 UNL     1      27.605   1.513  55.555  1.00  0.00     0.010 C 
HETATM   34  C25 UNL     1      26.173   1.612  55.969  1.00  0.00     0.011 C 
HETATM   35  C27 UNL     1      26.881   3.548  57.408  1.00  0.00     0.016 C 
BRANCH  29  36
HETATM   36  O2  UNL     1      33.425  -1.363  55.681  1.00  0.00    -0.396 OA
ATOM     37  H2  UNL     1      33.929  -1.140  54.908  1.00  0.00     0.210 HD
ENDBRANCH  29  36
ENDBRANCH   1  17
TORSDOF 7
ENDMDL
MODEL 3
REMARK VINA RESULT: -6.959948059      2.051      4.278
REMARK  7 active torsions:
REMARK  status: ('A' for Active; 'I' for Inactive)
REMARK    1  A    between atoms: C2_2  and  C4_4 
REMARK    2  A    between atoms: C4_4  and  N1_5 
REMARK       I    between atoms: N1_5  and  C5_7 
REMARK    3  A    between atoms: C5_7  and  C6_9 
REMARK    4  A    between atoms: C6_9  and  N2_10 
REMARK    5  A    between atoms: N2_10  and  C7_12 
REMARK    6  A    between atoms: C7_12  and  C9_17 
REMARK    7  A    between atoms: C18_26  and  O2_27 
ROOT
HETATM    1  C7  UNL     1      26.385   4.203  57.466  1.00  0.00     0.091 C 
HETATM    2  N3  UNL     1      25.640   3.796  58.467  1.00  0.00    -0.283 N 
ATOM      3  H3  UNL     1      24.687   4.148  58.559  1.00  0.00     0.179 HD
HETATM    4  C8  UNL     1      26.128   2.891  59.408  1.00  0.00     0.183 C 
HETATM    5  N4  UNL     1      26.520   2.120  60.197  1.00  0.00    -0.172 NA
ENDROOT
BRANCH   1   6
HETATM    6  N2  UNL     1      25.833   5.109  56.563  1.00  0.00    -0.370 N 
ATOM      7  H2  UNL     1      26.470   5.719  56.050  1.00  0.00     0.161 HD
BRANCH   6   8
HETATM    8  C6  UNL     1      24.445   5.237  56.310  1.00  0.00     0.223 C 
BRANCH   8   9
HETATM    9  C5  UNL     1      23.753   4.094  55.693  1.00  0.00     0.235 C 
HETATM   10  N1  UNL     1      22.835   3.343  56.494  1.00  0.00    -0.359 N 
ATOM     11  H1  UNL     1      22.688   3.622  57.464  1.00  0.00     0.162 HD
HETATM   12  O1  UNL     1      23.964   3.791  54.498  1.00  0.00    -0.272 OA
BRANCH  10  13
HETATM   13  C4  UNL     1      22.112   2.212  55.985  1.00  0.00     0.126 C 
BRANCH  13  14
HETATM   14  C2  UNL     1      22.075   1.134  57.050  1.00  0.00    -0.005 C 
HETATM   15  C1  UNL     1      22.737   1.592  58.333  1.00  0.00     0.011 C 
HETATM   16  C3  UNL     1      20.646   0.747  57.365  1.00  0.00     0.011 C 
ENDBRANCH  13  14
ENDBRANCH  10  13
ENDBRANCH   8   9
ENDBRANCH   6   8
ENDBRANCH   1   6
BRANCH   1  17
HETATM   17  C9  UNL     1      27.735   3.656  57.364  1.00  0.00     0.062 C 
HETATM   18  C10 UNL     1      28.843   4.669  57.201  1.00  0.00     0.013 C 
HETATM   19  C11 UNL     1      30.004   3.874  56.558  1.00  0.00     0.010 C 
HETATM   20  C12 UNL     1      29.475   2.483  56.470  1.00  0.00     0.023 C 
HETATM   21  C13 UNL     1      29.985   1.649  55.387  1.00  0.00    -0.074 C 
HETATM   22  C26 UNL     1      27.994   2.770  56.168  1.00  0.00    -0.026 C 
HETATM   23  C14 UNL     1      31.093   1.999  54.754  1.00  0.00    -0.023 C 
HETATM   24  C23 UNL     1      29.210   0.424  55.065  1.00  0.00     0.023 C 
HETATM   25  C15 UNL     1      31.667   1.189  53.639  1.00  0.00     0.033 C 
HETATM   26  C16 UNL     1      31.227  -0.245  53.901  1.00  0.00     0.000 C 
HETATM   27  C17 UNL     1      31.933  -1.263  53.100  1.00  0.00     0.037 C 
HETATM   28  C21 UNL     1      29.716  -0.329  53.884  1.00  0.00    -0.033 C 
HETATM   29  C18 UNL     1      31.096  -2.182  52.280  1.00  0.00     0.118 C 
HETATM   30  C19 UNL     1      29.827  -2.644  52.920  1.00  0.00     0.032 C 
HETATM   31  C20 UNL     1      29.321  -1.778  54.027  1.00  0.00     0.012 C 
HETATM   32  C22 UNL     1      29.141   0.265  52.615  1.00  0.00     0.016 C 
HETATM   33  C24 UNL     1      27.717   0.639  55.044  1.00  0.00     0.010 C 
HETATM   34  C25 UNL     1      27.292   1.457  56.219  1.00  0.00     0.011 C 
HETATM   35  C27 UNL     1      27.929   3.471  54.856  1.00  0.00     0.016 C 
BRANCH  29  36
HETATM   36  O2  UNL     1      31.866  -3.344  52.031  1.00  0.00    -0.396 OA
ATOM     37  H2  UNL     1      31.304  -3.965  51.583  1.00  0.00     0.210 HD
ENDBRANCH  29  36
ENDBRANCH   1  17
TORSDOF 7
ENDMDL
MODEL 4
REMARK VINA RESULT: -6.903083024      1.471      1.972
REMARK  7 active torsions:
REMARK  status: ('A' for Active; 'I' for Inactive)
REMARK    1  A    between atoms: C2_2  and  C4_4 
REMARK    2  A    between atoms: C4_4  and  N1_5 
REMARK       I    between atoms: N1_5  and  C5_7 
REMARK    3  A    between atoms: C5_7  and  C6_9 
REMARK    4  A    between atoms: C6_9  and  N2_10 
REMARK    5  A    between atoms: N2_10  and  C7_12 
REMARK    6  A    between atoms: C7_12  and  C9_17 
REMARK    7  A    between atoms: C18_26  and  O2_27 
ROOT
HETATM    1  C7  UNL     1      24.995   3.227  57.776  1.00  0.00     0.091 C 
HETATM    2  N3  UNL     1      23.730   3.022  58.059  1.00  0.00    -0.283 N 
ATOM      3  H3  UNL     1      23.062   3.786  57.950  1.00  0.00     0.179 HD
HETATM    4  C8  UNL     1      23.283   1.780  58.505  1.00  0.00     0.183 C 
HETATM    5  N4  UNL     1      22.891   0.738  58.867  1.00  0.00    -0.172 NA
ENDROOT
BRANCH   1   6
HETATM    6  N2  UNL     1      25.373   4.493  57.334  1.00  0.00    -0.370 N 
ATOM      7  H2  UNL     1      26.156   4.948  57.804  1.00  0.00     0.161 HD
BRANCH   6   8
HETATM    8  C6  UNL     1      24.739   5.191  56.276  1.00  0.00     0.223 C 
BRANCH   8   9
HETATM    9  C5  UNL     1      24.909   4.665  54.912  1.00  0.00     0.235 C 
HETATM   10  N1  UNL     1      26.123   4.964  54.216  1.00  0.00    -0.359 N 
ATOM     11  H1  UNL     1      26.831   5.529  54.685  1.00  0.00     0.162 HD
HETATM   12  O1  UNL     1      24.012   3.975  54.379  1.00  0.00    -0.272 OA
BRANCH  10  13
HETATM   13  C4  UNL     1      26.384   4.500  52.883  1.00  0.00     0.126 C 
BRANCH  13  14
HETATM   14  C2  UNL     1      27.843   4.742  52.555  1.00  0.00    -0.005 C 
HETATM   15  C1  UNL     1      28.685   4.865  53.808  1.00  0.00     0.011 C 
HETATM   16  C3  UNL     1      28.397   3.605  51.722  1.00  0.00     0.011 C 
ENDBRANCH  13  14
ENDBRANCH  10  13
ENDBRANCH   8   9
ENDBRANCH   6   8
ENDBRANCH   1   6
BRANCH   1  17
HETATM   17  C9  UNL     1      25.911   2.100  57.926  1.00  0.00     0.062 C 
HETATM   18  C10 UNL     1      26.772   2.114  59.167  1.00  0.00     0.013 C 
HETATM   19  C11 UNL     1      27.977   1.213  58.813  1.00  0.00     0.010 C 
HETATM   20  C12 UNL     1      27.665   0.726  57.439  1.00  0.00     0.023 C 
HETATM   21  C13 UNL     1      28.798   0.417  56.573  1.00  0.00    -0.074 C 
HETATM   22  C26 UNL     1      26.970   1.970  56.857  1.00  0.00    -0.026 C 
HETATM   23  C14 UNL     1      30.000   0.249  57.099  1.00  0.00    -0.023 C 
HETATM   24  C23 UNL     1      28.516   0.299  55.120  1.00  0.00     0.023 C 
HETATM   25  C15 UNL     1      31.199  -0.068  56.269  1.00  0.00     0.033 C 
HETATM   26  C16 UNL     1      30.671  -0.805  55.045  1.00  0.00     0.000 C 
HETATM   27  C17 UNL     1      31.705  -1.486  54.241  1.00  0.00     0.037 C 
HETATM   28  C21 UNL     1      29.725   0.091  54.276  1.00  0.00    -0.033 C 
HETATM   29  C18 UNL     1      31.779  -1.136  52.796  1.00  0.00     0.118 C 
HETATM   30  C19 UNL     1      30.465  -0.941  52.110  1.00  0.00     0.032 C 
HETATM   31  C20 UNL     1      29.317  -0.627  53.012  1.00  0.00     0.012 C 
HETATM   32  C22 UNL     1      30.362   1.427  53.956  1.00  0.00     0.016 C 
HETATM   33  C24 UNL     1      27.595   1.370  54.592  1.00  0.00     0.010 C 
HETATM   34  C25 UNL     1      26.443   1.572  55.522  1.00  0.00     0.011 C 
HETATM   35  C27 UNL     1      27.968   3.076  56.840  1.00  0.00     0.016 C 
BRANCH  29  36
HETATM   36  O2  UNL     1      32.421  -2.211  52.135  1.00  0.00    -0.396 OA
ATOM     37  H2  UNL     1      33.110  -1.840  51.596  1.00  0.00     0.210 HD
ENDBRANCH  29  36
ENDBRANCH   1  17
TORSDOF 7
ENDMDL
MODEL 5
REMARK VINA RESULT: -6.895406963      1.205      1.541
REMARK  7 active torsions:
REMARK  status: ('A' for Active; 'I' for Inactive)
REMARK    1  A    between atoms: C2_2  and  C4_4 
REMARK    2  A    between atoms: C4_4  and  N1_5 
REMARK       I    between atoms: N1_5  and  C5_7 
REMARK    3  A    between atoms: C5_7  and  C6_9 
REMARK    4  A    between atoms: C6_9  and  N2_10 
REMARK    5  A    between atoms: N2_10  and  C7_12 
REMARK    6  A    between atoms: C7_12  and  C9_17 
REMARK    7  A    between atoms: C18_26  and  O2_27 
ROOT
HETATM    1  C7  UNL     1      23.528   2.941  55.613  1.00  0.00     0.091 C 
HETATM    2  N3  UNL     1      22.268   2.652  55.385  1.00  0.00    -0.283 N 
ATOM      3  H3  UNL     1      21.768   3.141  54.642  1.00  0.00     0.179 HD
HETATM    4  C8  UNL     1      21.601   1.690  56.140  1.00  0.00     0.183 C 
HETATM    5  N4  UNL     1      21.032   0.873  56.757  1.00  0.00    -0.172 NA
ENDROOT
BRANCH   1   6
HETATM    6  N2  UNL     1      24.132   3.913  54.819  1.00  0.00    -0.370 N 
ATOM      7  H2  UNL     1      24.737   3.600  54.059  1.00  0.00     0.161 HD
BRANCH   6   8
HETATM    8  C6  UNL     1      23.962   5.309  54.999  1.00  0.00     0.223 C 
BRANCH   8   9
HETATM    9  C5  UNL     1      25.087   6.187  54.639  1.00  0.00     0.235 C 
HETATM   10  N1  UNL     1      26.147   5.643  53.846  1.00  0.00    -0.359 N 
ATOM     11  H1  UNL     1      26.090   4.667  53.555  1.00  0.00     0.162 HD
HETATM   12  O1  UNL     1      25.111   7.379  55.018  1.00  0.00    -0.272 OA
BRANCH  10  13
HETATM   13  C4  UNL     1      27.287   6.417  53.444  1.00  0.00     0.126 C 
BRANCH  13  14
HETATM   14  C2  UNL     1      28.537   5.580  53.626  1.00  0.00    -0.005 C 
HETATM   15  C1  UNL     1      28.944   5.492  55.082  1.00  0.00     0.011 C 
HETATM   16  C3  UNL     1      28.316   4.174  53.110  1.00  0.00     0.011 C 
ENDBRANCH  13  14
ENDBRANCH  10  13
ENDBRANCH   8   9
ENDBRANCH   6   8
ENDBRANCH   1   6
BRANCH   1  17
HETATM   17  C9  UNL     1      24.209   2.201  56.671  1.00  0.00     0.062 C 
HETATM   18  C10 UNL     1      23.969   2.697  58.077  1.00  0.00     0.013 C 
HETATM   19  C11 UNL     1      25.178   2.173  58.886  1.00  0.00     0.010 C 
HETATM   20  C12 UNL     1      25.956   1.384  57.888  1.00  0.00     0.023 C 
HETATM   21  C13 UNL     1      27.399   1.302  58.090  1.00  0.00    -0.074 C 
HETATM   22  C26 UNL     1      25.718   2.228  56.624  1.00  0.00    -0.026 C 
HETATM   23  C14 UNL     1      27.916   1.613  59.267  1.00  0.00    -0.023 C 
HETATM   24  C23 UNL     1      28.212   0.854  56.931  1.00  0.00     0.023 C 
HETATM   25  C15 UNL     1      29.383   1.550  59.538  1.00  0.00     0.033 C 
HETATM   26  C16 UNL     1      29.932   0.486  58.596  1.00  0.00     0.000 C 
HETATM   27  C17 UNL     1      31.303   0.036  58.905  1.00  0.00     0.037 C 
HETATM   28  C21 UNL     1      29.682   0.894  57.161  1.00  0.00    -0.033 C 
HETATM   29  C18 UNL     1      32.311   0.138  57.815  1.00  0.00     0.118 C 
HETATM   30  C19 UNL     1      31.821  -0.209  56.447  1.00  0.00     0.032 C 
HETATM   31  C20 UNL     1      30.342  -0.121  56.260  1.00  0.00     0.012 C 
HETATM   32  C22 UNL     1      30.206   2.286  56.880  1.00  0.00     0.016 C 
HETATM   33  C24 UNL     1      27.793   1.475  55.621  1.00  0.00     0.010 C 
HETATM   34  C25 UNL     1      26.306   1.462  55.489  1.00  0.00     0.011 C 
HETATM   35  C27 UNL     1      26.318   3.571  56.859  1.00  0.00     0.016 C 
BRANCH  29  36
HETATM   36  O2  UNL     1      33.349  -0.778  58.114  1.00  0.00    -0.396 OA
ATOM     37  H2  UNL     1      33.436  -0.808  59.059  1.00  0.00     0.210 HD
ENDBRANCH  29  36
ENDBRANCH   1  17
TORSDOF 7
ENDMDL
