MODEL 1
REMARK VINA RESULT: -6.992421802      0.000      0.000
REMARK  9 active torsions:
REMARK  status: ('A' for Active; 'I' for Inactive)
REMARK    1  A    between atoms: N1_1  and  C1_5 
REMARK    2  A    between atoms: C1_5  and  C2_6 
REMARK    3  A    between atoms: C2_6  and  C3_7 
REMARK    4  A    between atoms: C3_7  and  N2_8 
REMARK    5  A    between atoms: N2_8  and  C4_11 
REMARK    6  A    between atoms: C4_11  and  C5_12 
REMARK    7  A    between atoms: C5_12  and  C6_13 
REMARK    8  A    between atoms: C6_13  and  N3_14 
REMARK    9  A    between atoms: N3_14  and  C7_16 
ROOT
HETATM    1  C7  UNL     1     189.155 125.267  32.949  1.00  0.00     0.068 A 
HETATM    2  C8  UNL     1     188.316 124.362  32.365  1.00  0.00     0.003 A 
HETATM    3  C9  UNL     1     187.153 124.812  31.794  1.00  0.00     0.014 A 
HETATM    4  C10 UNL     1     186.285 123.937  31.199  1.00  0.00     0.001 A 
HETATM    5  C11 UNL     1     186.605 122.581  31.184  1.00  0.00     0.001 A 
HETATM    6  C12 UNL     1     187.763 122.104  31.748  1.00  0.00     0.012 A 
HETATM    7  C13 UNL     1     188.627 122.993  32.342  1.00  0.00    -0.021 A 
HETATM    8  C14 UNL     1     189.795 122.534  32.915  1.00  0.00     0.044 A 
HETATM    9  C15 UNL     1     190.641 123.448  33.505  1.00  0.00     0.063 A 
HETATM   10  N4  UNL     1     191.822 123.339  34.133  1.00  0.00    -0.350 N 
ATOM     11  H4  UNL     1     192.339 122.474  34.294  1.00  0.00     0.166 HD
HETATM   12  C16 UNL     1     192.205 124.570  34.513  1.00  0.00     0.181 A 
HETATM   13  N5  UNL     1     191.291 125.472  34.142  1.00  0.00    -0.349 N 
ATOM     14  H5  UNL     1     191.327 126.479  34.302  1.00  0.00     0.167 HD
HETATM   15  C17 UNL     1     190.322 124.798  33.520  1.00  0.00     0.087 A 
ENDROOT
BRANCH   1  16
HETATM   16  N3  UNL     1     188.843 126.650  32.960  1.00  0.00    -0.387 N 
ATOM     17  H3  UNL     1     187.986 126.959  33.420  1.00  0.00     0.159 HD
BRANCH  16  18
HETATM   18  C6  UNL     1     189.701 127.641  32.340  1.00  0.00     0.121 C 
BRANCH  18  19
HETATM   19  C5  UNL     1     189.990 127.238  30.913  1.00  0.00     0.047 C 
BRANCH  19  20
HETATM   20  C4  UNL     1     191.481 127.104  30.708  1.00  0.00     0.234 C 
BRANCH  20  21
HETATM   21  N2  UNL     1     191.911 125.738  30.501  1.00  0.00    -0.075 N 
ATOM     22  H22 UNL     1     191.864 125.478  29.516  1.00  0.00     0.277 HD
ATOM     23  H21 UNL     1     191.231 125.075  30.872  1.00  0.00     0.277 HD
BRANCH  21  24
HETATM   24  C3  UNL     1     193.232 125.504  31.049  1.00  0.00     0.233 C 
BRANCH  24  25
HETATM   25  C2  UNL     1     193.667 124.103  30.692  1.00  0.00     0.055 C 
BRANCH  25  26
HETATM   26  C1  UNL     1     194.993 124.092  29.956  1.00  0.00     0.231 C 
BRANCH  26  27
HETATM   27  N1  UNL     1     194.897 124.517  28.592  1.00  0.00    -0.079 N 
ATOM     28  H13 UNL     1     195.819 124.752  28.223  1.00  0.00     0.274 HD
ATOM     29  H12 UNL     1     194.666 123.730  27.985  1.00  0.00     0.274 HD
ATOM     30  H11 UNL     1     194.245 125.287  28.447  1.00  0.00     0.274 HD
ENDBRANCH  26  27
ENDBRANCH  25  26
ENDBRANCH  24  25
ENDBRANCH  21  24
ENDBRANCH  20  21
ENDBRANCH  19  20
ENDBRANCH  18  19
ENDBRANCH  16  18
ENDBRANCH   1  16
TORSDOF 9
ENDMDL
MODEL 2
REMARK VINA RESULT: -6.990774998      3.407      5.249
REMARK  9 active torsions:
REMARK  status: ('A' for Active; 'I' for Inactive)
REMARK    1  A    between atoms: N1_1  and  C1_5 
REMARK    2  A    between atoms: C1_5  and  C2_6 
REMARK    3  A    between atoms: C2_6  and  C3_7 
REMARK    4  A    between atoms: C3_7  and  N2_8 
REMARK    5  A    between atoms: N2_8  and  C4_11 
REMARK    6  A    between atoms: C4_11  and  C5_12 
REMARK    7  A    between atoms: C5_12  and  C6_13 
REMARK    8  A    between atoms: C6_13  and  N3_14 
REMARK    9  A    between atoms: N3_14  and  C7_16 
ROOT
HETATM    1  C7  UNL     1     188.322 124.877  31.825  1.00  0.00     0.068 A 
HETATM    2  C8  UNL     1     187.458 123.940  31.337  1.00  0.00     0.003 A 
HETATM    3  C9  UNL     1     186.407 124.351  30.558  1.00  0.00     0.014 A 
HETATM    4  C10 UNL     1     185.518 123.443  30.051  1.00  0.00     0.001 A 
HETATM    5  C11 UNL     1     185.701 122.091  30.339  1.00  0.00     0.001 A 
HETATM    6  C12 UNL     1     186.745 121.653  31.116  1.00  0.00     0.012 A 
HETATM    7  C13 UNL     1     187.632 122.575  31.620  1.00  0.00    -0.021 A 
HETATM    8  C14 UNL     1     188.687 122.155  32.402  1.00  0.00     0.044 A 
HETATM    9  C15 UNL     1     189.558 123.103  32.894  1.00  0.00     0.063 A 
HETATM   10  N4  UNL     1     190.657 123.034  33.664  1.00  0.00    -0.350 N 
ATOM     11  H4  UNL     1     191.066 122.183  34.050  1.00  0.00     0.166 HD
HETATM   12  C16 UNL     1     191.121 124.283  33.836  1.00  0.00     0.181 A 
HETATM   13  N5  UNL     1     190.341 125.158  33.192  1.00  0.00    -0.349 N 
ATOM     14  H5  UNL     1     190.462 126.170  33.154  1.00  0.00     0.167 HD
HETATM   15  C17 UNL     1     189.375 124.447  32.607  1.00  0.00     0.087 A 
ENDROOT
BRANCH   1  16
HETATM   16  N3  UNL     1     188.150 126.253  31.527  1.00  0.00    -0.387 N 
ATOM     17  H3  UNL     1     188.451 126.602  30.617  1.00  0.00     0.159 HD
BRANCH  16  18
HETATM   18  C6  UNL     1     187.560 127.181  32.473  1.00  0.00     0.121 C 
BRANCH  18  19
HETATM   19  C5  UNL     1     186.297 127.765  31.885  1.00  0.00     0.047 C 
BRANCH  19  20
HETATM   20  C4  UNL     1     186.606 128.439  30.568  1.00  0.00     0.234 C 
BRANCH  20  21
HETATM   21  N2  UNL     1     186.036 127.756  29.427  1.00  0.00    -0.075 N 
ATOM     22  H22 UNL     1     185.041 127.573  29.562  1.00  0.00     0.277 HD
ATOM     23  H21 UNL     1     186.367 126.794  29.366  1.00  0.00     0.277 HD
BRANCH  21  24
HETATM   24  C3  UNL     1     186.278 128.479  28.194  1.00  0.00     0.233 C 
BRANCH  24  25
HETATM   25  C2  UNL     1     185.426 129.725  28.183  1.00  0.00     0.055 C 
BRANCH  25  26
HETATM   26  C1  UNL     1     184.412 129.707  27.056  1.00  0.00     0.231 C 
BRANCH  26  27
HETATM   27  N1  UNL     1     183.549 130.850  27.040  1.00  0.00    -0.079 N 
ATOM     28  H13 UNL     1     183.861 131.545  27.718  1.00  0.00     0.274 HD
ATOM     29  H12 UNL     1     183.674 131.383  26.179  1.00  0.00     0.274 HD
ATOM     30  H11 UNL     1     182.566 130.623  27.183  1.00  0.00     0.274 HD
ENDBRANCH  26  27
ENDBRANCH  25  26
ENDBRANCH  24  25
ENDBRANCH  21  24
ENDBRANCH  20  21
ENDBRANCH  19  20
ENDBRANCH  18  19
ENDBRANCH  16  18
ENDBRANCH   1  16
TORSDOF 9
ENDMDL
MODEL 3
REMARK VINA RESULT: -6.964528339      3.620      5.488
REMARK  9 active torsions:
REMARK  status: ('A' for Active; 'I' for Inactive)
REMARK    1  A    between atoms: N1_1  and  C1_5 
REMARK    2  A    between atoms: C1_5  and  C2_6 
REMARK    3  A    between atoms: C2_6  and  C3_7 
REMARK    4  A    between atoms: C3_7  and  N2_8 
REMARK    5  A    between atoms: N2_8  and  C4_11 
REMARK    6  A    between atoms: C4_11  and  C5_12 
REMARK    7  A    between atoms: C5_12  and  C6_13 
REMARK    8  A    between atoms: C6_13  and  N3_14 
REMARK    9  A    between atoms: N3_14  and  C7_16 
ROOT
HETATM    1  C7  UNL     1     188.085 125.132  31.225  1.00  0.00     0.068 A 
HETATM    2  C8  UNL     1     187.225 124.135  30.862  1.00  0.00     0.003 A 
HETATM    3  C9  UNL     1     186.218 124.420  29.976  1.00  0.00     0.014 A 
HETATM    4  C10 UNL     1     185.335 123.450  29.587  1.00  0.00     0.001 A 
HETATM    5  C11 UNL     1     185.480 122.165  30.107  1.00  0.00     0.001 A 
HETATM    6  C12 UNL     1     186.479 121.852  30.996  1.00  0.00     0.012 A 
HETATM    7  C13 UNL     1     187.360 122.836  31.378  1.00  0.00    -0.021 A 
HETATM    8  C14 UNL     1     188.371 122.542  32.269  1.00  0.00     0.044 A 
HETATM    9  C15 UNL     1     189.237 123.549  32.636  1.00  0.00     0.063 A 
HETATM   10  N4  UNL     1     190.298 123.599  33.457  1.00  0.00    -0.350 N 
ATOM     11  H4  UNL     1     190.674 122.821  34.000  1.00  0.00     0.166 HD
HETATM   12  C16 UNL     1     190.778 124.854  33.438  1.00  0.00     0.181 A 
HETATM   13  N5  UNL     1     190.045 125.616  32.620  1.00  0.00    -0.349 N 
ATOM     14  H5  UNL     1     190.187 126.606  32.418  1.00  0.00     0.167 HD
HETATM   15  C17 UNL     1     189.093 124.828  32.118  1.00  0.00     0.087 A 
ENDROOT
BRANCH   1  16
HETATM   16  N3  UNL     1     187.952 126.439  30.693  1.00  0.00    -0.387 N 
ATOM     17  H3  UNL     1     188.357 126.642  29.778  1.00  0.00     0.159 HD
BRANCH  16  18
HETATM   18  C6  UNL     1     187.261 127.497  31.403  1.00  0.00     0.121 C 
BRANCH  18  19
HETATM   19  C5  UNL     1     186.222 128.118  30.499  1.00  0.00     0.047 C 
BRANCH  19  20
HETATM   20  C4  UNL     1     185.917 129.526  30.956  1.00  0.00     0.234 C 
BRANCH  20  21
HETATM   21  N2  UNL     1     185.792 130.468  29.866  1.00  0.00    -0.075 N 
ATOM     22  H22 UNL     1     185.931 131.427  30.184  1.00  0.00     0.277 HD
ATOM     23  H21 UNL     1     184.826 130.545  29.549  1.00  0.00     0.277 HD
BRANCH  21  24
HETATM   24  C3  UNL     1     186.683 130.141  28.770  1.00  0.00     0.233 C 
BRANCH  24  25
HETATM   25  C2  UNL     1     185.998 130.475  27.468  1.00  0.00     0.055 C 
BRANCH  25  26
HETATM   26  C1  UNL     1     184.630 129.828  27.365  1.00  0.00     0.231 C 
BRANCH  26  27
HETATM   27  N1  UNL     1     183.575 130.755  27.084  1.00  0.00    -0.079 N 
ATOM     28  H13 UNL     1     182.857 130.714  27.807  1.00  0.00     0.274 HD
ATOM     29  H12 UNL     1     183.895 131.715  27.215  1.00  0.00     0.274 HD
ATOM     30  H11 UNL     1     183.162 130.636  26.159  1.00  0.00     0.274 HD
ENDBRANCH  26  27
ENDBRANCH  25  26
ENDBRANCH  24  25
ENDBRANCH  21  24
ENDBRANCH  20  21
ENDBRANCH  19  20
ENDBRANCH  18  19
ENDBRANCH  16  18
ENDBRANCH   1  16
TORSDOF 9
ENDMDL
MODEL 4
REMARK VINA RESULT: -6.938349354      1.909      3.711
REMARK  9 active torsions:
REMARK  status: ('A' for Active; 'I' for Inactive)
REMARK    1  A    between atoms: N1_1  and  C1_5 
REMARK    2  A    between atoms: C1_5  and  C2_6 
REMARK    3  A    between atoms: C2_6  and  C3_7 
REMARK    4  A    between atoms: C3_7  and  N2_8 
REMARK    5  A    between atoms: N2_8  and  C4_11 
REMARK    6  A    between atoms: C4_11  and  C5_12 
REMARK    7  A    between atoms: C5_12  and  C6_13 
REMARK    8  A    between atoms: C6_13  and  N3_14 
REMARK    9  A    between atoms: N3_14  and  C7_16 
ROOT
HETATM    1  C7  UNL     1     188.177 124.020  31.541  1.00  0.00     0.068 A 
HETATM    2  C8  UNL     1     186.991 123.421  31.224  1.00  0.00     0.003 A 
HETATM    3  C9  UNL     1     186.607 122.304  31.921  1.00  0.00     0.014 A 
HETATM    4  C10 UNL     1     185.427 121.675  31.634  1.00  0.00     0.001 A 
HETATM    5  C11 UNL     1     184.621 122.191  30.621  1.00  0.00     0.001 A 
HETATM    6  C12 UNL     1     184.981 123.308  29.908  1.00  0.00     0.012 A 
HETATM    7  C13 UNL     1     186.169 123.931  30.206  1.00  0.00    -0.021 A 
HETATM    8  C14 UNL     1     186.549 125.054  29.502  1.00  0.00     0.044 A 
HETATM    9  C15 UNL     1     187.747 125.657  29.821  1.00  0.00     0.063 A 
HETATM   10  N4  UNL     1     188.393 126.734  29.345  1.00  0.00    -0.350 N 
ATOM     11  H4  UNL     1     188.071 127.342  28.592  1.00  0.00     0.166 HD
HETATM   12  C16 UNL     1     189.538 126.868  30.035  1.00  0.00     0.181 A 
HETATM   13  N5  UNL     1     189.643 125.897  30.948  1.00  0.00    -0.349 N 
ATOM     14  H5  UNL     1     190.410 125.759  31.607  1.00  0.00     0.167 HD
HETATM   15  C17 UNL     1     188.549 125.143  30.830  1.00  0.00     0.087 A 
ENDROOT
BRANCH   1  16
HETATM   16  N3  UNL     1     188.998 123.508  32.577  1.00  0.00    -0.387 N 
ATOM     17  H3  UNL     1     189.036 124.006  33.467  1.00  0.00     0.159 HD
BRANCH  16  18
HETATM   18  C6  UNL     1     189.786 122.302  32.416  1.00  0.00     0.121 C 
BRANCH  18  19
HETATM   19  C5  UNL     1     190.370 122.263  31.023  1.00  0.00     0.047 C 
BRANCH  19  20
HETATM   20  C4  UNL     1     191.880 122.272  31.098  1.00  0.00     0.234 C 
BRANCH  20  21
HETATM   21  N2  UNL     1     192.482 123.382  30.393  1.00  0.00    -0.075 N 
ATOM     22  H22 UNL     1     191.822 123.813  29.745  1.00  0.00     0.277 HD
ATOM     23  H21 UNL     1     193.178 123.062  29.721  1.00  0.00     0.277 HD
BRANCH  21  24
HETATM   24  C3  UNL     1     193.039 124.359  31.308  1.00  0.00     0.233 C 
BRANCH  24  25
HETATM   25  C2  UNL     1     194.196 125.055  30.633  1.00  0.00     0.055 C 
BRANCH  25  26
HETATM   26  C1  UNL     1     195.042 124.091  29.825  1.00  0.00     0.231 C 
BRANCH  26  27
HETATM   27  N1  UNL     1     195.148 124.440  28.440  1.00  0.00    -0.079 N 
ATOM     28  H13 UNL     1     194.302 124.913  28.122  1.00  0.00     0.274 HD
ATOM     29  H12 UNL     1     195.823 125.192  28.309  1.00  0.00     0.274 HD
ATOM     30  H11 UNL     1     195.367 123.649  27.833  1.00  0.00     0.274 HD
ENDBRANCH  26  27
ENDBRANCH  25  26
ENDBRANCH  24  25
ENDBRANCH  21  24
ENDBRANCH  20  21
ENDBRANCH  19  20
ENDBRANCH  18  19
ENDBRANCH  16  18
ENDBRANCH   1  16
TORSDOF 9
ENDMDL
MODEL 5
REMARK VINA RESULT: -6.853326094      4.004      6.439
REMARK  9 active torsions:
REMARK  status: ('A' for Active; 'I' for Inactive)
REMARK    1  A    between atoms: N1_1  and  C1_5 
REMARK    2  A    between atoms: C1_5  and  C2_6 
REMARK    3  A    between atoms: C2_6  and  C3_7 
REMARK    4  A    between atoms: C3_7  and  N2_8 
REMARK    5  A    between atoms: N2_8  and  C4_11 
REMARK    6  A    between atoms: C4_11  and  C5_12 
REMARK    7  A    between atoms: C5_12  and  C6_13 
REMARK    8  A    between atoms: C6_13  and  N3_14 
REMARK    9  A    between atoms: N3_14  and  C7_16 
ROOT
HETATM    1  C7  UNL     1     187.758 124.885  31.375  1.00  0.00     0.068 A 
HETATM    2  C8  UNL     1     188.771 124.416  32.161  1.00  0.00     0.003 A 
HETATM    3  C9  UNL     1     189.643 125.314  32.722  1.00  0.00     0.014 A 
HETATM    4  C10 UNL     1     190.671 124.884  33.515  1.00  0.00     0.001 A 
HETATM    5  C11 UNL     1     190.817 123.516  33.742  1.00  0.00     0.001 A 
HETATM    6  C12 UNL     1     189.958 122.596  33.193  1.00  0.00     0.012 A 
HETATM    7  C13 UNL     1     188.928 123.041  32.399  1.00  0.00    -0.021 A 
HETATM    8  C14 UNL     1     188.055 122.133  31.838  1.00  0.00     0.044 A 
HETATM    9  C15 UNL     1     187.033 122.608  31.044  1.00  0.00     0.063 A 
HETATM   10  N4  UNL     1     186.038 122.011  30.366  1.00  0.00    -0.350 N 
ATOM     11  H4  UNL     1     185.859 121.008  30.323  1.00  0.00     0.166 HD
HETATM   12  C16 UNL     1     185.321 122.969  29.755  1.00  0.00     0.181 A 
HETATM   13  N5  UNL     1     185.835 124.174  30.025  1.00  0.00    -0.349 N 
ATOM     14  H5  UNL     1     185.489 125.073  29.692  1.00  0.00     0.167 HD
HETATM   15  C17 UNL     1     186.889 123.968  30.817  1.00  0.00     0.087 A 
ENDROOT
BRANCH   1  16
HETATM   16  N3  UNL     1     187.596 126.275  31.146  1.00  0.00    -0.387 N 
ATOM     17  H3  UNL     1     188.191 126.734  30.457  1.00  0.00     0.159 HD
BRANCH  16  18
HETATM   18  C6  UNL     1     186.612 127.067  31.859  1.00  0.00     0.121 C 
BRANCH  18  19
HETATM   19  C5  UNL     1     186.216 128.257  31.018  1.00  0.00     0.047 C 
BRANCH  19  20
HETATM   20  C4  UNL     1     186.226 127.878  29.554  1.00  0.00     0.234 C 
BRANCH  20  21
HETATM   21  N2  UNL     1     186.046 129.009  28.669  1.00  0.00    -0.075 N 
ATOM     22  H22 UNL     1     186.655 129.785  28.928  1.00  0.00     0.277 HD
ATOM     23  H21 UNL     1     185.143 129.459  28.819  1.00  0.00     0.277 HD
BRANCH  21  24
HETATM   24  C3  UNL     1     186.227 128.635  27.280  1.00  0.00     0.233 C 
BRANCH  24  25
HETATM   25  C2  UNL     1     185.689 129.740  26.404  1.00  0.00     0.055 C 
BRANCH  25  26
HETATM   26  C1  UNL     1     184.174 129.728  26.344  1.00  0.00     0.231 C 
BRANCH  26  27
HETATM   27  N1  UNL     1     183.562 130.827  27.028  1.00  0.00    -0.079 N 
ATOM     28  H13 UNL     1     184.258 131.532  27.271  1.00  0.00     0.274 HD
ATOM     29  H12 UNL     1     182.983 131.371  26.389  1.00  0.00     0.274 HD
ATOM     30  H11 UNL     1     183.028 130.551  27.852  1.00  0.00     0.274 HD
ENDBRANCH  26  27
ENDBRANCH  25  26
ENDBRANCH  24  25
ENDBRANCH  21  24
ENDBRANCH  20  21
ENDBRANCH  19  20
ENDBRANCH  18  19
ENDBRANCH  16  18
ENDBRANCH   1  16
TORSDOF 9
ENDMDL
