MODEL 1
REMARK VINA RESULT: -7.541482292      0.000      0.000
REMARK  7 active torsions:
REMARK  status: ('A' for Active; 'I' for Inactive)
REMARK    1  A    between atoms: O1_2  and  C2_3 
REMARK    2  A    between atoms: C4_5  and  N1_6 
REMARK    3  A    between atoms: N1_6  and  C5_8 
REMARK    4  A    between atoms: C13_16  and  N2_17 
REMARK    5  A    between atoms: N2_17  and  C14_19 
REMARK    6  A    between atoms: C14_19  and  C15_20 
REMARK    7  A    between atoms: C15_20  and  N3_21 
REMARK       I    between atoms: N3_21  and  C16_23 
ROOT
HETATM    1  C2  UNL     1     186.400 129.244  31.027  1.00  0.00     0.096 A 
HETATM    2  C3  UNL     1     186.760 128.161  31.801  1.00  0.00     0.068 A 
HETATM    3  C4  UNL     1     186.800 126.857  31.309  1.00  0.00     0.031 A 
HETATM    4  C11 UNL     1     186.464 126.667  29.997  1.00  0.00     0.031 A 
HETATM    5  C12 UNL     1     186.098 127.759  29.206  1.00  0.00     0.034 A 
HETATM    6  C13 UNL     1     186.069 129.041  29.729  1.00  0.00     0.061 A 
ENDROOT
BRANCH   6   7
HETATM    7  N2  UNL     1     185.690 130.139  28.885  1.00  0.00    -0.386 N 
ATOM      8  H2  UNL     1     185.855 131.093  29.209  1.00  0.00     0.159 HD
BRANCH   7   9
HETATM    9  C14 UNL     1     185.093 129.938  27.617  1.00  0.00     0.139 C 
BRANCH   9  10
HETATM   10  C15 UNL     1     185.745 130.532  26.438  1.00  0.00     0.143 C 
BRANCH  10  11
HETATM   11  N3  UNL     1     186.352 129.720  25.453  1.00  0.00    -0.344 N 
HETATM   12  C16 UNL     1     187.411 128.822  25.524  1.00  0.00     0.328 C 
HETATM   13  N4  UNL     1     187.803 128.137  24.295  1.00  0.00    -0.040 NA
HETATM   14  O2  UNL     1     188.108 128.497  26.502  1.00  0.00    -0.251 OA
ATOM     15  H3  UNL     1     185.939 129.809  24.525  1.00  0.00     0.163 HD
ENDBRANCH  10  11
ENDBRANCH   9  10
ENDBRANCH   7   9
ENDBRANCH   6   7
BRANCH   1  16
HETATM   16  O1  UNL     1     186.369 130.536  31.548  1.00  0.00    -0.354 OA
HETATM   17  C1  UNL     1     187.559 131.034  32.126  1.00  0.00     0.210 C 
ENDBRANCH   1  16
BRANCH   3  18
HETATM   18  N1  UNL     1     187.181 125.800  32.152  1.00  0.00    -0.385 N 
ATOM     19  H1  UNL     1     186.982 125.918  33.146  1.00  0.00     0.160 HD
BRANCH  18  20
HETATM   20  C5  UNL     1     187.825 124.563  31.767  1.00  0.00     0.081 C 
HETATM   21  C6  UNL     1     189.092 124.372  32.519  1.00  0.00     0.025 C 
HETATM   22  C7  UNL     1     189.417 122.928  32.804  1.00  0.00     0.002 C 
HETATM   23  C8  UNL     1     188.924 122.100  31.655  1.00  0.00     0.000 C 
HETATM   24  C9  UNL     1     187.407 122.075  31.652  1.00  0.00     0.002 C 
HETATM   25  C10 UNL     1     186.830 123.455  31.814  1.00  0.00     0.025 C 
ENDBRANCH  18  20
ENDBRANCH   3  18
TORSDOF 7
ENDMDL
MODEL 2
REMARK VINA RESULT: -7.525884451      4.994      7.520
REMARK  7 active torsions:
REMARK  status: ('A' for Active; 'I' for Inactive)
REMARK    1  A    between atoms: O1_2  and  C2_3 
REMARK    2  A    between atoms: C4_5  and  N1_6 
REMARK    3  A    between atoms: N1_6  and  C5_8 
REMARK    4  A    between atoms: C13_16  and  N2_17 
REMARK    5  A    between atoms: N2_17  and  C14_19 
REMARK    6  A    between atoms: C14_19  and  C15_20 
REMARK    7  A    between atoms: C15_20  and  N3_21 
REMARK       I    between atoms: N3_21  and  C16_23 
ROOT
HETATM    1  C2  UNL     1     191.608 124.395  31.795  1.00  0.00     0.096 A 
HETATM    2  C3  UNL     1     190.303 124.450  31.353  1.00  0.00     0.068 A 
HETATM    3  C4  UNL     1     189.333 125.254  31.948  1.00  0.00     0.031 A 
HETATM    4  C11 UNL     1     189.715 126.016  33.018  1.00  0.00     0.031 A 
HETATM    5  C12 UNL     1     191.035 125.966  33.473  1.00  0.00     0.034 A 
HETATM    6  C13 UNL     1     191.972 125.154  32.857  1.00  0.00     0.061 A 
ENDROOT
BRANCH   6   7
HETATM    7  N2  UNL     1     193.320 125.132  33.351  1.00  0.00    -0.386 N 
ATOM      8  H2  UNL     1     193.583 124.428  34.043  1.00  0.00     0.159 HD
BRANCH   7   9
HETATM    9  C14 UNL     1     194.296 126.056  32.907  1.00  0.00     0.139 C 
BRANCH   9  10
HETATM   10  C15 UNL     1     195.341 125.577  31.986  1.00  0.00     0.143 C 
BRANCH  10  11
HETATM   11  N3  UNL     1     195.087 125.438  30.603  1.00  0.00    -0.344 N 
HETATM   12  C16 UNL     1     195.481 124.470  29.686  1.00  0.00     0.328 C 
HETATM   13  N4  UNL     1     195.045 124.629  28.301  1.00  0.00    -0.040 NA
HETATM   14  O2  UNL     1     196.173 123.451  29.861  1.00  0.00    -0.251 OA
ATOM     15  H3  UNL     1     194.511 126.181  30.206  1.00  0.00     0.163 HD
ENDBRANCH  10  11
ENDBRANCH   9  10
ENDBRANCH   7   9
ENDBRANCH   6   7
BRANCH   1  16
HETATM   16  O1  UNL     1     192.556 123.580  31.179  1.00  0.00    -0.354 OA
HETATM   17  C1  UNL     1     192.260 122.201  31.077  1.00  0.00     0.210 C 
ENDBRANCH   1  16
BRANCH   3  18
HETATM   18  N1  UNL     1     188.023 125.265  31.442  1.00  0.00    -0.385 N 
ATOM     19  H1  UNL     1     187.523 126.153  31.496  1.00  0.00     0.160 HD
BRANCH  18  20
HETATM   20  C5  UNL     1     187.304 124.156  30.852  1.00  0.00     0.081 C 
HETATM   21  C6  UNL     1     186.752 123.266  31.905  1.00  0.00     0.025 C 
HETATM   22  C7  UNL     1     185.449 122.613  31.526  1.00  0.00     0.002 C 
HETATM   23  C8  UNL     1     185.467 122.349  30.050  1.00  0.00     0.000 C 
HETATM   24  C9  UNL     1     185.381 123.660  29.292  1.00  0.00     0.002 C 
HETATM   25  C10 UNL     1     186.353 124.676  29.830  1.00  0.00     0.025 C 
ENDBRANCH  18  20
ENDBRANCH   3  18
TORSDOF 7
ENDMDL
MODEL 3
REMARK VINA RESULT: -7.505416949      1.615      2.428
REMARK  7 active torsions:
REMARK  status: ('A' for Active; 'I' for Inactive)
REMARK    1  A    between atoms: O1_2  and  C2_3 
REMARK    2  A    between atoms: C4_5  and  N1_6 
REMARK    3  A    between atoms: N1_6  and  C5_8 
REMARK    4  A    between atoms: C13_16  and  N2_17 
REMARK    5  A    between atoms: N2_17  and  C14_19 
REMARK    6  A    between atoms: C14_19  and  C15_20 
REMARK    7  A    between atoms: C15_20  and  N3_21 
REMARK       I    between atoms: N3_21  and  C16_23 
ROOT
HETATM    1  C2  UNL     1     186.678 128.310  29.247  1.00  0.00     0.096 A 
HETATM    2  C3  UNL     1     186.810 127.180  30.028  1.00  0.00     0.068 A 
HETATM    3  C4  UNL     1     186.500 127.156  31.386  1.00  0.00     0.031 A 
HETATM    4  C11 UNL     1     186.046 128.317  31.951  1.00  0.00     0.031 A 
HETATM    5  C12 UNL     1     185.910 129.465  31.167  1.00  0.00     0.034 A 
HETATM    6  C13 UNL     1     186.227 129.452  29.820  1.00  0.00     0.061 A 
ENDROOT
BRANCH   6   7
HETATM    7  N2  UNL     1     186.072 130.652  29.045  1.00  0.00    -0.386 N 
ATOM      8  H2  UNL     1     185.158 130.868  28.646  1.00  0.00     0.159 HD
BRANCH   7   9
HETATM    9  C14 UNL     1     187.149 131.543  28.821  1.00  0.00     0.139 C 
BRANCH   9  10
HETATM   10  C15 UNL     1     187.407 131.991  27.442  1.00  0.00     0.143 C 
BRANCH  10  11
HETATM   11  N3  UNL     1     187.054 131.185  26.336  1.00  0.00    -0.344 N 
HETATM   12  C16 UNL     1     185.994 131.263  25.440  1.00  0.00     0.328 C 
HETATM   13  N4  UNL     1     185.913 130.248  24.393  1.00  0.00    -0.040 NA
HETATM   14  O2  UNL     1     185.065 132.089  25.385  1.00  0.00    -0.251 OA
ATOM     15  H3  UNL     1     187.692 130.408  26.164  1.00  0.00     0.163 HD
ENDBRANCH  10  11
ENDBRANCH   9  10
ENDBRANCH   7   9
ENDBRANCH   6   7
BRANCH   1  16
HETATM   16  O1  UNL     1     186.996 128.302  27.891  1.00  0.00    -0.354 OA
HETATM   17  C1  UNL     1     188.367 128.262  27.544  1.00  0.00     0.210 C 
ENDBRANCH   1  16
BRANCH   3  18
HETATM   18  N1  UNL     1     186.654 125.969  32.120  1.00  0.00    -0.385 N 
ATOM     19  H1  UNL     1     186.259 125.963  33.061  1.00  0.00     0.160 HD
BRANCH  18  20
HETATM   20  C5  UNL     1     187.310 124.753  31.690  1.00  0.00     0.081 C 
HETATM   21  C6  UNL     1     188.606 124.576  32.393  1.00  0.00     0.025 C 
HETATM   22  C7  UNL     1     188.972 123.135  32.639  1.00  0.00     0.002 C 
HETATM   23  C8  UNL     1     188.455 122.317  31.494  1.00  0.00     0.000 C 
HETATM   24  C9  UNL     1     186.941 122.259  31.544  1.00  0.00     0.002 C 
HETATM   25  C10 UNL     1     186.340 123.623  31.751  1.00  0.00     0.025 C 
ENDBRANCH  18  20
ENDBRANCH   3  18
TORSDOF 7
ENDMDL
MODEL 4
REMARK VINA RESULT: -7.487841294      2.877      7.999
REMARK  7 active torsions:
REMARK  status: ('A' for Active; 'I' for Inactive)
REMARK    1  A    between atoms: O1_2  and  C2_3 
REMARK    2  A    between atoms: C4_5  and  N1_6 
REMARK    3  A    between atoms: N1_6  and  C5_8 
REMARK    4  A    between atoms: C13_16  and  N2_17 
REMARK    5  A    between atoms: N2_17  and  C14_19 
REMARK    6  A    between atoms: C14_19  and  C15_20 
REMARK    7  A    between atoms: C15_20  and  N3_21 
REMARK       I    between atoms: N3_21  and  C16_23 
ROOT
HETATM    1  C2  UNL     1     186.628 126.791  30.080  1.00  0.00     0.096 A 
HETATM    2  C3  UNL     1     186.283 127.831  29.242  1.00  0.00     0.068 A 
HETATM    3  C4  UNL     1     185.900 129.087  29.710  1.00  0.00     0.031 A 
HETATM    4  C11 UNL     1     185.870 129.274  31.065  1.00  0.00     0.031 A 
HETATM    5  C12 UNL     1     186.217 128.225  31.920  1.00  0.00     0.034 A 
HETATM    6  C13 UNL     1     186.593 126.990  31.420  1.00  0.00     0.061 A 
ENDROOT
BRANCH   6   7
HETATM    7  N2  UNL     1     186.946 125.937  32.330  1.00  0.00    -0.386 N 
ATOM      8  H2  UNL     1     186.362 125.101  32.370  1.00  0.00     0.159 HD
BRANCH   7   9
HETATM    9  C14 UNL     1     188.080 126.025  33.174  1.00  0.00     0.139 C 
BRANCH   9  10
HETATM   10  C15 UNL     1     189.136 125.009  33.029  1.00  0.00     0.143 C 
BRANCH  10  11
HETATM   11  N3  UNL     1     190.181 124.903  33.975  1.00  0.00    -0.344 N 
HETATM   12  C16 UNL     1     191.342 124.139  33.983  1.00  0.00     0.328 C 
HETATM   13  N4  UNL     1     192.226 124.259  35.139  1.00  0.00    -0.040 NA
HETATM   14  O2  UNL     1     191.766 123.336  33.132  1.00  0.00    -0.251 OA
ATOM     15  H3  UNL     1     190.061 125.493  34.798  1.00  0.00     0.163 HD
ENDBRANCH  10  11
ENDBRANCH   9  10
ENDBRANCH   7   9
ENDBRANCH   6   7
BRANCH   1  16
HETATM   16  O1  UNL     1     187.007 125.546  29.582  1.00  0.00    -0.354 OA
HETATM   17  C1  UNL     1     185.976 124.659  29.195  1.00  0.00     0.210 C 
ENDBRANCH   1  16
BRANCH   3  18
HETATM   18  N1  UNL     1     185.567 130.103  28.800  1.00  0.00    -0.385 N 
ATOM     19  H1  UNL     1     185.194 130.965  29.198  1.00  0.00     0.160 HD
BRANCH  18  20
HETATM   20  C5  UNL     1     185.694 130.063  27.358  1.00  0.00     0.081 C 
HETATM   21  C6  UNL     1     184.389 129.752  26.722  1.00  0.00     0.025 C 
HETATM   22  C7  UNL     1     184.197 130.407  25.378  1.00  0.00     0.002 C 
HETATM   23  C8  UNL     1     185.531 130.479  24.696  1.00  0.00     0.000 C 
HETATM   24  C9  UNL     1     186.416 131.489  25.402  1.00  0.00     0.002 C 
HETATM   25  C10 UNL     1     186.406 131.287  26.894  1.00  0.00     0.025 C 
ENDBRANCH  18  20
ENDBRANCH   3  18
TORSDOF 7
ENDMDL
MODEL 5
REMARK VINA RESULT: -7.448521877      5.050      6.895
REMARK  7 active torsions:
REMARK  status: ('A' for Active; 'I' for Inactive)
REMARK    1  A    between atoms: O1_2  and  C2_3 
REMARK    2  A    between atoms: C4_5  and  N1_6 
REMARK    3  A    between atoms: N1_6  and  C5_8 
REMARK    4  A    between atoms: C13_16  and  N2_17 
REMARK    5  A    between atoms: N2_17  and  C14_19 
REMARK    6  A    between atoms: C14_19  and  C15_20 
REMARK    7  A    between atoms: C15_20  and  N3_21 
REMARK       I    between atoms: N3_21  and  C16_23 
ROOT
HETATM    1  C2  UNL     1     190.540 125.203  33.509  1.00  0.00     0.096 A 
HETATM    2  C3  UNL     1     189.234 124.869  33.216  1.00  0.00     0.068 A 
HETATM    3  C4  UNL     1     188.500 125.490  32.207  1.00  0.00     0.031 A 
HETATM    4  C11 UNL     1     189.123 126.473  31.487  1.00  0.00     0.031 A 
HETATM    5  C12 UNL     1     190.445 126.818  31.778  1.00  0.00     0.034 A 
HETATM    6  C13 UNL     1     191.144 126.179  32.789  1.00  0.00     0.061 A 
ENDROOT
BRANCH   6   7
HETATM    7  N2  UNL     1     192.503 126.558  33.057  1.00  0.00    -0.386 N 
ATOM      8  H2  UNL     1     192.755 126.861  33.998  1.00  0.00     0.159 HD
BRANCH   7   9
HETATM    9  C14 UNL     1     193.502 126.524  32.054  1.00  0.00     0.139 C 
BRANCH   9  10
HETATM   10  C15 UNL     1     193.867 125.218  31.480  1.00  0.00     0.143 C 
BRANCH  10  11
HETATM   11  N3  UNL     1     194.198 125.089  30.112  1.00  0.00    -0.344 N 
HETATM   12  C16 UNL     1     195.166 124.330  29.465  1.00  0.00     0.328 C 
HETATM   13  N4  UNL     1     195.252 124.434  28.011  1.00  0.00    -0.040 NA
HETATM   14  O2  UNL     1     196.006 123.547  29.944  1.00  0.00    -0.251 OA
ATOM     15  H3  UNL     1     193.623 125.655  29.487  1.00  0.00     0.163 HD
ENDBRANCH  10  11
ENDBRANCH   9  10
ENDBRANCH   7   9
ENDBRANCH   6   7
BRANCH   1  16
HETATM   16  O1  UNL     1     191.247 124.564  34.525  1.00  0.00    -0.354 OA
HETATM   17  C1  UNL     1     191.865 123.331  34.212  1.00  0.00     0.210 C 
ENDBRANCH   1  16
BRANCH   3  18
HETATM   18  N1  UNL     1     187.175 125.096  31.958  1.00  0.00    -0.385 N 
ATOM     19  H1  UNL     1     186.445 125.670  32.380  1.00  0.00     0.160 HD
BRANCH  18  20
HETATM   20  C5  UNL     1     186.731 123.967  31.170  1.00  0.00     0.081 C 
HETATM   21  C6  UNL     1     185.970 123.006  32.008  1.00  0.00     0.025 C 
HETATM   22  C7  UNL     1     184.875 122.286  31.264  1.00  0.00     0.002 C 
HETATM   23  C8  UNL     1     185.327 122.078  29.849  1.00  0.00     0.000 C 
HETATM   24  C9  UNL     1     185.367 123.407  29.120  1.00  0.00     0.002 C 
HETATM   25  C10 UNL     1     186.073 124.462  29.929  1.00  0.00     0.025 C 
ENDBRANCH  18  20
ENDBRANCH   3  18
TORSDOF 7
ENDMDL
