MODEL 1
REMARK VINA RESULT: -8.095662565      0.000      0.000
REMARK  8 active torsions:
REMARK  status: ('A' for Active; 'I' for Inactive)
REMARK    1  A    between atoms: N1_1  and  C1_4 
REMARK    2  A    between atoms: C2_7  and  C3_8 
REMARK    3  A    between atoms: C3_8  and  C4_9 
REMARK    4  A    between atoms: C4_9  and  C5_10 
REMARK    5  A    between atoms: C5_10  and  O1_11 
REMARK    6  A    between atoms: O1_11  and  C6_12 
REMARK    7  A    between atoms: C9_15  and  N3_16 
REMARK    8  A    between atoms: N3_16  and  C10_18 
ROOT
HETATM    1  O1  UNL     1     187.209 125.489  31.972  1.00  0.00    -0.351 OA
ENDROOT
BRANCH   1   2
HETATM    2  C5  UNL     1     186.414 124.352  32.171  1.00  0.00     0.176 C 
BRANCH   2   3
HETATM    3  C4  UNL     1     186.841 123.274  31.206  1.00  0.00     0.034 C 
BRANCH   3   4
HETATM    4  C3  UNL     1     187.708 122.230  31.877  1.00  0.00     0.080 C 
BRANCH   4   5
HETATM    5  C2  UNL     1     189.104 122.474  31.451  1.00  0.00     0.112 A 
HETATM    6  N2  UNL     1     189.662 123.669  31.296  1.00  0.00    -0.178 N 
HETATM    7  C1  UNL     1     190.930 123.447  30.902  1.00  0.00     0.691 A 
ATOM      8  H2  UNL     1     189.219 124.575  31.446  1.00  0.00     0.185 HD
HETATM    9  N5  UNL     1     191.118 122.121  30.824  1.00  0.00    -0.131 N 
HETATM   10  N4  UNL     1     189.991 121.524  31.162  1.00  0.00    -0.274 N 
ATOM     11  H5  UNL     1     191.982 121.655  30.551  1.00  0.00     0.205 HD
ATOM     12  H4  UNL     1     189.829 120.518  31.196  1.00  0.00     0.189 HD
BRANCH   7  13
HETATM   13  N1  UNL     1     191.843 124.339  30.634  1.00  0.00    -0.233 N 
ATOM     14  H12 UNL     1     192.469 124.751  31.326  1.00  0.00     0.174 HD
ATOM     15  H11 UNL     1     192.064 124.745  29.724  1.00  0.00     0.174 HD
ENDBRANCH   7  13
ENDBRANCH   4   5
ENDBRANCH   3   4
ENDBRANCH   2   3
ENDBRANCH   1   2
BRANCH   1  16
HETATM   16  C6  UNL     1     186.804 126.593  31.236  1.00  0.00     0.068 A 
HETATM   17  C7  UNL     1     186.722 126.612  29.864  1.00  0.00     0.039 A 
HETATM   18  C8  UNL     1     186.312 127.742  29.193  1.00  0.00     0.032 A 
HETATM   19  C9  UNL     1     185.959 128.927  29.853  1.00  0.00     0.032 A 
HETATM   20  C16 UNL     1     186.042 128.901  31.222  1.00  0.00     0.032 A 
HETATM   21  C17 UNL     1     186.461 127.746  31.904  1.00  0.00     0.039 A 
BRANCH  19  22
HETATM   22  N3  UNL     1     185.517 130.044  29.098  1.00  0.00    -0.356 N 
ATOM     23  H3  UNL     1     185.273 130.875  29.637  1.00  0.00     0.166 HD
BRANCH  22  24
HETATM   24  C10 UNL     1     185.374 130.156  27.721  1.00  0.00     0.032 A 
HETATM   25  C11 UNL     1     186.441 130.563  26.924  1.00  0.00     0.029 A 
HETATM   26  C12 UNL     1     186.317 130.710  25.560  1.00  0.00     0.002 A 
HETATM   27  C13 UNL     1     185.121 130.460  24.924  1.00  0.00     0.000 A 
HETATM   28  C14 UNL     1     184.056 130.060  25.694  1.00  0.00     0.002 A 
HETATM   29  C15 UNL     1     184.197 129.914  27.074  1.00  0.00     0.029 A 
ENDBRANCH  22  24
ENDBRANCH  19  22
ENDBRANCH   1  16
TORSDOF 8
ENDMDL
MODEL 2
REMARK VINA RESULT: -8.030971981      2.847      8.634
REMARK  8 active torsions:
REMARK  status: ('A' for Active; 'I' for Inactive)
REMARK    1  A    between atoms: N1_1  and  C1_4 
REMARK    2  A    between atoms: C2_7  and  C3_8 
REMARK    3  A    between atoms: C3_8  and  C4_9 
REMARK    4  A    between atoms: C4_9  and  C5_10 
REMARK    5  A    between atoms: C5_10  and  O1_11 
REMARK    6  A    between atoms: O1_11  and  C6_12 
REMARK    7  A    between atoms: C9_15  and  N3_16 
REMARK    8  A    between atoms: N3_16  and  C10_18 
ROOT
HETATM    1  O1  UNL     1     186.242 130.437  29.270  1.00  0.00    -0.351 OA
ENDROOT
BRANCH   1   2
HETATM    2  C5  UNL     1     187.236 131.423  29.224  1.00  0.00     0.176 C 
BRANCH   2   3
HETATM    3  C4  UNL     1     188.216 131.089  28.128  1.00  0.00     0.034 C 
BRANCH   3   4
HETATM    4  C3  UNL     1     188.056 132.004  26.932  1.00  0.00     0.080 C 
BRANCH   4   5
HETATM    5  C2  UNL     1     186.678 131.825  26.421  1.00  0.00     0.112 A 
HETATM    6  N2  UNL     1     186.119 130.662  26.108  1.00  0.00    -0.178 N 
HETATM    7  C1  UNL     1     184.871 130.942  25.689  1.00  0.00     0.691 A 
ATOM      8  H2  UNL     1     186.549 129.740  26.172  1.00  0.00     0.185 HD
HETATM    9  N5  UNL     1     184.696 132.271  25.754  1.00  0.00    -0.131 N 
HETATM   10  N4  UNL     1     185.811 132.812  26.205  1.00  0.00    -0.274 N 
ATOM     11  H5  UNL     1     183.847 132.775  25.499  1.00  0.00     0.205 HD
ATOM     12  H4  UNL     1     185.978 133.806  26.360  1.00  0.00     0.189 HD
BRANCH   7  13
HETATM   13  N1  UNL     1     183.964 130.097  25.281  1.00  0.00    -0.233 N 
ATOM     14  H12 UNL     1     184.016 129.087  25.413  1.00  0.00     0.174 HD
ATOM     15  H11 UNL     1     183.097 130.310  24.788  1.00  0.00     0.174 HD
ENDBRANCH   7  13
ENDBRANCH   4   5
ENDBRANCH   3   4
ENDBRANCH   2   3
ENDBRANCH   1   2
BRANCH   1  16
HETATM   16  C6  UNL     1     186.306 129.316  30.086  1.00  0.00     0.068 A 
HETATM   17  C7  UNL     1     186.110 129.346  31.446  1.00  0.00     0.039 A 
HETATM   18  C8  UNL     1     186.188 128.195  32.200  1.00  0.00     0.032 A 
HETATM   19  C9  UNL     1     186.467 126.942  31.639  1.00  0.00     0.032 A 
HETATM   20  C16 UNL     1     186.660 126.920  30.281  1.00  0.00     0.032 A 
HETATM   21  C17 UNL     1     186.580 128.095  29.515  1.00  0.00     0.039 A 
BRANCH  19  22
HETATM   22  N3  UNL     1     186.502 125.794  32.472  1.00  0.00    -0.356 N 
ATOM     23  H3  UNL     1     185.965 125.858  33.337  1.00  0.00     0.166 HD
BRANCH  22  24
HETATM   24  C10 UNL     1     187.172 124.595  32.266  1.00  0.00     0.032 A 
HETATM   25  C11 UNL     1     186.510 123.490  31.738  1.00  0.00     0.029 A 
HETATM   26  C12 UNL     1     187.142 122.282  31.551  1.00  0.00     0.002 A 
HETATM   27  C13 UNL     1     188.469 122.115  31.884  1.00  0.00     0.000 A 
HETATM   28  C14 UNL     1     189.139 123.193  32.409  1.00  0.00     0.002 A 
HETATM   29  C15 UNL     1     188.485 124.411  32.592  1.00  0.00     0.029 A 
ENDBRANCH  22  24
ENDBRANCH  19  22
ENDBRANCH   1  16
TORSDOF 8
ENDMDL
MODEL 3
REMARK VINA RESULT: -8.024406872      0.116      1.390
REMARK  8 active torsions:
REMARK  status: ('A' for Active; 'I' for Inactive)
REMARK    1  A    between atoms: N1_1  and  C1_4 
REMARK    2  A    between atoms: C2_7  and  C3_8 
REMARK    3  A    between atoms: C3_8  and  C4_9 
REMARK    4  A    between atoms: C4_9  and  C5_10 
REMARK    5  A    between atoms: C5_10  and  O1_11 
REMARK    6  A    between atoms: O1_11  and  C6_12 
REMARK    7  A    between atoms: C9_15  and  N3_16 
REMARK    8  A    between atoms: N3_16  and  C10_18 
ROOT
HETATM    1  O1  UNL     1     187.301 125.558  31.949  1.00  0.00    -0.351 OA
ENDROOT
BRANCH   1   2
HETATM    2  C5  UNL     1     186.528 124.412  32.180  1.00  0.00     0.176 C 
BRANCH   2   3
HETATM    3  C4  UNL     1     186.948 123.328  31.219  1.00  0.00     0.034 C 
BRANCH   3   4
HETATM    4  C3  UNL     1     187.818 122.286  31.891  1.00  0.00     0.080 C 
BRANCH   4   5
HETATM    5  C2  UNL     1     189.212 122.528  31.457  1.00  0.00     0.112 A 
HETATM    6  N2  UNL     1     189.778 123.721  31.318  1.00  0.00    -0.178 N 
HETATM    7  C1  UNL     1     191.040 123.497  30.910  1.00  0.00     0.691 A 
ATOM      8  H2  UNL     1     189.343 124.628  31.487  1.00  0.00     0.185 HD
HETATM    9  N5  UNL     1     191.218 122.171  30.808  1.00  0.00    -0.131 N 
HETATM   10  N4  UNL     1     190.090 121.576  31.145  1.00  0.00    -0.274 N 
ATOM     11  H5  UNL     1     192.077 121.702  30.519  1.00  0.00     0.205 HD
ATOM     12  H4  UNL     1     189.920 120.571  31.163  1.00  0.00     0.189 HD
BRANCH   7  13
HETATM   13  N1  UNL     1     191.959 124.386  30.648  1.00  0.00    -0.233 N 
ATOM     14  H12 UNL     1     192.391 124.517  29.734  1.00  0.00     0.174 HD
ATOM     15  H11 UNL     1     192.368 125.062  31.293  1.00  0.00     0.174 HD
ENDBRANCH   7  13
ENDBRANCH   4   5
ENDBRANCH   3   4
ENDBRANCH   2   3
ENDBRANCH   1   2
BRANCH   1  16
HETATM   16  C6  UNL     1     186.843 126.670  31.259  1.00  0.00     0.068 A 
HETATM   17  C7  UNL     1     186.486 127.853  31.861  1.00  0.00     0.039 A 
HETATM   18  C8  UNL     1     186.038 128.922  31.117  1.00  0.00     0.032 A 
HETATM   19  C9  UNL     1     185.917 128.873  29.721  1.00  0.00     0.032 A 
HETATM   20  C16 UNL     1     186.276 127.690  29.128  1.00  0.00     0.032 A 
HETATM   21  C17 UNL     1     186.733 126.602  29.889  1.00  0.00     0.039 A 
BRANCH  19  22
HETATM   22  N3  UNL     1     185.476 130.023  29.017  1.00  0.00    -0.356 N 
ATOM     23  H3  UNL     1     185.178 130.809  29.594  1.00  0.00     0.166 HD
BRANCH  22  24
HETATM   24  C10 UNL     1     185.396 130.219  27.644  1.00  0.00     0.032 A 
HETATM   25  C11 UNL     1     184.222 129.938  26.950  1.00  0.00     0.029 A 
HETATM   26  C12 UNL     1     184.126 130.095  25.586  1.00  0.00     0.002 A 
HETATM   27  C13 UNL     1     185.198 130.540  24.845  1.00  0.00     0.000 A 
HETATM   28  C14 UNL     1     186.367 130.821  25.510  1.00  0.00     0.002 A 
HETATM   29  C15 UNL     1     186.449 130.657  26.893  1.00  0.00     0.029 A 
ENDBRANCH  22  24
ENDBRANCH  19  22
ENDBRANCH   1  16
TORSDOF 8
ENDMDL
MODEL 4
REMARK VINA RESULT: -8.020979387      1.519      2.028
REMARK  8 active torsions:
REMARK  status: ('A' for Active; 'I' for Inactive)
REMARK    1  A    between atoms: N1_1  and  C1_4 
REMARK    2  A    between atoms: C2_7  and  C3_8 
REMARK    3  A    between atoms: C3_8  and  C4_9 
REMARK    4  A    between atoms: C4_9  and  C5_10 
REMARK    5  A    between atoms: C5_10  and  O1_11 
REMARK    6  A    between atoms: O1_11  and  C6_12 
REMARK    7  A    between atoms: C9_15  and  N3_16 
REMARK    8  A    between atoms: N3_16  and  C10_18 
ROOT
HETATM    1  O1  UNL     1     186.927 125.675  32.083  1.00  0.00    -0.351 OA
ENDROOT
BRANCH   1   2
HETATM    2  C5  UNL     1     186.663 124.353  31.702  1.00  0.00     0.176 C 
BRANCH   2   3
HETATM    3  C4  UNL     1     187.942 123.706  31.236  1.00  0.00     0.034 C 
BRANCH   3   4
HETATM    4  C3  UNL     1     188.535 122.802  32.297  1.00  0.00     0.080 C 
BRANCH   4   5
HETATM    5  C2  UNL     1     189.599 123.568  32.985  1.00  0.00     0.112 A 
HETATM    6  N2  UNL     1     190.816 123.114  33.262  1.00  0.00    -0.178 N 
HETATM    7  C1  UNL     1     191.461 124.117  33.886  1.00  0.00     0.691 A 
ATOM      8  H2  UNL     1     191.188 122.190  33.046  1.00  0.00     0.185 HD
HETATM    9  N5  UNL     1     190.624 125.162  33.976  1.00  0.00    -0.131 N 
HETATM   10  N4  UNL     1     189.477 124.820  33.420  1.00  0.00    -0.274 N 
ATOM     11  H5  UNL     1     190.837 126.064  34.401  1.00  0.00     0.205 HD
ATOM     12  H4  UNL     1     188.648 125.408  33.340  1.00  0.00     0.189 HD
BRANCH   7  13
HETATM   13  N1  UNL     1     192.685 124.111  34.338  1.00  0.00    -0.233 N 
ATOM     14  H12 UNL     1     193.440 123.546  33.952  1.00  0.00     0.174 HD
ATOM     15  H11 UNL     1     193.060 124.652  35.118  1.00  0.00     0.174 HD
ENDBRANCH   7  13
ENDBRANCH   4   5
ENDBRANCH   3   4
ENDBRANCH   2   3
ENDBRANCH   1   2
BRANCH   1  16
HETATM   16  C6  UNL     1     186.597 126.780  31.311  1.00  0.00     0.068 A 
HETATM   17  C7  UNL     1     186.569 126.773  29.937  1.00  0.00     0.039 A 
HETATM   18  C8  UNL     1     186.234 127.906  29.228  1.00  0.00     0.032 A 
HETATM   19  C9  UNL     1     185.906 129.118  29.851  1.00  0.00     0.032 A 
HETATM   20  C16 UNL     1     185.935 129.116  31.223  1.00  0.00     0.032 A 
HETATM   21  C17 UNL     1     186.278 127.959  31.942  1.00  0.00     0.039 A 
BRANCH  19  22
HETATM   22  N3  UNL     1     185.542 130.236  29.059  1.00  0.00    -0.356 N 
ATOM     23  H3  UNL     1     185.346 131.097  29.570  1.00  0.00     0.166 HD
BRANCH  22  24
HETATM   24  C10 UNL     1     185.417 130.314  27.677  1.00  0.00     0.032 A 
HETATM   25  C11 UNL     1     184.229 129.953  27.047  1.00  0.00     0.029 A 
HETATM   26  C12 UNL     1     184.088 129.993  25.678  1.00  0.00     0.002 A 
HETATM   27  C13 UNL     1     185.128 130.395  24.869  1.00  0.00     0.000 A 
HETATM   28  C14 UNL     1     186.309 130.753  25.471  1.00  0.00     0.002 A 
HETATM   29  C15 UNL     1     186.436 130.708  26.860  1.00  0.00     0.029 A 
ENDBRANCH  22  24
ENDBRANCH  19  22
ENDBRANCH   1  16
TORSDOF 8
ENDMDL
MODEL 5
REMARK VINA RESULT: -8.005298181      2.829      8.236
REMARK  8 active torsions:
REMARK  status: ('A' for Active; 'I' for Inactive)
REMARK    1  A    between atoms: N1_1  and  C1_4 
REMARK    2  A    between atoms: C2_7  and  C3_8 
REMARK    3  A    between atoms: C3_8  and  C4_9 
REMARK    4  A    between atoms: C4_9  and  C5_10 
REMARK    5  A    between atoms: C5_10  and  O1_11 
REMARK    6  A    between atoms: O1_11  and  C6_12 
REMARK    7  A    between atoms: C9_15  and  N3_16 
REMARK    8  A    between atoms: N3_16  and  C10_18 
ROOT
HETATM    1  O1  UNL     1     186.736 131.116  29.897  1.00  0.00    -0.351 OA
ENDROOT
BRANCH   1   2
HETATM    2  C5  UNL     1     187.780 132.051  29.874  1.00  0.00     0.176 C 
BRANCH   2   3
HETATM    3  C4  UNL     1     187.731 132.816  28.575  1.00  0.00     0.034 C 
BRANCH   3   4
HETATM    4  C3  UNL     1     188.194 131.972  27.406  1.00  0.00     0.080 C 
BRANCH   4   5
HETATM    5  C2  UNL     1     187.021 131.748  26.532  1.00  0.00     0.112 A 
HETATM    6  N2  UNL     1     185.839 131.294  26.931  1.00  0.00    -0.178 N 
HETATM    7  C1  UNL     1     185.063 131.238  25.833  1.00  0.00     0.691 A 
ATOM      8  H2  UNL     1     185.572 131.037  27.882  1.00  0.00     0.185 HD
HETATM    9  N5  UNL     1     185.789 131.659  24.786  1.00  0.00    -0.131 N 
HETATM   10  N4  UNL     1     186.994 131.972  25.219  1.00  0.00    -0.274 N 
ATOM     11  H5  UNL     1     185.464 131.725  23.822  1.00  0.00     0.205 HD
ATOM     12  H4  UNL     1     187.766 132.322  24.652  1.00  0.00     0.189 HD
BRANCH   7  13
HETATM   13  N1  UNL     1     183.820 130.847  25.761  1.00  0.00    -0.233 N 
ATOM     14  H12 UNL     1     183.041 131.449  25.495  1.00  0.00     0.174 HD
ATOM     15  H11 UNL     1     183.452 129.915  25.951  1.00  0.00     0.174 HD
ENDBRANCH   7  13
ENDBRANCH   4   5
ENDBRANCH   3   4
ENDBRANCH   2   3
ENDBRANCH   1   2
BRANCH   1  16
HETATM   16  C6  UNL     1     186.900 129.786  30.256  1.00  0.00     0.068 A 
HETATM   17  C7  UNL     1     187.823 128.945  29.680  1.00  0.00     0.039 A 
HETATM   18  C8  UNL     1     187.936 127.632  30.083  1.00  0.00     0.032 A 
HETATM   19  C9  UNL     1     187.131 127.078  31.087  1.00  0.00     0.032 A 
HETATM   20  C16 UNL     1     186.213 127.923  31.657  1.00  0.00     0.032 A 
HETATM   21  C17 UNL     1     186.101 129.261  31.245  1.00  0.00     0.039 A 
BRANCH  19  22
HETATM   22  N3  UNL     1     187.323 125.726  31.471  1.00  0.00    -0.356 N 
ATOM     23  H3  UNL     1     188.049 125.562  32.168  1.00  0.00     0.166 HD
BRANCH  22  24
HETATM   24  C10 UNL     1     186.652 124.595  31.023  1.00  0.00     0.032 A 
HETATM   25  C11 UNL     1     186.530 123.470  31.834  1.00  0.00     0.029 A 
HETATM   26  C12 UNL     1     185.896 122.327  31.404  1.00  0.00     0.002 A 
HETATM   27  C13 UNL     1     185.352 122.248  30.141  1.00  0.00     0.000 A 
HETATM   28  C14 UNL     1     185.463 123.347  29.324  1.00  0.00     0.002 A 
HETATM   29  C15 UNL     1     186.108 124.499  29.774  1.00  0.00     0.029 A 
ENDBRANCH  22  24
ENDBRANCH  19  22
ENDBRANCH   1  16
TORSDOF 8
ENDMDL
