MODEL 1
REMARK VINA RESULT: -7.736210284      0.000      0.000
REMARK  9 active torsions:
REMARK  status: ('A' for Active; 'I' for Inactive)
REMARK    1  A    between atoms: O1_1  and  C1_3 
REMARK    2  A    between atoms: C4_6  and  C5_7 
REMARK    3  A    between atoms: C5_7  and  N1_8 
REMARK    4  A    between atoms: N1_8  and  C6_11 
REMARK    5  A    between atoms: C6_11  and  C7_12 
REMARK    6  A    between atoms: C7_12  and  C8_13 
REMARK    7  A    between atoms: C8_13  and  C9_14 
REMARK    8  A    between atoms: C9_14  and  N2_15 
REMARK    9  A    between atoms: N2_15  and  C10_17 
ROOT
HETATM    1  C8  UNL     1     186.240 127.544  32.363  1.00  0.00     0.021 C 
ENDROOT
BRANCH   1   2
HETATM    2  C7  UNL     1     186.251 128.152  30.974  1.00  0.00     0.029 C 
BRANCH   2   3
HETATM    3  C6  UNL     1     186.021 129.625  31.099  1.00  0.00     0.232 C 
BRANCH   3   4
HETATM    4  N1  UNL     1     185.689 130.238  29.822  1.00  0.00    -0.071 N 
ATOM      5  H12 UNL     1     184.996 130.982  29.900  1.00  0.00     0.277 HD
ATOM      6  H11 UNL     1     185.151 129.627  29.208  1.00  0.00     0.277 HD
BRANCH   4   7
HETATM    7  C5  UNL     1     186.940 130.679  29.238  1.00  0.00     0.270 C 
BRANCH   7   8
HETATM    8  C4  UNL     1     187.152 130.007  27.906  1.00  0.00    -0.033 A 
HETATM    9  C3  UNL     1     186.198 129.171  27.366  1.00  0.00     0.011 A 
HETATM   10  C2  UNL     1     186.387 128.550  26.140  1.00  0.00     0.037 A 
HETATM   11  C1  UNL     1     187.544 128.752  25.417  1.00  0.00     0.065 A 
HETATM   12  C18 UNL     1     188.494 129.591  25.967  1.00  0.00     0.037 A 
HETATM   13  C17 UNL     1     188.307 130.209  27.186  1.00  0.00     0.011 A 
BRANCH  11  14
HETATM   14  O1  UNL     1     187.747 128.132  24.180  1.00  0.00    -0.361 OA
ATOM     15  H1  UNL     1     188.566 128.228  23.707  1.00  0.00     0.217 HD
ENDBRANCH  11  14
ENDBRANCH   7   8
ENDBRANCH   4   7
ENDBRANCH   3   4
ENDBRANCH   2   3
ENDBRANCH   1   2
BRANCH   1  16
HETATM   16  C9  UNL     1     187.575 126.993  32.757  1.00  0.00     0.120 C 
BRANCH  16  17
HETATM   17  N2  UNL     1     188.206 126.146  31.801  1.00  0.00    -0.389 N 
ATOM     18  H2  UNL     1     188.618 126.581  30.976  1.00  0.00     0.159 HD
BRANCH  17  19
HETATM   19  C10 UNL     1     188.296 124.754  31.922  1.00  0.00     0.042 A 
HETATM   20  C11 UNL     1     189.261 124.168  32.688  1.00  0.00     0.030 A 
HETATM   21  C12 UNL     1     189.338 122.783  32.822  1.00  0.00     0.005 A 
HETATM   22  C13 UNL     1     188.406 122.010  32.159  1.00  0.00     0.032 A 
HETATM   23  C14 UNL     1     187.430 122.598  31.387  1.00  0.00     0.061 A 
HETATM   24  N3  UNL     1     186.425 122.103  30.651  1.00  0.00    -0.300 N 
HETATM   25  C16 UNL     1     187.361 123.964  31.257  1.00  0.00     0.035 A 
HETATM   26  N4  UNL     1     185.758 123.094  30.090  1.00  0.00    -0.310 N 
ATOM     27  H3  UNL     1     186.208 121.112  30.541  1.00  0.00     0.187 HD
HETATM   28  C15 UNL     1     186.303 124.274  30.438  1.00  0.00     0.123 A 
ATOM     29  H4  UNL     1     184.947 122.982  29.482  1.00  0.00     0.186 HD
ENDBRANCH  17  19
ENDBRANCH  16  17
ENDBRANCH   1  16
TORSDOF 9
ENDMDL
MODEL 2
REMARK VINA RESULT: -7.713982915      3.615      7.242
REMARK  9 active torsions:
REMARK  status: ('A' for Active; 'I' for Inactive)
REMARK    1  A    between atoms: O1_1  and  C1_3 
REMARK    2  A    between atoms: C4_6  and  C5_7 
REMARK    3  A    between atoms: C5_7  and  N1_8 
REMARK    4  A    between atoms: N1_8  and  C6_11 
REMARK    5  A    between atoms: C6_11  and  C7_12 
REMARK    6  A    between atoms: C7_12  and  C8_13 
REMARK    7  A    between atoms: C8_13  and  C9_14 
REMARK    8  A    between atoms: C9_14  and  N2_15 
REMARK    9  A    between atoms: N2_15  and  C10_17 
ROOT
HETATM    1  C8  UNL     1     189.367 131.698  28.844  1.00  0.00     0.021 C 
ENDROOT
BRANCH   1   2
HETATM    2  C7  UNL     1     188.597 130.904  29.880  1.00  0.00     0.029 C 
BRANCH   2   3
HETATM    3  C6  UNL     1     187.233 131.502  30.019  1.00  0.00     0.232 C 
BRANCH   3   4
HETATM    4  N1  UNL     1     186.179 130.528  29.774  1.00  0.00    -0.071 N 
ATOM      5  H12 UNL     1     186.449 129.801  29.112  1.00  0.00     0.277 HD
ATOM      6  H11 UNL     1     185.399 130.905  29.238  1.00  0.00     0.277 HD
BRANCH   4   7
HETATM    7  C5  UNL     1     185.787 130.009  31.069  1.00  0.00     0.270 C 
BRANCH   7   8
HETATM    8  C4  UNL     1     186.130 128.545  31.162  1.00  0.00    -0.033 A 
HETATM    9  C3  UNL     1     186.245 127.912  32.382  1.00  0.00     0.011 A 
HETATM   10  C2  UNL     1     186.560 126.565  32.474  1.00  0.00     0.037 A 
HETATM   11  C1  UNL     1     186.769 125.810  31.339  1.00  0.00     0.065 A 
HETATM   12  C18 UNL     1     186.651 126.452  30.122  1.00  0.00     0.037 A 
HETATM   13  C17 UNL     1     186.338 127.792  30.029  1.00  0.00     0.011 A 
BRANCH  11  14
HETATM   14  O1  UNL     1     187.086 124.450  31.418  1.00  0.00    -0.361 OA
ATOM     15  H1  UNL     1     187.735 124.128  32.034  1.00  0.00     0.217 HD
ENDBRANCH  11  14
ENDBRANCH   7   8
ENDBRANCH   4   7
ENDBRANCH   3   4
ENDBRANCH   2   3
ENDBRANCH   1   2
BRANCH   1  16
HETATM   16  C9  UNL     1     189.841 130.847  27.707  1.00  0.00     0.120 C 
BRANCH  16  17
HETATM   17  N2  UNL     1     189.048 130.890  26.524  1.00  0.00    -0.389 N 
ATOM     18  H2  UNL     1     189.447 131.336  25.698  1.00  0.00     0.159 HD
BRANCH  17  19
HETATM   19  C10 UNL     1     187.757 130.360  26.424  1.00  0.00     0.042 A 
HETATM   20  C11 UNL     1     187.538 129.013  26.447  1.00  0.00     0.030 A 
HETATM   21  C12 UNL     1     186.250 128.487  26.366  1.00  0.00     0.005 A 
HETATM   22  C13 UNL     1     185.191 129.366  26.262  1.00  0.00     0.032 A 
HETATM   23  C14 UNL     1     185.408 130.725  26.238  1.00  0.00     0.061 A 
HETATM   24  N3  UNL     1     184.587 131.781  26.145  1.00  0.00    -0.300 N 
HETATM   25  C16 UNL     1     186.681 131.238  26.318  1.00  0.00     0.035 A 
HETATM   26  N4  UNL     1     185.295 132.895  26.166  1.00  0.00    -0.310 N 
ATOM     27  H3  UNL     1     183.571 131.731  26.071  1.00  0.00     0.187 HD
HETATM   28  C15 UNL     1     186.606 132.608  26.272  1.00  0.00     0.123 A 
ATOM     29  H4  UNL     1     184.906 133.836  26.110  1.00  0.00     0.186 HD
ENDBRANCH  17  19
ENDBRANCH  16  17
ENDBRANCH   1  16
TORSDOF 9
ENDMDL
MODEL 3
REMARK VINA RESULT: -7.711421135      1.233      2.013
REMARK  9 active torsions:
REMARK  status: ('A' for Active; 'I' for Inactive)
REMARK    1  A    between atoms: O1_1  and  C1_3 
REMARK    2  A    between atoms: C4_6  and  C5_7 
REMARK    3  A    between atoms: C5_7  and  N1_8 
REMARK    4  A    between atoms: N1_8  and  C6_11 
REMARK    5  A    between atoms: C6_11  and  C7_12 
REMARK    6  A    between atoms: C7_12  and  C8_13 
REMARK    7  A    between atoms: C8_13  and  C9_14 
REMARK    8  A    between atoms: C9_14  and  N2_15 
REMARK    9  A    between atoms: N2_15  and  C10_17 
ROOT
HETATM    1  C8  UNL     1     186.570 127.889  30.704  1.00  0.00     0.021 C 
ENDROOT
BRANCH   1   2
HETATM    2  C7  UNL     1     185.871 129.010  31.447  1.00  0.00     0.029 C 
BRANCH   2   3
HETATM    3  C6  UNL     1     186.466 130.311  31.012  1.00  0.00     0.232 C 
BRANCH   3   4
HETATM    4  N1  UNL     1     185.998 130.716  29.695  1.00  0.00    -0.071 N 
ATOM      5  H12 UNL     1     185.257 131.415  29.727  1.00  0.00     0.277 HD
ATOM      6  H11 UNL     1     185.466 129.990  29.215  1.00  0.00     0.277 HD
BRANCH   4   7
HETATM    7  C5  UNL     1     187.167 131.152  28.958  1.00  0.00     0.270 C 
BRANCH   7   8
HETATM    8  C4  UNL     1     187.324 130.328  27.706  1.00  0.00    -0.033 A 
HETATM    9  C3  UNL     1     186.335 129.463  27.289  1.00  0.00     0.011 A 
HETATM   10  C2  UNL     1     186.473 128.702  26.138  1.00  0.00     0.037 A 
HETATM   11  C1  UNL     1     187.615 128.788  25.368  1.00  0.00     0.065 A 
HETATM   12  C18 UNL     1     188.600 129.657  25.794  1.00  0.00     0.037 A 
HETATM   13  C17 UNL     1     188.463 130.414  26.939  1.00  0.00     0.011 A 
BRANCH  11  14
HETATM   14  O1  UNL     1     187.767 128.026  24.205  1.00  0.00    -0.361 OA
ATOM     15  H1  UNL     1     188.055 127.122  24.240  1.00  0.00     0.217 HD
ENDBRANCH  11  14
ENDBRANCH   7   8
ENDBRANCH   4   7
ENDBRANCH   3   4
ENDBRANCH   2   3
ENDBRANCH   1   2
BRANCH   1  16
HETATM   16  C9  UNL     1     187.270 126.939  31.626  1.00  0.00     0.120 C 
BRANCH  16  17
HETATM   17  N2  UNL     1     187.921 125.834  31.006  1.00  0.00    -0.389 N 
ATOM     18  H2  UNL     1     188.780 126.015  30.488  1.00  0.00     0.159 HD
BRANCH  17  19
HETATM   19  C10 UNL     1     187.455 124.516  31.064  1.00  0.00     0.042 A 
HETATM   20  C11 UNL     1     186.312 124.137  30.423  1.00  0.00     0.030 A 
HETATM   21  C12 UNL     1     185.860 122.819  30.466  1.00  0.00     0.005 A 
HETATM   22  C13 UNL     1     186.602 121.897  31.178  1.00  0.00     0.032 A 
HETATM   23  C14 UNL     1     187.756 122.276  31.824  1.00  0.00     0.061 A 
HETATM   24  N3  UNL     1     188.648 121.607  32.569  1.00  0.00    -0.300 N 
HETATM   25  C16 UNL     1     188.196 123.577  31.778  1.00  0.00     0.035 A 
HETATM   26  N4  UNL     1     189.596 122.433  32.970  1.00  0.00    -0.310 N 
ATOM     27  H3  UNL     1     188.601 120.613  32.791  1.00  0.00     0.187 HD
HETATM   28  C15 UNL     1     189.358 123.673  32.503  1.00  0.00     0.123 A 
ATOM     29  H4  UNL     1     190.394 122.170  33.549  1.00  0.00     0.186 HD
ENDBRANCH  17  19
ENDBRANCH  16  17
ENDBRANCH   1  16
TORSDOF 9
ENDMDL
MODEL 4
REMARK VINA RESULT: -7.701591941      2.759      7.510
REMARK  9 active torsions:
REMARK  status: ('A' for Active; 'I' for Inactive)
REMARK    1  A    between atoms: O1_1  and  C1_3 
REMARK    2  A    between atoms: C4_6  and  C5_7 
REMARK    3  A    between atoms: C5_7  and  N1_8 
REMARK    4  A    between atoms: N1_8  and  C6_11 
REMARK    5  A    between atoms: C6_11  and  C7_12 
REMARK    6  A    between atoms: C7_12  and  C8_13 
REMARK    7  A    between atoms: C8_13  and  C9_14 
REMARK    8  A    between atoms: C9_14  and  N2_15 
REMARK    9  A    between atoms: N2_15  and  C10_17 
ROOT
HETATM    1  C8  UNL     1     186.153 128.738  30.573  1.00  0.00     0.021 C 
ENDROOT
BRANCH   1   2
HETATM    2  C7  UNL     1     186.203 127.992  31.892  1.00  0.00     0.029 C 
BRANCH   2   3
HETATM    3  C6  UNL     1     187.636 127.767  32.256  1.00  0.00     0.232 C 
BRANCH   3   4
HETATM    4  N1  UNL     1     187.862 126.437  32.801  1.00  0.00    -0.071 N 
ATOM      5  H12 UNL     1     187.013 125.997  33.154  1.00  0.00     0.277 HD
ATOM      6  H11 UNL     1     188.377 126.444  33.680  1.00  0.00     0.277 HD
BRANCH   4   7
HETATM    7  C5  UNL     1     188.515 125.670  31.759  1.00  0.00     0.270 C 
BRANCH   7   8
HETATM    8  C4  UNL     1     187.645 124.510  31.351  1.00  0.00    -0.033 A 
HETATM    9  C3  UNL     1     186.673 124.648  30.384  1.00  0.00     0.011 A 
HETATM   10  C2  UNL     1     185.869 123.584  30.004  1.00  0.00     0.037 A 
HETATM   11  C1  UNL     1     186.019 122.343  30.587  1.00  0.00     0.065 A 
HETATM   12  C18 UNL     1     186.995 122.213  31.555  1.00  0.00     0.037 A 
HETATM   13  C17 UNL     1     187.795 123.272  31.934  1.00  0.00     0.011 A 
BRANCH  11  14
HETATM   14  O1  UNL     1     185.215 121.261  30.213  1.00  0.00    -0.361 OA
ATOM     15  H1  UNL     1     185.547 120.371  30.225  1.00  0.00     0.217 HD
ENDBRANCH  11  14
ENDBRANCH   7   8
ENDBRANCH   4   7
ENDBRANCH   3   4
ENDBRANCH   2   3
ENDBRANCH   1   2
BRANCH   1  16
HETATM   16  C9  UNL     1     187.201 128.271  29.611  1.00  0.00     0.120 C 
BRANCH  16  17
HETATM   17  N2  UNL     1     186.850 128.327  28.232  1.00  0.00    -0.389 N 
ATOM     18  H2  UNL     1     186.472 127.484  27.801  1.00  0.00     0.159 HD
BRANCH  17  19
HETATM   19  C10 UNL     1     186.989 129.466  27.431  1.00  0.00     0.042 A 
HETATM   20  C11 UNL     1     188.210 129.865  26.969  1.00  0.00     0.030 A 
HETATM   21  C12 UNL     1     188.345 130.990  26.157  1.00  0.00     0.005 A 
HETATM   22  C13 UNL     1     187.206 131.697  25.826  1.00  0.00     0.032 A 
HETATM   23  C14 UNL     1     185.974 131.297  26.290  1.00  0.00     0.061 A 
HETATM   24  N3  UNL     1     184.735 131.784  26.130  1.00  0.00    -0.300 N 
HETATM   25  C16 UNL     1     185.847 130.188  27.091  1.00  0.00     0.035 A 
HETATM   26  N4  UNL     1     183.875 131.029  26.790  1.00  0.00    -0.310 N 
ATOM     27  H3  UNL     1     184.493 132.611  25.584  1.00  0.00     0.187 HD
HETATM   28  C15 UNL     1     184.521 130.022  27.405  1.00  0.00     0.123 A 
ATOM     29  H4  UNL     1     182.868 131.187  26.827  1.00  0.00     0.186 HD
ENDBRANCH  17  19
ENDBRANCH  16  17
ENDBRANCH   1  16
TORSDOF 9
ENDMDL
MODEL 5
REMARK VINA RESULT: -7.656847582      1.546      2.413
REMARK  9 active torsions:
REMARK  status: ('A' for Active; 'I' for Inactive)
REMARK    1  A    between atoms: O1_1  and  C1_3 
REMARK    2  A    between atoms: C4_6  and  C5_7 
REMARK    3  A    between atoms: C5_7  and  N1_8 
REMARK    4  A    between atoms: N1_8  and  C6_11 
REMARK    5  A    between atoms: C6_11  and  C7_12 
REMARK    6  A    between atoms: C7_12  and  C8_13 
REMARK    7  A    between atoms: C8_13  and  C9_14 
REMARK    8  A    between atoms: C9_14  and  N2_15 
REMARK    9  A    between atoms: N2_15  and  C10_17 
ROOT
HETATM    1  C8  UNL     1     186.589 127.215  32.794  1.00  0.00     0.021 C 
ENDROOT
BRANCH   1   2
HETATM    2  C7  UNL     1     186.117 128.173  31.717  1.00  0.00     0.029 C 
BRANCH   2   3
HETATM    3  C6  UNL     1     187.107 129.289  31.608  1.00  0.00     0.232 C 
BRANCH   3   4
HETATM    4  N1  UNL     1     187.145 129.861  30.271  1.00  0.00    -0.071 N 
ATOM      5  H12 UNL     1     187.891 129.480  29.690  1.00  0.00     0.277 HD
ATOM      6  H11 UNL     1     187.454 130.832  30.256  1.00  0.00     0.277 HD
BRANCH   4   7
HETATM    7  C5  UNL     1     185.824 129.671  29.704  1.00  0.00     0.270 C 
BRANCH   7   8
HETATM    8  C4  UNL     1     185.889 129.775  28.203  1.00  0.00    -0.033 A 
HETATM    9  C3  UNL     1     187.096 129.840  27.540  1.00  0.00     0.011 A 
HETATM   10  C2  UNL     1     187.161 129.935  26.158  1.00  0.00     0.037 A 
HETATM   11  C1  UNL     1     186.011 129.969  25.397  1.00  0.00     0.065 A 
HETATM   12  C18 UNL     1     184.806 129.904  26.070  1.00  0.00     0.037 A 
HETATM   13  C17 UNL     1     184.740 129.809  27.445  1.00  0.00     0.011 A 
BRANCH  11  14
HETATM   14  O1  UNL     1     186.063 130.066  24.003  1.00  0.00    -0.361 OA
ATOM     15  H1  UNL     1     186.573 129.455  23.483  1.00  0.00     0.217 HD
ENDBRANCH  11  14
ENDBRANCH   7   8
ENDBRANCH   4   7
ENDBRANCH   3   4
ENDBRANCH   2   3
ENDBRANCH   1   2
BRANCH   1  16
HETATM   16  C9  UNL     1     188.010 126.787  32.597  1.00  0.00     0.120 C 
BRANCH  16  17
HETATM   17  N2  UNL     1     188.252 125.925  31.489  1.00  0.00    -0.389 N 
ATOM     18  H2  UNL     1     188.890 126.250  30.762  1.00  0.00     0.159 HD
BRANCH  17  19
HETATM   19  C10 UNL     1     187.672 124.661  31.335  1.00  0.00     0.042 A 
HETATM   20  C11 UNL     1     186.537 124.485  30.599  1.00  0.00     0.030 A 
HETATM   21  C12 UNL     1     185.970 123.222  30.431  1.00  0.00     0.005 A 
HETATM   22  C13 UNL     1     186.589 122.144  31.032  1.00  0.00     0.032 A 
HETATM   23  C14 UNL     1     187.735 122.318  31.774  1.00  0.00     0.061 A 
HETATM   24  N3  UNL     1     188.523 121.471  32.451  1.00  0.00    -0.300 N 
HETATM   25  C16 UNL     1     188.288 123.566  31.936  1.00  0.00     0.035 A 
HETATM   26  N4  UNL     1     189.516 122.140  33.007  1.00  0.00    -0.310 N 
ATOM     27  H3  UNL     1     188.378 120.464  32.525  1.00  0.00     0.187 HD
HETATM   28  C15 UNL     1     189.413 123.449  32.715  1.00  0.00     0.123 A 
ATOM     29  H4  UNL     1     190.254 121.724  33.575  1.00  0.00     0.186 HD
ENDBRANCH  17  19
ENDBRANCH  16  17
ENDBRANCH   1  16
TORSDOF 9
ENDMDL
