MODEL 1
REMARK VINA RESULT: -7.763734603      0.000      0.000
REMARK  8 active torsions:
REMARK  status: ('A' for Active; 'I' for Inactive)
REMARK    1  A    between atoms: C5_5  and  N1_6 
REMARK    2  A    between atoms: N1_6  and  C6_8 
REMARK    3  A    between atoms: C6_8  and  C7_9 
REMARK    4  A    between atoms: C7_9  and  N2_10 
REMARK    5  A    between atoms: N2_10  and  C8_13 
REMARK    6  A    between atoms: C8_13  and  C9_14 
REMARK    7  A    between atoms: C9_14  and  C10_15 
REMARK    8  A    between atoms: C10_15  and  C11_16 
ROOT
HETATM    1  C7  UNL     1     186.759 122.206  31.018  1.00  0.00     0.251 C 
ENDROOT
BRANCH   1   2
HETATM    2  C6  UNL     1     186.123 123.383  30.367  1.00  0.00     0.147 C 
BRANCH   2   3
HETATM    3  N1  UNL     1     186.914 124.605  30.425  1.00  0.00    -0.388 N 
ATOM      4  H1  UNL     1     187.690 124.701  29.770  1.00  0.00     0.159 HD
BRANCH   3   5
HETATM    5  C5  UNL     1     186.678 125.658  31.321  1.00  0.00     0.039 A 
HETATM    6  C4  UNL     1     186.434 126.948  30.852  1.00  0.00     0.001 A 
HETATM    7  C3  UNL     1     186.444 127.248  29.511  1.00  0.00     0.014 A 
HETATM    8  C17 UNL     1     186.169 127.981  31.752  1.00  0.00    -0.024 A 
HETATM    9  C2  UNL     1     186.202 128.538  29.041  1.00  0.00     0.001 A 
HETATM   10  C1  UNL     1     185.947 129.515  29.967  1.00  0.00     0.001 A 
HETATM   11  C18 UNL     1     185.925 129.268  31.309  1.00  0.00     0.012 A 
HETATM   12  C16 UNL     1     186.156 127.699  33.111  1.00  0.00     0.012 A 
HETATM   13  C15 UNL     1     186.397 126.430  33.565  1.00  0.00     0.003 A 
HETATM   14  C14 UNL     1     186.658 125.400  32.696  1.00  0.00     0.030 A 
ENDBRANCH   3   5
ENDBRANCH   2   3
ENDBRANCH   1   2
BRANCH   1  15
HETATM   15  N2  UNL     1     188.185 122.377  31.207  1.00  0.00    -0.074 N 
ATOM     16  H22 UNL     1     188.709 121.966  30.435  1.00  0.00     0.277 HD
ATOM     17  H21 UNL     1     188.457 123.353  31.088  1.00  0.00     0.277 HD
BRANCH  15  18
HETATM   18  C8  UNL     1     188.642 121.863  32.473  1.00  0.00     0.232 C 
BRANCH  18  19
HETATM   19  C9  UNL     1     189.844 122.561  33.006  1.00  0.00     0.033 C 
BRANCH  19  20
HETATM   20  C10 UNL     1     189.678 124.039  33.177  1.00  0.00     0.060 C 
BRANCH  20  21
HETATM   21  C11 UNL     1     190.964 124.626  33.639  1.00  0.00     0.025 A 
HETATM   22  C12 UNL     1     192.103 123.959  34.058  1.00  0.00     0.113 A 
HETATM   23  N3  UNL     1     193.049 124.856  34.394  1.00  0.00    -0.360 N 
HETATM   24  C13 UNL     1     192.534 126.074  34.195  1.00  0.00     0.180 A 
ATOM     25  H3  UNL     1     193.987 124.645  34.737  1.00  0.00     0.166 HD
HETATM   26  N4  UNL     1     191.267 125.945  33.736  1.00  0.00    -0.355 N 
ATOM     27  H4  UNL     1     190.641 126.715  33.500  1.00  0.00     0.166 HD
ENDBRANCH  20  21
ENDBRANCH  19  20
ENDBRANCH  18  19
ENDBRANCH  15  18
ENDBRANCH   1  15
TORSDOF 8
ENDMDL
MODEL 2
REMARK VINA RESULT: -7.704689457      1.493      1.554
REMARK  8 active torsions:
REMARK  status: ('A' for Active; 'I' for Inactive)
REMARK    1  A    between atoms: C5_5  and  N1_6 
REMARK    2  A    between atoms: N1_6  and  C6_8 
REMARK    3  A    between atoms: C6_8  and  C7_9 
REMARK    4  A    between atoms: C7_9  and  N2_10 
REMARK    5  A    between atoms: N2_10  and  C8_13 
REMARK    6  A    between atoms: C8_13  and  C9_14 
REMARK    7  A    between atoms: C9_14  and  C10_15 
REMARK    8  A    between atoms: C10_15  and  C11_16 
ROOT
HETATM    1  C7  UNL     1     186.666 122.205  31.019  1.00  0.00     0.251 C 
ENDROOT
BRANCH   1   2
HETATM    2  C6  UNL     1     186.074 123.380  30.323  1.00  0.00     0.147 C 
BRANCH   2   3
HETATM    3  N1  UNL     1     186.885 124.588  30.384  1.00  0.00    -0.388 N 
ATOM      4  H1  UNL     1     187.656 124.677  29.723  1.00  0.00     0.159 HD
BRANCH   3   5
HETATM    5  C5  UNL     1     186.674 125.638  31.291  1.00  0.00     0.039 A 
HETATM    6  C4  UNL     1     186.427 126.931  30.835  1.00  0.00     0.001 A 
HETATM    7  C3  UNL     1     186.410 127.239  29.495  1.00  0.00     0.014 A 
HETATM    8  C17 UNL     1     186.187 127.961  31.745  1.00  0.00    -0.024 A 
HETATM    9  C2  UNL     1     186.165 128.533  29.038  1.00  0.00     0.001 A 
HETATM   10  C1  UNL     1     185.936 129.506  29.974  1.00  0.00     0.001 A 
HETATM   11  C18 UNL     1     185.941 129.252  31.315  1.00  0.00     0.012 A 
HETATM   12  C16 UNL     1     186.202 127.672  33.103  1.00  0.00     0.012 A 
HETATM   13  C15 UNL     1     186.446 126.399  33.545  1.00  0.00     0.003 A 
HETATM   14  C14 UNL     1     186.682 125.372  32.664  1.00  0.00     0.030 A 
ENDBRANCH   3   5
ENDBRANCH   2   3
ENDBRANCH   1   2
BRANCH   1  15
HETATM   15  N2  UNL     1     188.107 122.295  31.136  1.00  0.00    -0.074 N 
ATOM     16  H22 UNL     1     188.569 121.788  30.381  1.00  0.00     0.277 HD
ATOM     17  H21 UNL     1     188.434 123.238  30.925  1.00  0.00     0.277 HD
BRANCH  15  18
HETATM   18  C8  UNL     1     188.586 121.857  32.423  1.00  0.00     0.232 C 
BRANCH  18  19
HETATM   19  C9  UNL     1     189.757 122.629  32.922  1.00  0.00     0.033 C 
BRANCH  19  20
HETATM   20  C10 UNL     1     189.974 123.940  32.233  1.00  0.00     0.060 C 
BRANCH  20  21
HETATM   21  C11 UNL     1     191.339 123.964  31.641  1.00  0.00     0.025 A 
HETATM   22  C12 UNL     1     191.886 123.076  30.729  1.00  0.00     0.113 A 
HETATM   23  N3  UNL     1     193.148 123.448  30.444  1.00  0.00    -0.360 N 
HETATM   24  C13 UNL     1     193.410 124.551  31.155  1.00  0.00     0.180 A 
ATOM     25  H3  UNL     1     193.787 122.976  29.805  1.00  0.00     0.166 HD
HETATM   26  N4  UNL     1     192.316 124.873  31.885  1.00  0.00    -0.355 N 
ATOM     27  H4  UNL     1     192.238 125.670  32.516  1.00  0.00     0.166 HD
ENDBRANCH  20  21
ENDBRANCH  19  20
ENDBRANCH  18  19
ENDBRANCH  15  18
ENDBRANCH   1  15
TORSDOF 8
ENDMDL
MODEL 3
REMARK VINA RESULT: -7.635620862      1.299      1.636
REMARK  8 active torsions:
REMARK  status: ('A' for Active; 'I' for Inactive)
REMARK    1  A    between atoms: C5_5  and  N1_6 
REMARK    2  A    between atoms: N1_6  and  C6_8 
REMARK    3  A    between atoms: C6_8  and  C7_9 
REMARK    4  A    between atoms: C7_9  and  N2_10 
REMARK    5  A    between atoms: N2_10  and  C8_13 
REMARK    6  A    between atoms: C8_13  and  C9_14 
REMARK    7  A    between atoms: C9_14  and  C10_15 
REMARK    8  A    between atoms: C10_15  and  C11_16 
ROOT
HETATM    1  C7  UNL     1     186.755 122.090  31.133  1.00  0.00     0.251 C 
ENDROOT
BRANCH   1   2
HETATM    2  C6  UNL     1     186.128 123.246  30.436  1.00  0.00     0.147 C 
BRANCH   2   3
HETATM    3  N1  UNL     1     186.915 124.471  30.475  1.00  0.00    -0.388 N 
ATOM      4  H1  UNL     1     187.679 124.568  29.808  1.00  0.00     0.159 HD
BRANCH   3   5
HETATM    5  C5  UNL     1     186.689 125.528  31.370  1.00  0.00     0.039 A 
HETATM    6  C4  UNL     1     186.466 126.821  30.900  1.00  0.00     0.001 A 
HETATM    7  C3  UNL     1     186.489 127.121  29.559  1.00  0.00     0.014 A 
HETATM    8  C17 UNL     1     186.211 127.858  31.798  1.00  0.00    -0.024 A 
HETATM    9  C2  UNL     1     186.269 128.415  29.088  1.00  0.00     0.001 A 
HETATM   10  C1  UNL     1     186.023 129.395  30.013  1.00  0.00     0.001 A 
HETATM   11  C18 UNL     1     185.989 129.149  31.354  1.00  0.00     0.012 A 
HETATM   12  C16 UNL     1     186.185 127.577  33.157  1.00  0.00     0.012 A 
HETATM   13  C15 UNL     1     186.406 126.304  33.613  1.00  0.00     0.003 A 
HETATM   14  C14 UNL     1     186.657 125.270  32.745  1.00  0.00     0.030 A 
ENDBRANCH   3   5
ENDBRANCH   2   3
ENDBRANCH   1   2
BRANCH   1  15
HETATM   15  N2  UNL     1     188.198 122.196  31.201  1.00  0.00    -0.074 N 
ATOM     16  H22 UNL     1     188.645 121.522  30.579  1.00  0.00     0.277 HD
ATOM     17  H21 UNL     1     188.524 123.060  30.767  1.00  0.00     0.277 HD
BRANCH  15  18
HETATM   18  C8  UNL     1     188.700 122.070  32.546  1.00  0.00     0.232 C 
BRANCH  18  19
HETATM   19  C9  UNL     1     190.053 122.660  32.740  1.00  0.00     0.033 C 
BRANCH  19  20
HETATM   20  C10 UNL     1     190.051 124.030  33.342  1.00  0.00     0.060 C 
BRANCH  20  21
HETATM   21  C11 UNL     1     190.211 125.041  32.263  1.00  0.00     0.025 A 
HETATM   22  C12 UNL     1     190.573 124.827  30.943  1.00  0.00     0.113 A 
HETATM   23  N3  UNL     1     190.605 126.004  30.291  1.00  0.00    -0.360 N 
HETATM   24  C13 UNL     1     190.270 126.957  31.168  1.00  0.00     0.180 A 
ATOM     25  H3  UNL     1     190.841 126.145  29.308  1.00  0.00     0.166 HD
HETATM   26  N4  UNL     1     190.028 126.381  32.370  1.00  0.00    -0.355 N 
ATOM     27  H4  UNL     1     189.753 126.875  33.218  1.00  0.00     0.166 HD
ENDBRANCH  20  21
ENDBRANCH  19  20
ENDBRANCH  18  19
ENDBRANCH  15  18
ENDBRANCH   1  15
TORSDOF 8
ENDMDL
MODEL 4
REMARK VINA RESULT: -7.546506051      2.019      2.182
REMARK  8 active torsions:
REMARK  status: ('A' for Active; 'I' for Inactive)
REMARK    1  A    between atoms: C5_5  and  N1_6 
REMARK    2  A    between atoms: N1_6  and  C6_8 
REMARK    3  A    between atoms: C6_8  and  C7_9 
REMARK    4  A    between atoms: C7_9  and  N2_10 
REMARK    5  A    between atoms: N2_10  and  C8_13 
REMARK    6  A    between atoms: C8_13  and  C9_14 
REMARK    7  A    between atoms: C9_14  and  C10_15 
REMARK    8  A    between atoms: C10_15  and  C11_16 
ROOT
HETATM    1  C7  UNL     1     188.166 121.878  31.334  1.00  0.00     0.251 C 
ENDROOT
BRANCH   1   2
HETATM    2  C6  UNL     1     186.919 122.683  31.449  1.00  0.00     0.147 C 
BRANCH   2   3
HETATM    3  N1  UNL     1     187.004 124.013  30.861  1.00  0.00    -0.388 N 
ATOM      4  H1  UNL     1     187.254 124.082  29.875  1.00  0.00     0.159 HD
BRANCH   3   5
HETATM    5  C5  UNL     1     186.763 125.204  31.562  1.00  0.00     0.039 A 
HETATM    6  C4  UNL     1     186.575 126.404  30.878  1.00  0.00     0.001 A 
HETATM    7  C3  UNL     1     186.649 126.479  29.508  1.00  0.00     0.014 A 
HETATM    8  C17 UNL     1     186.305 127.577  31.584  1.00  0.00    -0.024 A 
HETATM    9  C2  UNL     1     186.464 127.680  28.823  1.00  0.00     0.001 A 
HETATM   10  C1  UNL     1     186.201 128.801  29.565  1.00  0.00     0.001 A 
HETATM   11  C18 UNL     1     186.117 128.779  30.927  1.00  0.00     0.012 A 
HETATM   12  C16 UNL     1     186.227 127.523  32.969  1.00  0.00     0.012 A 
HETATM   13  C15 UNL     1     186.413 126.340  33.635  1.00  0.00     0.003 A 
HETATM   14  C14 UNL     1     186.679 125.176  32.958  1.00  0.00     0.030 A 
ENDBRANCH   3   5
ENDBRANCH   2   3
ENDBRANCH   1   2
BRANCH   1  15
HETATM   15  N2  UNL     1     188.899 121.805  32.582  1.00  0.00    -0.074 N 
ATOM     16  H22 UNL     1     188.275 121.920  33.380  1.00  0.00     0.277 HD
ATOM     17  H21 UNL     1     189.222 120.854  32.762  1.00  0.00     0.277 HD
BRANCH  15  18
HETATM   18  C8  UNL     1     189.992 122.742  32.638  1.00  0.00     0.232 C 
BRANCH  18  19
HETATM   19  C9  UNL     1     190.559 123.083  31.305  1.00  0.00     0.033 C 
BRANCH  19  20
HETATM   20  C10 UNL     1     191.907 122.491  31.035  1.00  0.00     0.060 C 
BRANCH  20  21
HETATM   21  C11 UNL     1     192.916 123.581  30.957  1.00  0.00     0.025 A 
HETATM   22  C12 UNL     1     193.136 124.604  31.865  1.00  0.00     0.113 A 
HETATM   23  N3  UNL     1     194.142 125.384  31.426  1.00  0.00    -0.360 N 
HETATM   24  C13 UNL     1     194.563 124.875  30.262  1.00  0.00     0.180 A 
ATOM     25  H3  UNL     1     194.514 126.209  31.893  1.00  0.00     0.166 HD
HETATM   26  N4  UNL     1     193.824 123.779  29.969  1.00  0.00    -0.355 N 
ATOM     27  H4  UNL     1     193.933 123.196  29.139  1.00  0.00     0.166 HD
ENDBRANCH  20  21
ENDBRANCH  19  20
ENDBRANCH  18  19
ENDBRANCH  15  18
ENDBRANCH   1  15
TORSDOF 8
ENDMDL
MODEL 5
REMARK VINA RESULT: -7.486799148      3.414      8.002
REMARK  8 active torsions:
REMARK  status: ('A' for Active; 'I' for Inactive)
REMARK    1  A    between atoms: C5_5  and  N1_6 
REMARK    2  A    between atoms: N1_6  and  C6_8 
REMARK    3  A    between atoms: C6_8  and  C7_9 
REMARK    4  A    between atoms: C7_9  and  N2_10 
REMARK    5  A    between atoms: N2_10  and  C8_13 
REMARK    6  A    between atoms: C8_13  and  C9_14 
REMARK    7  A    between atoms: C9_14  and  C10_15 
REMARK    8  A    between atoms: C10_15  and  C11_16 
ROOT
HETATM    1  C7  UNL     1     186.221 128.138  29.331  1.00  0.00     0.251 C 
ENDROOT
BRANCH   1   2
HETATM    2  C6  UNL     1     186.597 127.280  30.487  1.00  0.00     0.147 C 
BRANCH   2   3
HETATM    3  N1  UNL     1     187.448 126.148  30.147  1.00  0.00    -0.388 N 
ATOM      4  H1  UNL     1     188.359 126.345  29.734  1.00  0.00     0.159 HD
BRANCH   3   5
HETATM    5  C5  UNL     1     187.097 124.805  30.350  1.00  0.00     0.039 A 
HETATM    6  C4  UNL     1     187.861 123.990  31.183  1.00  0.00     0.001 A 
HETATM    7  C3  UNL     1     188.996 124.449  31.807  1.00  0.00     0.014 A 
HETATM    8  C17 UNL     1     187.484 122.665  31.403  1.00  0.00    -0.024 A 
HETATM    9  C2  UNL     1     189.763 123.634  32.639  1.00  0.00     0.001 A 
HETATM   10  C1  UNL     1     189.348 122.341  32.821  1.00  0.00     0.001 A 
HETATM   11  C18 UNL     1     188.229 121.837  32.224  1.00  0.00     0.012 A 
HETATM   12  C16 UNL     1     186.342 122.181  30.780  1.00  0.00     0.012 A 
HETATM   13  C15 UNL     1     185.595 122.987  29.963  1.00  0.00     0.003 A 
HETATM   14  C14 UNL     1     185.949 124.293  29.735  1.00  0.00     0.030 A 
ENDBRANCH   3   5
ENDBRANCH   2   3
ENDBRANCH   1   2
BRANCH   1  15
HETATM   15  N2  UNL     1     187.013 127.859  28.149  1.00  0.00    -0.074 N 
ATOM     16  H22 UNL     1     187.540 126.993  28.258  1.00  0.00     0.277 HD
ATOM     17  H21 UNL     1     186.418 127.592  27.364  1.00  0.00     0.277 HD
BRANCH  15  18
HETATM   18  C8  UNL     1     187.881 128.952  27.793  1.00  0.00     0.232 C 
BRANCH  18  19
HETATM   19  C9  UNL     1     188.150 129.054  26.332  1.00  0.00     0.033 C 
BRANCH  19  20
HETATM   20  C10 UNL     1     186.930 128.964  25.470  1.00  0.00     0.060 C 
BRANCH  20  21
HETATM   21  C11 UNL     1     186.084 130.167  25.690  1.00  0.00     0.025 A 
HETATM   22  C12 UNL     1     184.764 130.215  26.110  1.00  0.00     0.113 A 
HETATM   23  N3  UNL     1     184.364 131.498  26.183  1.00  0.00    -0.360 N 
HETATM   24  C13 UNL     1     185.401 132.262  25.821  1.00  0.00     0.180 A 
ATOM     25  H3  UNL     1     183.441 131.828  26.464  1.00  0.00     0.166 HD
HETATM   26  N4  UNL     1     186.451 131.462  25.520  1.00  0.00    -0.355 N 
ATOM     27  H4  UNL     1     187.370 131.781  25.214  1.00  0.00     0.166 HD
ENDBRANCH  20  21
ENDBRANCH  19  20
ENDBRANCH  18  19
ENDBRANCH  15  18
ENDBRANCH   1  15
TORSDOF 8
ENDMDL
