MODEL 1
REMARK VINA RESULT: -8.901850370      0.000      0.000
REMARK  13 active torsions:
REMARK  status: ('A' for Active; 'I' for Inactive)
REMARK    1  A    between atoms: C2_2  and  C4_4 
REMARK    2  A    between atoms: C4_4  and  N1_5 
REMARK    3  A    between atoms: C4_4  and  C23_34 
REMARK       I    between atoms: N1_5  and  C5_7 
REMARK    4  A    between atoms: C5_7  and  C6_9 
REMARK    5  A    between atoms: C6_9  and  C7_10 
REMARK    6  A    between atoms: C6_9  and  N2_15 
REMARK    7  A    between atoms: C7_10  and  C8_11 
REMARK    8  A    between atoms: C8_11  and  C9_12 
REMARK       I    between atoms: N2_15  and  C10_17 
REMARK    9  A    between atoms: C10_17  and  C11_19 
REMARK       I    between atoms: N3_24  and  C16_25 
REMARK   10  A    between atoms: C16_25  and  O6_27 
REMARK   11  A    between atoms: O6_27  and  C17_28 
REMARK   12  A    between atoms: C17_28  and  C19_30 
REMARK       I    between atoms: C23_34  and  N4_36 
REMARK   13  A    between atoms: N4_36  and  C24_38 
ROOT
HETATM    1  C6  UNL     1      -9.428  16.410  31.088  1.00  0.00     0.177 C 
ENDROOT
BRANCH   1   2
HETATM    2  C5  UNL     1      -9.969  15.062  30.769  1.00  0.00     0.241 C 
HETATM    3  N1  UNL     1     -11.011  14.861  29.841  1.00  0.00    -0.346 N 
ATOM      4  H1  UNL     1     -11.395  15.695  29.398  1.00  0.00     0.163 HD
HETATM    5  O1  UNL     1      -9.473  14.076  31.351  1.00  0.00    -0.271 OA
BRANCH   3   6
HETATM    6  C4  UNL     1     -11.587  13.605  29.452  1.00  0.00     0.180 C 
BRANCH   6   7
HETATM    7  C2  UNL     1     -12.064  13.754  27.999  1.00  0.00     0.009 C 
HETATM    8  C1  UNL     1     -12.431  12.416  27.409  1.00  0.00     0.012 C 
HETATM    9  C3  UNL     1     -10.961  14.407  27.169  1.00  0.00     0.012 C 
ENDBRANCH   6   7
BRANCH   6  10
HETATM   10  C23 UNL     1     -12.797  13.239  30.233  1.00  0.00     0.241 C 
HETATM   11  O7  UNL     1     -13.772  14.014  30.219  1.00  0.00    -0.271 OA
HETATM   12  N4  UNL     1     -12.823  12.035  30.967  1.00  0.00    -0.355 N 
ATOM     13  H4  UNL     1     -12.004  11.429  30.952  1.00  0.00     0.162 HD
BRANCH  12  14
HETATM   14  C24 UNL     1     -13.985  11.631  31.744  1.00  0.00     0.084 C 
HETATM   15  C25 UNL     1     -14.462  10.289  31.215  1.00  0.00     0.025 C 
HETATM   16  C26 UNL     1     -15.915  10.130  31.594  1.00  0.00     0.002 C 
HETATM   17  C27 UNL     1     -16.040  10.228  33.083  1.00  0.00     0.000 C 
HETATM   18  C28 UNL     1     -14.918   9.456  33.721  1.00  0.00     0.000 C 
HETATM   19  C29 UNL     1     -13.646  10.229  33.811  1.00  0.00     0.002 C 
HETATM   20  C30 UNL     1     -13.729  11.616  33.207  1.00  0.00     0.025 C 
ENDBRANCH  12  14
ENDBRANCH   6  10
ENDBRANCH   3   6
ENDBRANCH   1   2
BRANCH   1  21
HETATM   21  C7  UNL     1      -8.749  16.463  32.402  1.00  0.00     0.045 C 
BRANCH  21  22
HETATM   22  C8  UNL     1      -9.430  17.210  33.484  1.00  0.00     0.116 C 
BRANCH  22  23
HETATM   23  C9  UNL     1     -10.272  16.448  34.401  1.00  0.00     0.172 C 
HETATM   24  O2  UNL     1     -10.380  15.215  34.309  1.00  0.00    -0.648 OA
HETATM   25  O3  UNL     1     -10.964  17.120  35.389  1.00  0.00    -0.648 OA
ENDBRANCH  22  23
ENDBRANCH  21  22
ENDBRANCH   1  21
BRANCH   1  26
HETATM   26  N2  UNL     1      -8.617  16.951  30.048  1.00  0.00    -0.346 N 
HETATM   27  C10 UNL     1      -9.137  17.668  28.928  1.00  0.00     0.241 C 
HETATM   28  O4  UNL     1     -10.392  17.792  28.904  1.00  0.00    -0.271 OA
ATOM     29  H2  UNL     1      -7.608  16.817  30.106  1.00  0.00     0.163 HD
BRANCH  27  30
HETATM   30  C11 UNL     1      -8.277  18.233  27.858  1.00  0.00     0.181 C 
HETATM   31  C12 UNL     1      -6.945  18.675  28.350  1.00  0.00     0.035 C 
HETATM   32  C13 UNL     1      -5.776  17.926  27.828  1.00  0.00     0.004 C 
HETATM   33  C14 UNL     1      -6.069  16.565  27.293  1.00  0.00     0.020 C 
HETATM   34  C15 UNL     1      -7.276  16.452  26.451  1.00  0.00     0.129 C 
HETATM   35  N3  UNL     1      -8.272  17.486  26.639  1.00  0.00    -0.315 N 
HETATM   36  C16 UNL     1      -9.200  17.694  25.578  1.00  0.00     0.363 C 
HETATM   37  O5  UNL     1     -10.104  18.580  25.666  1.00  0.00    -0.238 OA
BRANCH  36  38
HETATM   38  O6  UNL     1      -9.182  16.965  24.414  1.00  0.00    -0.298 OA
BRANCH  38  39
HETATM   39  C17 UNL     1      -8.929  17.407  23.124  1.00  0.00     0.137 C 
HETATM   40  C18 UNL     1      -7.564  18.114  23.182  1.00  0.00     0.041 C 
BRANCH  39  41
HETATM   41  C19 UNL     1      -8.880  16.296  22.100  1.00  0.00    -0.025 C 
HETATM   42  C20 UNL     1      -7.457  15.876  21.813  1.00  0.00     0.017 C 
HETATM   43  C21 UNL     1      -9.603  16.683  20.825  1.00  0.00     0.017 C 
HETATM   44  C22 UNL     1      -9.608  15.102  22.683  1.00  0.00     0.017 C 
ENDBRANCH  39  41
ENDBRANCH  38  39
ENDBRANCH  36  38
ENDBRANCH  27  30
ENDBRANCH   1  26
TORSDOF 13
ENDMDL
MODEL 2
REMARK VINA RESULT: -8.753462517      1.260      1.715
REMARK  13 active torsions:
REMARK  status: ('A' for Active; 'I' for Inactive)
REMARK    1  A    between atoms: C2_2  and  C4_4 
REMARK    2  A    between atoms: C4_4  and  N1_5 
REMARK    3  A    between atoms: C4_4  and  C23_34 
REMARK       I    between atoms: N1_5  and  C5_7 
REMARK    4  A    between atoms: C5_7  and  C6_9 
REMARK    5  A    between atoms: C6_9  and  C7_10 
REMARK    6  A    between atoms: C6_9  and  N2_15 
REMARK    7  A    between atoms: C7_10  and  C8_11 
REMARK    8  A    between atoms: C8_11  and  C9_12 
REMARK       I    between atoms: N2_15  and  C10_17 
REMARK    9  A    between atoms: C10_17  and  C11_19 
REMARK       I    between atoms: N3_24  and  C16_25 
REMARK   10  A    between atoms: C16_25  and  O6_27 
REMARK   11  A    between atoms: O6_27  and  C17_28 
REMARK   12  A    between atoms: C17_28  and  C19_30 
REMARK       I    between atoms: C23_34  and  N4_36 
REMARK   13  A    between atoms: N4_36  and  C24_38 
ROOT
HETATM    1  C6  UNL     1      -9.795  16.608  31.012  1.00  0.00     0.177 C 
ENDROOT
BRANCH   1   2
HETATM    2  C5  UNL     1     -10.259  15.216  30.768  1.00  0.00     0.241 C 
HETATM    3  N1  UNL     1     -11.624  14.865  30.732  1.00  0.00    -0.346 N 
ATOM      4  H1  UNL     1     -12.293  15.617  30.897  1.00  0.00     0.163 HD
HETATM    5  O1  UNL     1      -9.397  14.332  30.587  1.00  0.00    -0.271 OA
BRANCH   3   6
HETATM    6  C4  UNL     1     -12.170  13.561  30.486  1.00  0.00     0.180 C 
BRANCH   6   7
HETATM    7  C2  UNL     1     -13.019  13.657  29.209  1.00  0.00     0.009 C 
HETATM    8  C1  UNL     1     -12.309  13.027  28.037  1.00  0.00     0.012 C 
HETATM    9  C3  UNL     1     -13.317  15.125  28.909  1.00  0.00     0.012 C 
ENDBRANCH   6   7
BRANCH   6  10
HETATM   10  C23 UNL     1     -13.100  13.096  31.548  1.00  0.00     0.241 C 
HETATM   11  O7  UNL     1     -14.265  12.790  31.227  1.00  0.00    -0.271 OA
HETATM   12  N4  UNL     1     -12.657  13.007  32.883  1.00  0.00    -0.355 N 
ATOM     13  H4  UNL     1     -11.696  13.267  33.103  1.00  0.00     0.162 HD
BRANCH  12  14
HETATM   14  C24 UNL     1     -13.528  12.555  33.956  1.00  0.00     0.084 C 
HETATM   15  C25 UNL     1     -13.398  11.045  34.065  1.00  0.00     0.025 C 
HETATM   16  C26 UNL     1     -14.641  10.518  34.739  1.00  0.00     0.002 C 
HETATM   17  C27 UNL     1     -14.778  11.172  36.079  1.00  0.00     0.000 C 
HETATM   18  C28 UNL     1     -13.427  11.227  36.738  1.00  0.00     0.000 C 
HETATM   19  C29 UNL     1     -12.602  12.388  36.295  1.00  0.00     0.002 C 
HETATM   20  C30 UNL     1     -13.272  13.250  35.245  1.00  0.00     0.025 C 
ENDBRANCH  12  14
ENDBRANCH   6  10
ENDBRANCH   3   6
ENDBRANCH   1   2
BRANCH   1  21
HETATM   21  C7  UNL     1      -9.258  16.807  32.377  1.00  0.00     0.045 C 
BRANCH  21  22
HETATM   22  C8  UNL     1      -9.766  15.909  33.440  1.00  0.00     0.116 C 
BRANCH  22  23
HETATM   23  C9  UNL     1     -11.004  16.294  34.110  1.00  0.00     0.172 C 
HETATM   24  O2  UNL     1     -12.115  16.010  33.633  1.00  0.00    -0.648 OA
HETATM   25  O3  UNL     1     -10.932  16.991  35.299  1.00  0.00    -0.648 OA
ENDBRANCH  22  23
ENDBRANCH  21  22
ENDBRANCH   1  21
BRANCH   1  26
HETATM   26  N2  UNL     1      -8.897  17.085  30.012  1.00  0.00    -0.346 N 
HETATM   27  C10 UNL     1      -9.315  17.784  28.840  1.00  0.00     0.241 C 
HETATM   28  O4  UNL     1     -10.560  17.952  28.728  1.00  0.00    -0.271 OA
ATOM     29  H2  UNL     1      -7.900  16.918  30.142  1.00  0.00     0.163 HD
BRANCH  27  30
HETATM   30  C11 UNL     1      -8.366  18.283  27.813  1.00  0.00     0.181 C 
HETATM   31  C12 UNL     1      -7.040  18.654  28.374  1.00  0.00     0.035 C 
HETATM   32  C13 UNL     1      -5.890  17.832  27.926  1.00  0.00     0.004 C 
HETATM   33  C14 UNL     1      -6.232  16.482  27.391  1.00  0.00     0.020 C 
HETATM   34  C15 UNL     1      -7.395  16.427  26.484  1.00  0.00     0.129 C 
HETATM   35  N3  UNL     1      -8.338  17.519  26.604  1.00  0.00    -0.315 N 
HETATM   36  C16 UNL     1      -9.193  17.765  25.491  1.00  0.00     0.363 C 
HETATM   37  O5  UNL     1     -10.046  18.703  25.519  1.00  0.00    -0.238 OA
BRANCH  36  38
HETATM   38  O6  UNL     1      -9.153  17.020  24.339  1.00  0.00    -0.298 OA
BRANCH  38  39
HETATM   39  C17 UNL     1      -8.827  17.433  23.055  1.00  0.00     0.137 C 
HETATM   40  C18 UNL     1      -7.458  18.124  23.170  1.00  0.00     0.041 C 
BRANCH  39  41
HETATM   41  C19 UNL     1      -8.740  16.302  22.056  1.00  0.00    -0.025 C 
HETATM   42  C20 UNL     1      -9.193  14.996  22.665  1.00  0.00     0.017 C 
HETATM   43  C21 UNL     1      -7.346  16.180  21.473  1.00  0.00     0.017 C 
HETATM   44  C22 UNL     1      -9.676  16.629  20.910  1.00  0.00     0.017 C 
ENDBRANCH  39  41
ENDBRANCH  38  39
ENDBRANCH  36  38
ENDBRANCH  27  30
ENDBRANCH   1  26
TORSDOF 13
ENDMDL
MODEL 3
REMARK VINA RESULT: -8.663527919      2.572      5.517
REMARK  13 active torsions:
REMARK  status: ('A' for Active; 'I' for Inactive)
REMARK    1  A    between atoms: C2_2  and  C4_4 
REMARK    2  A    between atoms: C4_4  and  N1_5 
REMARK    3  A    between atoms: C4_4  and  C23_34 
REMARK       I    between atoms: N1_5  and  C5_7 
REMARK    4  A    between atoms: C5_7  and  C6_9 
REMARK    5  A    between atoms: C6_9  and  C7_10 
REMARK    6  A    between atoms: C6_9  and  N2_15 
REMARK    7  A    between atoms: C7_10  and  C8_11 
REMARK    8  A    between atoms: C8_11  and  C9_12 
REMARK       I    between atoms: N2_15  and  C10_17 
REMARK    9  A    between atoms: C10_17  and  C11_19 
REMARK       I    between atoms: N3_24  and  C16_25 
REMARK   10  A    between atoms: C16_25  and  O6_27 
REMARK   11  A    between atoms: O6_27  and  C17_28 
REMARK   12  A    between atoms: C17_28  and  C19_30 
REMARK       I    between atoms: C23_34  and  N4_36 
REMARK   13  A    between atoms: N4_36  and  C24_38 
ROOT
HETATM    1  C6  UNL     1     -10.571  16.095  26.951  1.00  0.00     0.177 C 
ENDROOT
BRANCH   1   2
HETATM    2  C5  UNL     1     -10.625  14.999  27.955  1.00  0.00     0.241 C 
HETATM    3  N1  UNL     1     -11.384  15.090  29.139  1.00  0.00    -0.346 N 
ATOM      4  H1  UNL     1     -11.894  15.960  29.289  1.00  0.00     0.163 HD
HETATM    5  O1  UNL     1      -9.969  13.962  27.730  1.00  0.00    -0.271 OA
BRANCH   3   6
HETATM    6  C4  UNL     1     -11.515  14.085  30.156  1.00  0.00     0.180 C 
BRANCH   6   7
HETATM    7  C2  UNL     1     -13.015  13.932  30.452  1.00  0.00     0.009 C 
HETATM    8  C1  UNL     1     -13.514  12.572  30.033  1.00  0.00     0.012 C 
HETATM    9  C3  UNL     1     -13.791  15.022  29.714  1.00  0.00     0.012 C 
ENDBRANCH   6   7
BRANCH   6  10
HETATM   10  C23 UNL     1     -10.891  14.464  31.450  1.00  0.00     0.241 C 
HETATM   11  O7  UNL     1      -9.815  15.094  31.431  1.00  0.00    -0.271 OA
HETATM   12  N4  UNL     1     -11.518  14.113  32.663  1.00  0.00    -0.355 N 
ATOM     13  H4  UNL     1     -12.397  13.598  32.635  1.00  0.00     0.162 HD
BRANCH  12  14
HETATM   14  C24 UNL     1     -10.948  14.464  33.955  1.00  0.00     0.084 C 
HETATM   15  C25 UNL     1     -11.519  15.808  34.373  1.00  0.00     0.025 C 
HETATM   16  C26 UNL     1     -10.570  16.428  35.370  1.00  0.00     0.002 C 
HETATM   17  C27 UNL     1     -10.411  15.495  36.530  1.00  0.00     0.000 C 
HETATM   18  C28 UNL     1     -11.758  14.933  36.894  1.00  0.00     0.000 C 
HETATM   19  C29 UNL     1     -12.156  13.765  36.055  1.00  0.00     0.002 C 
HETATM   20  C30 UNL     1     -11.145  13.410  34.983  1.00  0.00     0.025 C 
ENDBRANCH  12  14
ENDBRANCH   6  10
ENDBRANCH   3   6
ENDBRANCH   1   2
BRANCH   1  21
HETATM   21  C7  UNL     1     -10.408  17.432  27.563  1.00  0.00     0.045 C 
BRANCH  21  22
HETATM   22  C8  UNL     1      -9.094  17.740  28.174  1.00  0.00     0.116 C 
BRANCH  22  23
HETATM   23  C9  UNL     1      -8.172  18.568  27.403  1.00  0.00     0.172 C 
HETATM   24  O2  UNL     1      -8.413  18.887  26.228  1.00  0.00    -0.648 OA
HETATM   25  O3  UNL     1      -7.006  19.002  28.000  1.00  0.00    -0.648 OA
ENDBRANCH  22  23
ENDBRANCH  21  22
ENDBRANCH   1  21
BRANCH   1  26
HETATM   26  N2  UNL     1      -9.617  15.864  25.916  1.00  0.00    -0.346 N 
HETATM   27  C10 UNL     1      -9.860  16.141  24.537  1.00  0.00     0.241 C 
HETATM   28  O4  UNL     1     -11.002  16.606  24.274  1.00  0.00    -0.271 OA
ATOM     29  H2  UNL     1      -8.710  15.478  26.177  1.00  0.00     0.163 HD
BRANCH  27  30
HETATM   30  C11 UNL     1      -8.851  15.904  23.474  1.00  0.00     0.181 C 
HETATM   31  C12 UNL     1      -9.416  15.241  22.269  1.00  0.00     0.035 C 
HETATM   32  C13 UNL     1      -9.410  16.042  21.022  1.00  0.00     0.004 C 
HETATM   33  C14 UNL     1      -9.314  17.519  21.205  1.00  0.00     0.020 C 
HETATM   34  C15 UNL     1      -8.340  17.979  22.215  1.00  0.00     0.129 C 
HETATM   35  N3  UNL     1      -7.976  17.007  23.224  1.00  0.00    -0.315 N 
HETATM   36  C16 UNL     1      -6.748  17.218  23.915  1.00  0.00     0.363 C 
HETATM   37  O5  UNL     1      -6.359  16.412  24.814  1.00  0.00    -0.238 OA
BRANCH  36  38
HETATM   38  O6  UNL     1      -5.921  18.285  23.663  1.00  0.00    -0.298 OA
BRANCH  38  39
HETATM   39  C17 UNL     1      -4.549  18.284  23.464  1.00  0.00     0.137 C 
HETATM   40  C18 UNL     1      -4.319  18.972  22.108  1.00  0.00     0.041 C 
BRANCH  39  41
HETATM   41  C19 UNL     1      -3.778  19.015  24.540  1.00  0.00    -0.025 C 
HETATM   42  C20 UNL     1      -4.676  19.943  25.323  1.00  0.00     0.017 C 
HETATM   43  C21 UNL     1      -2.590  19.760  23.964  1.00  0.00     0.017 C 
HETATM   44  C22 UNL     1      -3.233  17.977  25.499  1.00  0.00     0.017 C 
ENDBRANCH  39  41
ENDBRANCH  38  39
ENDBRANCH  36  38
ENDBRANCH  27  30
ENDBRANCH   1  26
TORSDOF 13
ENDMDL
MODEL 4
REMARK VINA RESULT: -8.580476600      2.527      5.360
REMARK  13 active torsions:
REMARK  status: ('A' for Active; 'I' for Inactive)
REMARK    1  A    between atoms: C2_2  and  C4_4 
REMARK    2  A    between atoms: C4_4  and  N1_5 
REMARK    3  A    between atoms: C4_4  and  C23_34 
REMARK       I    between atoms: N1_5  and  C5_7 
REMARK    4  A    between atoms: C5_7  and  C6_9 
REMARK    5  A    between atoms: C6_9  and  C7_10 
REMARK    6  A    between atoms: C6_9  and  N2_15 
REMARK    7  A    between atoms: C7_10  and  C8_11 
REMARK    8  A    between atoms: C8_11  and  C9_12 
REMARK       I    between atoms: N2_15  and  C10_17 
REMARK    9  A    between atoms: C10_17  and  C11_19 
REMARK       I    between atoms: N3_24  and  C16_25 
REMARK   10  A    between atoms: C16_25  and  O6_27 
REMARK   11  A    between atoms: O6_27  and  C17_28 
REMARK   12  A    between atoms: C17_28  and  C19_30 
REMARK       I    between atoms: C23_34  and  N4_36 
REMARK   13  A    between atoms: N4_36  and  C24_38 
ROOT
HETATM    1  C6  UNL     1     -10.170  16.712  27.293  1.00  0.00     0.177 C 
ENDROOT
BRANCH   1   2
HETATM    2  C5  UNL     1     -10.233  15.692  28.373  1.00  0.00     0.241 C 
HETATM    3  N1  UNL     1     -11.358  14.868  28.576  1.00  0.00    -0.346 N 
ATOM      4  H1  UNL     1     -12.149  15.013  27.949  1.00  0.00     0.163 HD
HETATM    5  O1  UNL     1      -9.243  15.566  29.122  1.00  0.00    -0.271 OA
BRANCH   3   6
HETATM    6  C4  UNL     1     -11.508  13.846  29.573  1.00  0.00     0.180 C 
BRANCH   6   7
HETATM    7  C2  UNL     1     -12.625  12.905  29.095  1.00  0.00     0.009 C 
HETATM    8  C1  UNL     1     -12.675  11.653  29.934  1.00  0.00     0.012 C 
HETATM    9  C3  UNL     1     -12.388  12.543  27.630  1.00  0.00     0.012 C 
ENDBRANCH   6   7
BRANCH   6  10
HETATM   10  C23 UNL     1     -11.960  14.363  30.892  1.00  0.00     0.241 C 
HETATM   11  O7  UNL     1     -13.072  14.922  30.962  1.00  0.00    -0.271 OA
HETATM   12  N4  UNL     1     -11.138  14.213  32.026  1.00  0.00    -0.355 N 
ATOM     13  H4  UNL     1     -10.235  13.749  31.925  1.00  0.00     0.162 HD
BRANCH  12  14
HETATM   14  C24 UNL     1     -11.537  14.698  33.338  1.00  0.00     0.084 C 
HETATM   15  C25 UNL     1     -10.845  13.846  34.388  1.00  0.00     0.025 C 
HETATM   16  C26 UNL     1     -11.638  13.949  35.668  1.00  0.00     0.002 C 
HETATM   17  C27 UNL     1     -11.720  15.388  36.072  1.00  0.00     0.000 C 
HETATM   18  C28 UNL     1     -10.377  16.032  35.865  1.00  0.00     0.000 C 
HETATM   19  C29 UNL     1     -10.146  16.477  34.460  1.00  0.00     0.002 C 
HETATM   20  C30 UNL     1     -11.290  16.152  33.520  1.00  0.00     0.025 C 
ENDBRANCH  12  14
ENDBRANCH   6  10
ENDBRANCH   3   6
ENDBRANCH   1   2
BRANCH   1  21
HETATM   21  C7  UNL     1      -9.882  18.072  27.800  1.00  0.00     0.045 C 
BRANCH  21  22
HETATM   22  C8  UNL     1      -8.791  18.823  27.137  1.00  0.00     0.116 C 
BRANCH  22  23
HETATM   23  C9  UNL     1      -7.448  18.687  27.692  1.00  0.00     0.172 C 
HETATM   24  O2  UNL     1      -6.963  17.574  27.954  1.00  0.00    -0.648 OA
HETATM   25  O3  UNL     1      -6.704  19.825  27.929  1.00  0.00    -0.648 OA
ENDBRANCH  22  23
ENDBRANCH  21  22
ENDBRANCH   1  21
BRANCH   1  26
HETATM   26  N2  UNL     1      -9.300  16.347  26.224  1.00  0.00    -0.346 N 
HETATM   27  C10 UNL     1      -9.672  16.396  24.847  1.00  0.00     0.241 C 
HETATM   28  O4  UNL     1     -10.851  16.781  24.621  1.00  0.00    -0.271 OA
ATOM     29  H2  UNL     1      -8.358  16.033  26.457  1.00  0.00     0.163 HD
BRANCH  27  30
HETATM   30  C11 UNL     1      -8.749  16.021  23.745  1.00  0.00     0.181 C 
HETATM   31  C12 UNL     1      -9.421  15.283  22.644  1.00  0.00     0.035 C 
HETATM   32  C13 UNL     1      -9.469  15.973  21.332  1.00  0.00     0.004 C 
HETATM   33  C14 UNL     1      -9.302  17.454  21.376  1.00  0.00     0.020 C 
HETATM   34  C15 UNL     1      -8.244  17.955  22.275  1.00  0.00     0.129 C 
HETATM   35  N3  UNL     1      -7.850  17.058  23.341  1.00  0.00    -0.315 N 
HETATM   36  C16 UNL     1      -6.570  17.271  23.930  1.00  0.00     0.363 C 
HETATM   37  O5  UNL     1      -6.152  16.529  24.869  1.00  0.00    -0.238 OA
BRANCH  36  38
HETATM   38  O6  UNL     1      -5.721  18.273  23.530  1.00  0.00    -0.298 OA
BRANCH  38  39
HETATM   39  C17 UNL     1      -4.347  18.217  23.345  1.00  0.00     0.137 C 
HETATM   40  C18 UNL     1      -4.081  18.854  21.970  1.00  0.00     0.041 C 
BRANCH  39  41
HETATM   41  C19 UNL     1      -3.560  18.954  24.404  1.00  0.00    -0.025 C 
HETATM   42  C20 UNL     1      -4.443  19.896  25.187  1.00  0.00     0.017 C 
HETATM   43  C21 UNL     1      -2.372  19.684  23.808  1.00  0.00     0.017 C 
HETATM   44  C22 UNL     1      -3.012  17.922  25.369  1.00  0.00     0.017 C 
ENDBRANCH  39  41
ENDBRANCH  38  39
ENDBRANCH  36  38
ENDBRANCH  27  30
ENDBRANCH   1  26
TORSDOF 13
ENDMDL
MODEL 5
REMARK VINA RESULT: -8.394952192      1.722      3.609
REMARK  13 active torsions:
REMARK  status: ('A' for Active; 'I' for Inactive)
REMARK    1  A    between atoms: C2_2  and  C4_4 
REMARK    2  A    between atoms: C4_4  and  N1_5 
REMARK    3  A    between atoms: C4_4  and  C23_34 
REMARK       I    between atoms: N1_5  and  C5_7 
REMARK    4  A    between atoms: C5_7  and  C6_9 
REMARK    5  A    between atoms: C6_9  and  C7_10 
REMARK    6  A    between atoms: C6_9  and  N2_15 
REMARK    7  A    between atoms: C7_10  and  C8_11 
REMARK    8  A    between atoms: C8_11  and  C9_12 
REMARK       I    between atoms: N2_15  and  C10_17 
REMARK    9  A    between atoms: C10_17  and  C11_19 
REMARK       I    between atoms: N3_24  and  C16_25 
REMARK   10  A    between atoms: C16_25  and  O6_27 
REMARK   11  A    between atoms: O6_27  and  C17_28 
REMARK   12  A    between atoms: C17_28  and  C19_30 
REMARK       I    between atoms: C23_34  and  N4_36 
REMARK   13  A    between atoms: N4_36  and  C24_38 
ROOT
HETATM    1  C6  UNL     1     -10.862  16.043  28.568  1.00  0.00     0.177 C 
ENDROOT
BRANCH   1   2
HETATM    2  C5  UNL     1     -11.057  16.487  29.974  1.00  0.00     0.241 C 
HETATM    3  N1  UNL     1     -10.989  15.601  31.068  1.00  0.00    -0.346 N 
ATOM      4  H1  UNL     1     -10.811  14.620  30.850  1.00  0.00     0.163 HD
HETATM    5  O1  UNL     1     -11.287  17.696  30.183  1.00  0.00    -0.271 OA
BRANCH   3   6
HETATM    6  C4  UNL     1     -11.143  15.933  32.455  1.00  0.00     0.180 C 
BRANCH   6   7
HETATM    7  C2  UNL     1      -9.850  15.509  33.170  1.00  0.00     0.009 C 
HETATM    8  C1  UNL     1      -8.992  16.706  33.494  1.00  0.00     0.012 C 
HETATM    9  C3  UNL     1      -9.075  14.538  32.281  1.00  0.00     0.012 C 
ENDBRANCH   6   7
BRANCH   6  10
HETATM   10  C23 UNL     1     -12.234  15.182  33.129  1.00  0.00     0.241 C 
HETATM   11  O7  UNL     1     -13.015  15.807  33.873  1.00  0.00    -0.271 OA
HETATM   12  N4  UNL     1     -12.369  13.795  32.918  1.00  0.00    -0.355 N 
ATOM     13  H4  UNL     1     -11.708  13.322  32.302  1.00  0.00     0.162 HD
BRANCH  12  14
HETATM   14  C24 UNL     1     -13.422  13.017  33.552  1.00  0.00     0.084 C 
HETATM   15  C25 UNL     1     -13.917  11.989  32.550  1.00  0.00     0.025 C 
HETATM   16  C26 UNL     1     -15.312  11.578  32.956  1.00  0.00     0.002 C 
HETATM   17  C27 UNL     1     -15.269  11.034  34.350  1.00  0.00     0.000 C 
HETATM   18  C28 UNL     1     -14.060  10.151  34.495  1.00  0.00     0.000 C 
HETATM   19  C29 UNL     1     -12.808  10.908  34.789  1.00  0.00     0.002 C 
HETATM   20  C30 UNL     1     -13.001  12.410  34.841  1.00  0.00     0.025 C 
ENDBRANCH  12  14
ENDBRANCH   6  10
ENDBRANCH   3   6
ENDBRANCH   1   2
BRANCH   1  21
HETATM   21  C7  UNL     1     -12.135  15.727  27.881  1.00  0.00     0.045 C 
BRANCH  21  22
HETATM   22  C8  UNL     1     -12.909  14.573  28.393  1.00  0.00     0.116 C 
BRANCH  22  23
HETATM   23  C9  UNL     1     -12.186  13.327  28.624  1.00  0.00     0.172 C 
HETATM   24  O2  UNL     1     -11.826  12.601  27.683  1.00  0.00    -0.648 OA
HETATM   25  O3  UNL     1     -11.901  12.950  29.921  1.00  0.00    -0.648 OA
ENDBRANCH  22  23
ENDBRANCH  21  22
ENDBRANCH   1  21
BRANCH   1  26
HETATM   26  N2  UNL     1     -10.053  16.934  27.804  1.00  0.00    -0.346 N 
HETATM   27  C10 UNL     1      -8.636  17.039  27.948  1.00  0.00     0.241 C 
HETATM   28  O4  UNL     1      -8.127  16.286  28.822  1.00  0.00    -0.271 OA
ATOM     29  H2  UNL     1     -10.511  17.529  27.115  1.00  0.00     0.163 HD
BRANCH  27  30
HETATM   30  C11 UNL     1      -7.806  17.966  27.137  1.00  0.00     0.181 C 
HETATM   31  C12 UNL     1      -6.636  18.504  27.878  1.00  0.00     0.035 C 
HETATM   32  C13 UNL     1      -5.302  18.100  27.373  1.00  0.00     0.004 C 
HETATM   33  C14 UNL     1      -5.276  16.862  26.540  1.00  0.00     0.020 C 
HETATM   34  C15 UNL     1      -6.357  16.738  25.541  1.00  0.00     0.129 C 
HETATM   35  N3  UNL     1      -7.546  17.521  25.803  1.00  0.00    -0.315 N 
HETATM   36  C16 UNL     1      -8.396  17.800  24.694  1.00  0.00     0.363 C 
HETATM   37  O5  UNL     1      -9.458  18.479  24.840  1.00  0.00    -0.238 OA
BRANCH  36  38
HETATM   38  O6  UNL     1      -8.131  17.363  23.419  1.00  0.00    -0.298 OA
BRANCH  38  39
HETATM   39  C17 UNL     1      -8.043  18.108  22.253  1.00  0.00     0.137 C 
HETATM   40  C18 UNL     1      -6.727  18.897  22.356  1.00  0.00     0.041 C 
BRANCH  39  41
HETATM   41  C19 UNL     1      -8.033  17.270  20.995  1.00  0.00    -0.025 C 
HETATM   42  C20 UNL     1      -9.415  16.756  20.667  1.00  0.00     0.017 C 
HETATM   43  C21 UNL     1      -7.035  16.133  21.092  1.00  0.00     0.017 C 
HETATM   44  C22 UNL     1      -7.586  18.161  19.854  1.00  0.00     0.017 C 
ENDBRANCH  39  41
ENDBRANCH  38  39
ENDBRANCH  36  38
ENDBRANCH  27  30
ENDBRANCH   1  26
TORSDOF 13
ENDMDL
