MODEL 1
REMARK VINA RESULT: -8.415723223      0.000      0.000
REMARK  14 active torsions:
REMARK  status: ('A' for Active; 'I' for Inactive)
REMARK    1  A    between atoms: C2_2  and  C4_4 
REMARK    2  A    between atoms: C4_4  and  C5_5 
REMARK    3  A    between atoms: C4_4  and  C23_34 
REMARK    4  A    between atoms: C5_5  and  C6_6 
REMARK    5  A    between atoms: C6_6  and  O1_7 
REMARK    6  A    between atoms: C6_6  and  C7_9 
REMARK    7  A    between atoms: C7_9  and  N1_10 
REMARK    8  A    between atoms: C7_9  and  S1_30 
REMARK       I    between atoms: N1_10  and  C8_12 
REMARK    9  A    between atoms: C8_12  and  C9_14 
REMARK   10  A    between atoms: C9_14  and  N2_15 
REMARK   11  A    between atoms: C9_14  and  C15_23 
REMARK       I    between atoms: N2_15  and  C10_17 
REMARK   12  A    between atoms: C10_17  and  C11_19 
REMARK   13  A    between atoms: C15_23  and  C18_26 
REMARK       I    between atoms: C23_34  and  N3_36 
REMARK   14  A    between atoms: N3_36  and  C24_38 
ROOT
HETATM    1  C7  UNL     1      -8.453  15.815  26.963  1.00  0.00     0.235 C 
ENDROOT
BRANCH   1   2
HETATM    2  C6  UNL     1      -8.934  14.411  27.268  1.00  0.00     0.156 C 
BRANCH   2   3
HETATM    3  C5  UNL     1     -10.040  14.343  28.253  1.00  0.00     0.049 C 
BRANCH   3   4
HETATM    4  C4  UNL     1     -11.042  15.453  28.178  1.00  0.00     0.083 C 
BRANCH   4   5
HETATM    5  C2  UNL     1     -12.390  14.866  27.814  1.00  0.00    -0.010 C 
HETATM    6  C1  UNL     1     -12.377  13.362  27.830  1.00  0.00     0.010 C 
HETATM    7  C3  UNL     1     -13.560  15.478  28.490  1.00  0.00     0.010 C 
ENDBRANCH   4   5
BRANCH   4   8
HETATM    8  C23 UNL     1     -11.136  16.287  29.363  1.00  0.00     0.222 C 
HETATM    9  O6  UNL     1     -11.476  17.518  29.362  1.00  0.00    -0.273 OA
HETATM   10  N3  UNL     1     -10.843  15.757  30.637  1.00  0.00    -0.356 N 
ATOM     11  H3  UNL     1     -10.574  14.776  30.693  1.00  0.00     0.162 HD
BRANCH  10  12
HETATM   12  C24 UNL     1     -10.899  16.520  31.880  1.00  0.00     0.084 C 
HETATM   13  C25 UNL     1      -9.585  17.199  32.165  1.00  0.00     0.025 C 
HETATM   14  C26 UNL     1      -8.720  16.425  33.122  1.00  0.00     0.002 C 
HETATM   15  C27 UNL     1      -9.378  16.128  34.429  1.00  0.00     0.000 C 
HETATM   16  C28 UNL     1     -10.841  16.418  34.304  1.00  0.00     0.002 C 
HETATM   17  C29 UNL     1     -11.388  15.731  33.047  1.00  0.00     0.025 C 
ENDBRANCH  10  12
ENDBRANCH   4   8
ENDBRANCH   3   4
ENDBRANCH   2   3
BRANCH   2  18
HETATM   18  O1  UNL     1      -7.771  13.814  27.851  1.00  0.00    -0.392 OA
ATOM     19  H1  UNL     1      -7.124  14.494  27.993  1.00  0.00     0.210 HD
ENDBRANCH   2  18
ENDBRANCH   1   2
BRANCH   1  20
HETATM   20  N1  UNL     1      -7.823  15.933  25.662  1.00  0.00    -0.339 N 
HETATM   21  C8  UNL     1      -8.014  16.996  24.783  1.00  0.00     0.242 C 
HETATM   22  O2  UNL     1      -8.819  17.905  25.246  1.00  0.00    -0.271 OA
ATOM     23  H1  UNL     1      -7.195  15.184  25.370  1.00  0.00     0.164 HD
BRANCH  21  24
HETATM   24  C9  UNL     1      -7.442  17.234  23.434  1.00  0.00     0.185 C 
BRANCH  24  25
HETATM   25  N2  UNL     1      -6.002  17.199  23.554  1.00  0.00    -0.346 N 
HETATM   26  C10 UNL     1      -5.169  18.330  23.728  1.00  0.00     0.226 C 
HETATM   27  O3  UNL     1      -5.756  19.467  23.769  1.00  0.00    -0.273 OA
ATOM     28  H2  UNL     1      -5.550  16.286  23.509  1.00  0.00     0.163 HD
BRANCH  26  29
HETATM   29  C11 UNL     1      -3.714  18.322  23.867  1.00  0.00     0.030 C 
HETATM   30  C12 UNL     1      -3.161  17.787  22.536  1.00  0.00     0.024 C 
HETATM   31  C13 UNL     1      -3.263  17.427  25.015  1.00  0.00     0.024 C 
HETATM   32  C14 UNL     1      -3.065  19.651  24.073  1.00  0.00     0.024 C 
ENDBRANCH  26  29
ENDBRANCH  24  25
BRANCH  24  33
HETATM   33  C15 UNL     1      -8.054  16.546  22.300  1.00  0.00    -0.012 C 
HETATM   34  C16 UNL     1      -7.613  15.102  22.266  1.00  0.00     0.018 C 
HETATM   35  C17 UNL     1      -9.601  16.504  22.444  1.00  0.00     0.018 C 
BRANCH  33  36
HETATM   36  C18 UNL     1      -7.754  17.108  20.921  1.00  0.00    -0.042 C 
HETATM   37  C19 UNL     1      -7.593  18.615  20.937  1.00  0.00     0.015 C 
HETATM   38  C20 UNL     1      -8.960  16.866  20.003  1.00  0.00     0.015 C 
HETATM   39  C21 UNL     1      -6.568  16.511  20.253  1.00  0.00     0.015 C 
ENDBRANCH  33  36
ENDBRANCH  24  33
ENDBRANCH  21  24
ENDBRANCH   1  20
BRANCH   1  40
HETATM   40  S1  UNL     1      -7.474  16.445  28.276  1.00  0.00     0.164 S 
HETATM   41  C22 UNL     1      -7.699  18.230  28.424  1.00  0.00     0.163 C 
HETATM   42  O4  UNL     1      -7.850  15.868  29.604  1.00  0.00    -0.226 OA
HETATM   43  O5  UNL     1      -6.024  16.159  27.973  1.00  0.00    -0.226 OA
ENDBRANCH   1  40
TORSDOF 14
ENDMDL
MODEL 2
REMARK VINA RESULT: -8.205548557      2.386     10.075
REMARK  14 active torsions:
REMARK  status: ('A' for Active; 'I' for Inactive)
REMARK    1  A    between atoms: C2_2  and  C4_4 
REMARK    2  A    between atoms: C4_4  and  C5_5 
REMARK    3  A    between atoms: C4_4  and  C23_34 
REMARK    4  A    between atoms: C5_5  and  C6_6 
REMARK    5  A    between atoms: C6_6  and  O1_7 
REMARK    6  A    between atoms: C6_6  and  C7_9 
REMARK    7  A    between atoms: C7_9  and  N1_10 
REMARK    8  A    between atoms: C7_9  and  S1_30 
REMARK       I    between atoms: N1_10  and  C8_12 
REMARK    9  A    between atoms: C8_12  and  C9_14 
REMARK   10  A    between atoms: C9_14  and  N2_15 
REMARK   11  A    between atoms: C9_14  and  C15_23 
REMARK       I    between atoms: N2_15  and  C10_17 
REMARK   12  A    between atoms: C10_17  and  C11_19 
REMARK   13  A    between atoms: C15_23  and  C18_26 
REMARK       I    between atoms: C23_34  and  N3_36 
REMARK   14  A    between atoms: N3_36  and  C24_38 
ROOT
HETATM    1  C7  UNL     1      -9.389  15.304  28.882  1.00  0.00     0.235 C 
ENDROOT
BRANCH   1   2
HETATM    2  C6  UNL     1      -7.909  15.094  28.634  1.00  0.00     0.156 C 
BRANCH   2   3
HETATM    3  C5  UNL     1      -7.335  15.962  27.579  1.00  0.00     0.049 C 
BRANCH   3   4
HETATM    4  C4  UNL     1      -7.778  17.393  27.606  1.00  0.00     0.083 C 
BRANCH   4   5
HETATM    5  C2  UNL     1      -6.580  18.266  27.918  1.00  0.00    -0.010 C 
HETATM    6  C1  UNL     1      -5.296  17.482  27.934  1.00  0.00     0.010 C 
HETATM    7  C3  UNL     1      -6.510  19.546  27.173  1.00  0.00     0.010 C 
ENDBRANCH   4   5
BRANCH   4   8
HETATM    8  C23 UNL     1      -8.466  17.853  26.414  1.00  0.00     0.222 C 
HETATM    9  O6  UNL     1      -9.325  18.797  26.387  1.00  0.00    -0.273 OA
HETATM   10  N3  UNL     1      -8.213  17.253  25.163  1.00  0.00    -0.356 N 
ATOM     11  H3  UNL     1      -7.528  16.498  25.128  1.00  0.00     0.162 HD
BRANCH  10  12
HETATM   12  C24 UNL     1      -8.863  17.639  23.915  1.00  0.00     0.084 C 
HETATM   13  C25 UNL     1      -9.979  16.692  23.563  1.00  0.00     0.025 C 
HETATM   14  C26 UNL     1      -9.563  15.636  22.577  1.00  0.00     0.002 C 
HETATM   15  C27 UNL     1      -9.003  16.181  21.304  1.00  0.00     0.000 C 
HETATM   16  C28 UNL     1      -8.723  17.639  21.492  1.00  0.00     0.002 C 
HETATM   17  C29 UNL     1      -7.916  17.838  22.781  1.00  0.00     0.025 C 
ENDBRANCH  10  12
ENDBRANCH   4   8
ENDBRANCH   3   4
ENDBRANCH   2   3
BRANCH   2  18
HETATM   18  O1  UNL     1      -7.869  13.739  28.178  1.00  0.00    -0.392 OA
ATOM     19  H1  UNL     1      -8.713  13.338  28.350  1.00  0.00     0.210 HD
ENDBRANCH   2  18
ENDBRANCH   1   2
BRANCH   1  20
HETATM   20  N1  UNL     1      -9.840  14.756  30.147  1.00  0.00    -0.339 N 
HETATM   21  C8  UNL     1     -10.789  15.352  30.973  1.00  0.00     0.242 C 
HETATM   22  O2  UNL     1     -11.258  16.466  30.497  1.00  0.00    -0.271 OA
ATOM     23  H1  UNL     1      -9.433  13.872  30.452  1.00  0.00     0.164 HD
BRANCH  21  24
HETATM   24  C9  UNL     1     -11.330  14.905  32.282  1.00  0.00     0.185 C 
BRANCH  24  25
HETATM   25  N2  UNL     1     -11.907  13.593  32.096  1.00  0.00    -0.346 N 
HETATM   26  C10 UNL     1     -13.270  13.332  31.817  1.00  0.00     0.226 C 
HETATM   27  O3  UNL     1     -14.038  14.353  31.737  1.00  0.00    -0.273 OA
ATOM     28  H2  UNL     1     -11.282  12.791  32.173  1.00  0.00     0.163 HD
BRANCH  26  29
HETATM   29  C11 UNL     1     -13.876  12.019  31.608  1.00  0.00     0.030 C 
HETATM   30  C12 UNL     1     -13.758  11.277  32.950  1.00  0.00     0.024 C 
HETATM   31  C13 UNL     1     -13.160  11.234  30.515  1.00  0.00     0.024 C 
HETATM   32  C14 UNL     1     -15.330  12.012  31.265  1.00  0.00     0.024 C 
ENDBRANCH  26  29
ENDBRANCH  24  25
BRANCH  24  33
HETATM   33  C15 UNL     1     -10.515  15.134  33.473  1.00  0.00    -0.012 C 
HETATM   34  C16 UNL     1      -9.319  14.213  33.473  1.00  0.00     0.018 C 
HETATM   35  C17 UNL     1      -9.930  16.575  33.478  1.00  0.00     0.018 C 
BRANCH  33  36
HETATM   36  C18 UNL     1     -11.198  14.931  34.814  1.00  0.00    -0.042 C 
HETATM   37  C19 UNL     1     -12.655  15.349  34.786  1.00  0.00     0.015 C 
HETATM   38  C20 UNL     1     -10.559  15.860  35.855  1.00  0.00     0.015 C 
HETATM   39  C21 UNL     1     -11.113  13.547  35.350  1.00  0.00     0.015 C 
ENDBRANCH  33  36
ENDBRANCH  24  33
ENDBRANCH  21  24
ENDBRANCH   1  20
BRANCH   1  40
HETATM   40  S1  UNL     1     -10.340  14.769  27.508  1.00  0.00     0.164 S 
HETATM   41  C22 UNL     1     -11.646  15.962  27.148  1.00  0.00     0.163 C 
HETATM   42  O4  UNL     1      -9.528  14.653  26.256  1.00  0.00    -0.226 OA
HETATM   43  O5  UNL     1     -10.970  13.442  27.847  1.00  0.00    -0.226 OA
ENDBRANCH   1  40
TORSDOF 14
ENDMDL
MODEL 3
REMARK VINA RESULT: -8.014644953      2.285      9.612
REMARK  14 active torsions:
REMARK  status: ('A' for Active; 'I' for Inactive)
REMARK    1  A    between atoms: C2_2  and  C4_4 
REMARK    2  A    between atoms: C4_4  and  C5_5 
REMARK    3  A    between atoms: C4_4  and  C23_34 
REMARK    4  A    between atoms: C5_5  and  C6_6 
REMARK    5  A    between atoms: C6_6  and  O1_7 
REMARK    6  A    between atoms: C6_6  and  C7_9 
REMARK    7  A    between atoms: C7_9  and  N1_10 
REMARK    8  A    between atoms: C7_9  and  S1_30 
REMARK       I    between atoms: N1_10  and  C8_12 
REMARK    9  A    between atoms: C8_12  and  C9_14 
REMARK   10  A    between atoms: C9_14  and  N2_15 
REMARK   11  A    between atoms: C9_14  and  C15_23 
REMARK       I    between atoms: N2_15  and  C10_17 
REMARK   12  A    between atoms: C10_17  and  C11_19 
REMARK   13  A    between atoms: C15_23  and  C18_26 
REMARK       I    between atoms: C23_34  and  N3_36 
REMARK   14  A    between atoms: N3_36  and  C24_38 
ROOT
HETATM    1  C7  UNL     1     -10.190  17.074  27.352  1.00  0.00     0.235 C 
ENDROOT
BRANCH   1   2
HETATM    2  C6  UNL     1      -9.260  18.258  27.181  1.00  0.00     0.156 C 
BRANCH   2   3
HETATM    3  C5  UNL     1      -8.213  18.370  28.224  1.00  0.00     0.049 C 
BRANCH   3   4
HETATM    4  C4  UNL     1      -6.800  18.366  27.726  1.00  0.00     0.083 C 
BRANCH   4   5
HETATM    5  C2  UNL     1      -6.237  16.967  27.876  1.00  0.00    -0.010 C 
HETATM    6  C1  UNL     1      -4.741  16.972  28.030  1.00  0.00     0.010 C 
HETATM    7  C3  UNL     1      -6.952  16.088  28.832  1.00  0.00     0.010 C 
ENDBRANCH   4   5
BRANCH   4   8
HETATM    8  C23 UNL     1      -6.615  18.864  26.376  1.00  0.00     0.222 C 
HETATM    9  O6  UNL     1      -6.273  20.058  26.080  1.00  0.00    -0.273 OA
HETATM   10  N3  UNL     1      -6.815  18.017  25.265  1.00  0.00    -0.356 N 
ATOM     11  H3  UNL     1      -7.082  17.050  25.448  1.00  0.00     0.162 HD
BRANCH  10  12
HETATM   12  C24 UNL     1      -6.664  18.431  23.874  1.00  0.00     0.084 C 
HETATM   13  C25 UNL     1      -7.845  18.001  23.044  1.00  0.00     0.025 C 
HETATM   14  C26 UNL     1      -7.600  16.721  22.294  1.00  0.00     0.002 C 
HETATM   15  C27 UNL     1      -6.402  16.759  21.404  1.00  0.00     0.000 C 
HETATM   16  C28 UNL     1      -5.592  17.971  21.746  1.00  0.00     0.002 C 
HETATM   17  C29 UNL     1      -5.368  18.019  23.263  1.00  0.00     0.025 C 
ENDBRANCH  10  12
ENDBRANCH   4   8
ENDBRANCH   3   4
ENDBRANCH   2   3
BRANCH   2  18
HETATM   18  O1  UNL     1     -10.154  19.366  27.316  1.00  0.00    -0.392 OA
ATOM     19  H1  UNL     1      -9.901  20.034  26.690  1.00  0.00     0.210 HD
ENDBRANCH   2  18
ENDBRANCH   1   2
BRANCH   1  20
HETATM   20  N1  UNL     1     -10.101  16.461  28.663  1.00  0.00    -0.339 N 
HETATM   21  C8  UNL     1     -11.184  16.248  29.512  1.00  0.00     0.242 C 
HETATM   22  O2  UNL     1     -12.315  16.644  29.011  1.00  0.00    -0.271 OA
ATOM     23  H1  UNL     1      -9.180  16.166  28.987  1.00  0.00     0.164 HD
BRANCH  21  24
HETATM   24  C9  UNL     1     -11.230  15.643  30.868  1.00  0.00     0.185 C 
BRANCH  24  25
HETATM   25  N2  UNL     1     -11.761  14.306  30.736  1.00  0.00    -0.346 N 
HETATM   26  C10 UNL     1     -13.067  13.905  31.107  1.00  0.00     0.226 C 
HETATM   27  O3  UNL     1     -13.818  14.813  31.607  1.00  0.00    -0.273 OA
ATOM     28  H2  UNL     1     -11.145  13.593  30.345  1.00  0.00     0.163 HD
BRANCH  26  29
HETATM   29  C11 UNL     1     -13.634  12.565  30.970  1.00  0.00     0.030 C 
HETATM   30  C12 UNL     1     -13.518  11.910  32.356  1.00  0.00     0.024 C 
HETATM   31  C13 UNL     1     -12.880  11.736  29.937  1.00  0.00     0.024 C 
HETATM   32  C14 UNL     1     -15.081  12.497  30.608  1.00  0.00     0.024 C 
ENDBRANCH  26  29
ENDBRANCH  24  25
BRANCH  24  33
HETATM   33  C15 UNL     1     -10.077  15.842  31.744  1.00  0.00    -0.012 C 
HETATM   34  C16 UNL     1      -9.029  14.789  31.476  1.00  0.00     0.018 C 
HETATM   35  C17 UNL     1      -9.384  17.202  31.452  1.00  0.00     0.018 C 
BRANCH  33  36
HETATM   36  C18 UNL     1     -10.344  15.795  33.239  1.00  0.00    -0.042 C 
HETATM   37  C19 UNL     1      -9.382  16.666  34.022  1.00  0.00     0.015 C 
HETATM   38  C20 UNL     1     -10.076  14.375  33.757  1.00  0.00     0.015 C 
HETATM   39  C21 UNL     1     -11.733  16.150  33.632  1.00  0.00     0.015 C 
ENDBRANCH  33  36
ENDBRANCH  24  33
ENDBRANCH  21  24
ENDBRANCH   1  20
BRANCH   1  40
HETATM   40  S1  UNL     1     -10.007  15.933  26.031  1.00  0.00     0.164 S 
HETATM   41  C22 UNL     1     -10.819  16.559  24.545  1.00  0.00     0.163 C 
HETATM   42  O4  UNL     1      -8.575  15.708  25.658  1.00  0.00    -0.226 OA
HETATM   43  O5  UNL     1     -10.653  14.630  26.429  1.00  0.00    -0.226 OA
ENDBRANCH   1  40
TORSDOF 14
ENDMDL
MODEL 4
REMARK VINA RESULT: -7.973232371      1.355      2.258
REMARK  14 active torsions:
REMARK  status: ('A' for Active; 'I' for Inactive)
REMARK    1  A    between atoms: C2_2  and  C4_4 
REMARK    2  A    between atoms: C4_4  and  C5_5 
REMARK    3  A    between atoms: C4_4  and  C23_34 
REMARK    4  A    between atoms: C5_5  and  C6_6 
REMARK    5  A    between atoms: C6_6  and  O1_7 
REMARK    6  A    between atoms: C6_6  and  C7_9 
REMARK    7  A    between atoms: C7_9  and  N1_10 
REMARK    8  A    between atoms: C7_9  and  S1_30 
REMARK       I    between atoms: N1_10  and  C8_12 
REMARK    9  A    between atoms: C8_12  and  C9_14 
REMARK   10  A    between atoms: C9_14  and  N2_15 
REMARK   11  A    between atoms: C9_14  and  C15_23 
REMARK       I    between atoms: N2_15  and  C10_17 
REMARK   12  A    between atoms: C10_17  and  C11_19 
REMARK   13  A    between atoms: C15_23  and  C18_26 
REMARK       I    between atoms: C23_34  and  N3_36 
REMARK   14  A    between atoms: N3_36  and  C24_38 
ROOT
HETATM    1  C7  UNL     1      -7.424  17.825  27.078  1.00  0.00     0.235 C 
ENDROOT
BRANCH   1   2
HETATM    2  C6  UNL     1      -8.857  18.211  27.384  1.00  0.00     0.156 C 
BRANCH   2   3
HETATM    3  C5  UNL     1      -9.869  17.517  26.553  1.00  0.00     0.049 C 
BRANCH   3   4
HETATM    4  C4  UNL     1     -10.838  16.652  27.301  1.00  0.00     0.083 C 
BRANCH   4   5
HETATM    5  C2  UNL     1     -10.381  15.212  27.198  1.00  0.00    -0.010 C 
HETATM    6  C1  UNL     1     -11.490  14.242  27.502  1.00  0.00     0.010 C 
HETATM    7  C3  UNL     1      -9.584  14.877  25.993  1.00  0.00     0.010 C 
ENDBRANCH   4   5
BRANCH   4   8
HETATM    8  C23 UNL     1     -11.072  17.031  28.682  1.00  0.00     0.222 C 
HETATM    9  O6  UNL     1     -11.710  18.073  29.054  1.00  0.00    -0.273 OA
HETATM   10  N3  UNL     1     -10.583  16.232  29.737  1.00  0.00    -0.356 N 
ATOM     11  H3  UNL     1     -10.073  15.384  29.494  1.00  0.00     0.162 HD
BRANCH  10  12
HETATM   12  C24 UNL     1     -10.759  16.538  31.154  1.00  0.00     0.084 C 
HETATM   13  C25 UNL     1      -9.455  16.444  31.900  1.00  0.00     0.025 C 
HETATM   14  C26 UNL     1      -9.271  15.124  32.596  1.00  0.00     0.002 C 
HETATM   15  C27 UNL     1     -10.371  14.782  33.547  1.00  0.00     0.000 C 
HETATM   16  C28 UNL     1     -11.516  15.715  33.308  1.00  0.00     0.002 C 
HETATM   17  C29 UNL     1     -11.840  15.746  31.809  1.00  0.00     0.025 C 
ENDBRANCH  10  12
ENDBRANCH   4   8
ENDBRANCH   3   4
ENDBRANCH   2   3
BRANCH   2  18
HETATM   18  O1  UNL     1      -8.873  19.602  27.050  1.00  0.00    -0.392 OA
ATOM     19  H1  UNL     1      -9.656  19.780  26.543  1.00  0.00     0.210 HD
ENDBRANCH   2  18
ENDBRANCH   1   2
BRANCH   1  20
HETATM   20  N1  UNL     1      -7.233  17.373  25.714  1.00  0.00    -0.339 N 
HETATM   21  C8  UNL     1      -6.719  18.158  24.685  1.00  0.00     0.242 C 
HETATM   22  O2  UNL     1      -6.406  19.361  25.065  1.00  0.00    -0.271 OA
ATOM     23  H1  UNL     1      -7.493  16.412  25.492  1.00  0.00     0.164 HD
BRANCH  21  24
HETATM   24  C9  UNL     1      -6.480  17.826  23.258  1.00  0.00     0.185 C 
BRANCH  24  25
HETATM   25  N2  UNL     1      -5.103  17.410  23.127  1.00  0.00    -0.346 N 
HETATM   26  C10 UNL     1      -4.034  18.240  22.711  1.00  0.00     0.226 C 
HETATM   27  O3  UNL     1      -4.336  19.450  22.421  1.00  0.00    -0.273 OA
ATOM     28  H2  UNL     1      -4.882  16.440  23.353  1.00  0.00     0.163 HD
BRANCH  26  29
HETATM   29  C11 UNL     1      -2.631  17.850  22.586  1.00  0.00     0.030 C 
HETATM   30  C12 UNL     1      -2.237  17.235  23.939  1.00  0.00     0.024 C 
HETATM   31  C13 UNL     1      -1.739  19.048  22.279  1.00  0.00     0.024 C 
HETATM   32  C14 UNL     1      -2.326  16.809  21.560  1.00  0.00     0.024 C 
ENDBRANCH  26  29
ENDBRANCH  24  25
BRANCH  24  33
HETATM   33  C15 UNL     1      -7.501  17.051  22.556  1.00  0.00    -0.012 C 
HETATM   34  C16 UNL     1      -7.351  15.582  22.872  1.00  0.00     0.018 C 
HETATM   35  C17 UNL     1      -8.926  17.438  23.044  1.00  0.00     0.018 C 
BRANCH  33  36
HETATM   36  C18 UNL     1      -7.511  17.154  21.041  1.00  0.00    -0.042 C 
HETATM   37  C19 UNL     1      -8.832  16.712  20.443  1.00  0.00     0.015 C 
HETATM   38  C20 UNL     1      -6.485  16.170  20.460  1.00  0.00     0.015 C 
HETATM   39  C21 UNL     1      -7.177  18.501  20.509  1.00  0.00     0.015 C 
ENDBRANCH  33  36
ENDBRANCH  24  33
ENDBRANCH  21  24
ENDBRANCH   1  20
BRANCH   1  40
HETATM   40  S1  UNL     1      -6.803  16.708  28.280  1.00  0.00     0.164 S 
HETATM   41  C22 UNL     1      -5.061  17.049  28.611  1.00  0.00     0.163 C 
HETATM   42  O4  UNL     1      -7.506  16.826  29.596  1.00  0.00    -0.226 OA
HETATM   43  O5  UNL     1      -6.932  15.304  27.743  1.00  0.00    -0.226 OA
ENDBRANCH   1  40
TORSDOF 14
ENDMDL
MODEL 5
REMARK VINA RESULT: -7.944946762      2.169      3.396
REMARK  14 active torsions:
REMARK  status: ('A' for Active; 'I' for Inactive)
REMARK    1  A    between atoms: C2_2  and  C4_4 
REMARK    2  A    between atoms: C4_4  and  C5_5 
REMARK    3  A    between atoms: C4_4  and  C23_34 
REMARK    4  A    between atoms: C5_5  and  C6_6 
REMARK    5  A    between atoms: C6_6  and  O1_7 
REMARK    6  A    between atoms: C6_6  and  C7_9 
REMARK    7  A    between atoms: C7_9  and  N1_10 
REMARK    8  A    between atoms: C7_9  and  S1_30 
REMARK       I    between atoms: N1_10  and  C8_12 
REMARK    9  A    between atoms: C8_12  and  C9_14 
REMARK   10  A    between atoms: C9_14  and  N2_15 
REMARK   11  A    between atoms: C9_14  and  C15_23 
REMARK       I    between atoms: N2_15  and  C10_17 
REMARK   12  A    between atoms: C10_17  and  C11_19 
REMARK   13  A    between atoms: C15_23  and  C18_26 
REMARK       I    between atoms: C23_34  and  N3_36 
REMARK   14  A    between atoms: N3_36  and  C24_38 
ROOT
HETATM    1  C7  UNL     1      -8.486  16.287  27.109  1.00  0.00     0.235 C 
ENDROOT
BRANCH   1   2
HETATM    2  C6  UNL     1      -9.194  15.019  27.542  1.00  0.00     0.156 C 
BRANCH   2   3
HETATM    3  C5  UNL     1     -10.318  15.236  28.483  1.00  0.00     0.049 C 
BRANCH   3   4
HETATM    4  C4  UNL     1     -10.483  14.193  29.546  1.00  0.00     0.083 C 
BRANCH   4   5
HETATM    5  C2  UNL     1     -10.617  14.884  30.887  1.00  0.00    -0.010 C 
HETATM    6  C1  UNL     1      -9.439  14.616  31.783  1.00  0.00     0.010 C 
HETATM    7  C3  UNL     1     -11.041  16.304  30.836  1.00  0.00     0.010 C 
ENDBRANCH   4   5
BRANCH   4   8
HETATM    8  C23 UNL     1     -11.567  13.252  29.330  1.00  0.00     0.222 C 
HETATM    9  O6  UNL     1     -11.877  12.744  28.201  1.00  0.00    -0.273 OA
HETATM   10  N3  UNL     1     -12.375  12.831  30.407  1.00  0.00    -0.356 N 
ATOM     11  H3  UNL     1     -12.164  13.202  31.333  1.00  0.00     0.162 HD
BRANCH  10  12
HETATM   12  C24 UNL     1     -13.492  11.899  30.285  1.00  0.00     0.084 C 
HETATM   13  C25 UNL     1     -14.767  12.501  30.815  1.00  0.00     0.025 C 
HETATM   14  C26 UNL     1     -15.068  12.086  32.228  1.00  0.00     0.002 C 
HETATM   15  C27 UNL     1     -15.142  10.608  32.424  1.00  0.00     0.000 C 
HETATM   16  C28 UNL     1     -14.582   9.937  31.209  1.00  0.00     0.002 C 
HETATM   17  C29 UNL     1     -13.219  10.556  30.871  1.00  0.00     0.025 C 
ENDBRANCH  10  12
ENDBRANCH   4   8
ENDBRANCH   3   4
ENDBRANCH   2   3
BRANCH   2  18
HETATM   18  O1  UNL     1      -8.156  14.315  28.230  1.00  0.00    -0.392 OA
ATOM     19  H1  UNL     1      -7.706  14.925  28.802  1.00  0.00     0.210 HD
ENDBRANCH   2  18
ENDBRANCH   1   2
BRANCH   1  20
HETATM   20  N1  UNL     1      -7.940  16.207  25.768  1.00  0.00    -0.339 N 
HETATM   21  C8  UNL     1      -8.009  17.227  24.823  1.00  0.00     0.242 C 
HETATM   22  O2  UNL     1      -8.610  18.292  25.262  1.00  0.00    -0.271 OA
ATOM     23  H1  UNL     1      -7.472  15.342  25.497  1.00  0.00     0.164 HD
BRANCH  21  24
HETATM   24  C9  UNL     1      -7.503  17.273  23.428  1.00  0.00     0.185 C 
BRANCH  24  25
HETATM   25  N2  UNL     1      -6.063  17.159  23.477  1.00  0.00    -0.346 N 
HETATM   26  C10 UNL     1      -5.159  18.245  23.556  1.00  0.00     0.226 C 
HETATM   27  O3  UNL     1      -5.678  19.415  23.573  1.00  0.00    -0.273 OA
ATOM     28  H2  UNL     1      -5.667  16.219  23.453  1.00  0.00     0.163 HD
BRANCH  26  29
HETATM   29  C11 UNL     1      -3.701  18.157  23.624  1.00  0.00     0.030 C 
HETATM   30  C12 UNL     1      -3.203  19.578  23.935  1.00  0.00     0.024 C 
HETATM   31  C13 UNL     1      -3.105  17.673  22.307  1.00  0.00     0.024 C 
HETATM   32  C14 UNL     1      -3.143  17.284  24.699  1.00  0.00     0.024 C 
ENDBRANCH  26  29
ENDBRANCH  24  25
BRANCH  24  33
HETATM   33  C15 UNL     1      -8.219  16.501  22.415  1.00  0.00    -0.012 C 
HETATM   34  C16 UNL     1      -7.751  15.066  22.425  1.00  0.00     0.018 C 
HETATM   35  C17 UNL     1      -9.740  16.445  22.732  1.00  0.00     0.018 C 
BRANCH  33  36
HETATM   36  C18 UNL     1      -8.085  16.975  20.978  1.00  0.00    -0.042 C 
HETATM   37  C19 UNL     1      -6.855  16.406  20.298  1.00  0.00     0.015 C 
HETATM   38  C20 UNL     1      -7.857  18.493  20.965  1.00  0.00     0.015 C 
HETATM   39  C21 UNL     1      -9.269  16.701  20.122  1.00  0.00     0.015 C 
ENDBRANCH  33  36
ENDBRANCH  24  33
ENDBRANCH  21  24
ENDBRANCH   1  20
BRANCH   1  40
HETATM   40  S1  UNL     1      -7.314  16.797  28.312  1.00  0.00     0.164 S 
HETATM   41  C22 UNL     1      -7.021  18.574  28.188  1.00  0.00     0.163 C 
HETATM   42  O4  UNL     1      -7.782  16.551  29.713  1.00  0.00    -0.226 OA
HETATM   43  O5  UNL     1      -6.018  16.068  28.060  1.00  0.00    -0.226 OA
ENDBRANCH   1  40
TORSDOF 14
ENDMDL
