MODEL 1
REMARK VINA RESULT: -9.092805855      0.000      0.000
REMARK  10 active torsions:
REMARK  status: ('A' for Active; 'I' for Inactive)
REMARK    1  A    between atoms: C3_3  and  N1_4 
REMARK       I    between atoms: N1_4  and  C4_6 
REMARK    2  A    between atoms: C4_6  and  C5_8 
REMARK    3  A    between atoms: C5_8  and  C6_9 
REMARK    4  A    between atoms: C8_11  and  C10_13 
REMARK    5  A    between atoms: C19_24  and  C20_25 
REMARK       I    between atoms: C20_25  and  N2_27 
REMARK    6  A    between atoms: N2_27  and  C21_29 
REMARK    7  A    between atoms: C21_29  and  C22_30 
REMARK    8  A    between atoms: C22_30  and  C23_31 
REMARK    9  A    between atoms: C23_31  and  C24_32 
REMARK   10  A    between atoms: C24_32  and  C25_33 
ROOT
HETATM    1  C1  UNL     1      -6.188  18.650  22.453  1.00  0.00     0.014 C 
HETATM    2  C2  UNL     1      -5.631  19.153  23.390  1.00  0.00    -0.098 C 
HETATM    3  C3  UNL     1      -4.967  19.768  24.563  1.00  0.00     0.216 C 
ENDROOT
BRANCH   3   4
HETATM    4  N1  UNL     1      -5.907  19.931  25.646  1.00  0.00    -0.351 N 
HETATM    5  C4  UNL     1      -6.008  18.965  26.685  1.00  0.00     0.220 C 
HETATM    6  O1  UNL     1      -5.259  17.962  26.639  1.00  0.00    -0.274 OA
ATOM      7  H1  UNL     1      -6.510  20.753  25.667  1.00  0.00     0.163 HD
BRANCH   5   8
HETATM    8  C5  UNL     1      -6.961  19.107  27.807  1.00  0.00     0.134 C 
BRANCH   8   9
HETATM    9  C6  UNL     1      -8.268  18.401  27.430  1.00  0.00     0.132 C 
HETATM   10  C7  UNL     1      -8.149  17.544  26.223  1.00  0.00     0.053 C 
HETATM   11  C8  UNL     1      -8.694  16.159  26.502  1.00  0.00     0.053 C 
HETATM   12  C9  UNL     1      -7.549  15.393  27.117  1.00  0.00     0.027 C 
HETATM   13  C11 UNL     1      -9.932  16.150  27.371  1.00  0.00     0.039 C 
HETATM   14  C12 UNL     1     -10.173  14.725  27.782  1.00  0.00     0.009 C 
HETATM   15  C31 UNL     1      -9.960  17.159  28.449  1.00  0.00     0.066 C 
HETATM   16  C13 UNL     1     -11.622  14.413  28.059  1.00  0.00     0.001 C 
HETATM   17  C14 UNL     1     -12.194  15.251  29.180  1.00  0.00     0.005 C 
HETATM   18  C15 UNL     1     -11.128  15.627  30.146  1.00  0.00    -0.003 C 
HETATM   19  C16 UNL     1     -11.685  15.836  31.505  1.00  0.00    -0.001 C 
HETATM   20  C30 UNL     1     -10.322  16.824  29.815  1.00  0.00     0.025 C 
HETATM   21  C17 UNL     1     -12.610  14.859  32.074  1.00  0.00     0.007 C 
HETATM   22  C26 UNL     1     -10.571  15.821  32.566  1.00  0.00    -0.028 C 
HETATM   23  C18 UNL     1     -12.694  15.359  33.529  1.00  0.00     0.015 C 
HETATM   24  C19 UNL     1     -11.402  16.127  33.758  1.00  0.00     0.086 C 
HETATM   25  C27 UNL     1      -9.904  14.510  32.719  1.00  0.00     0.016 C 
HETATM   26  C28 UNL     1      -9.615  16.929  32.194  1.00  0.00     0.011 C 
HETATM   27  C29 UNL     1      -9.109  16.726  30.775  1.00  0.00     0.009 C 
HETATM   28  C32 UNL     1     -10.789  18.373  27.971  1.00  0.00     0.047 C 
HETATM   29  O7  UNL     1      -8.650  17.682  28.528  1.00  0.00    -0.374 OA
BRANCH  11  30
HETATM   30  C10 UNL     1      -9.026  15.586  25.178  1.00  0.00     0.182 C 
HETATM   31  O2  UNL     1      -8.181  14.920  24.553  1.00  0.00    -0.647 OA
HETATM   32  O3  UNL     1     -10.275  15.793  24.645  1.00  0.00    -0.647 OA
ENDBRANCH  11  30
BRANCH  24  33
HETATM   33  C20 UNL     1     -10.790  15.859  35.068  1.00  0.00     0.222 C 
HETATM   34  O4  UNL     1      -9.813  16.611  35.411  1.00  0.00    -0.273 OA
HETATM   35  N2  UNL     1     -11.185  14.849  35.975  1.00  0.00    -0.361 N 
ATOM     36  H2  UNL     1     -11.965  14.236  35.738  1.00  0.00     0.162 HD
BRANCH  35  37
HETATM   37  C21 UNL     1     -10.488  14.672  37.252  1.00  0.00     0.122 C 
BRANCH  37  38
HETATM   38  C22 UNL     1     -11.388  13.929  38.187  1.00  0.00     0.020 C 
BRANCH  38  39
HETATM   39  C23 UNL     1     -12.609  13.455  37.443  1.00  0.00     0.012 C 
BRANCH  39  40
HETATM   40  C24 UNL     1     -12.786  11.961  37.578  1.00  0.00     0.113 C 
BRANCH  40  41
HETATM   41  C25 UNL     1     -11.973  11.240  36.547  1.00  0.00     0.172 C 
HETATM   42  O5  UNL     1     -11.615  10.054  36.800  1.00  0.00    -0.648 OA
HETATM   43  O6  UNL     1     -11.619  11.833  35.356  1.00  0.00    -0.648 OA
ENDBRANCH  40  41
ENDBRANCH  39  40
ENDBRANCH  38  39
ENDBRANCH  37  38
ENDBRANCH  35  37
ENDBRANCH  24  33
ENDBRANCH   8   9
ENDBRANCH   5   8
ENDBRANCH   3   4
TORSDOF 10
ENDMDL
MODEL 2
REMARK VINA RESULT: -8.840261311      2.924     11.100
REMARK  10 active torsions:
REMARK  status: ('A' for Active; 'I' for Inactive)
REMARK    1  A    between atoms: C3_3  and  N1_4 
REMARK       I    between atoms: N1_4  and  C4_6 
REMARK    2  A    between atoms: C4_6  and  C5_8 
REMARK    3  A    between atoms: C5_8  and  C6_9 
REMARK    4  A    between atoms: C8_11  and  C10_13 
REMARK    5  A    between atoms: C19_24  and  C20_25 
REMARK       I    between atoms: C20_25  and  N2_27 
REMARK    6  A    between atoms: N2_27  and  C21_29 
REMARK    7  A    between atoms: C21_29  and  C22_30 
REMARK    8  A    between atoms: C22_30  and  C23_31 
REMARK    9  A    between atoms: C23_31  and  C24_32 
REMARK   10  A    between atoms: C24_32  and  C25_33 
ROOT
HETATM    1  C1  UNL     1     -12.960  10.817  35.257  1.00  0.00     0.014 C 
HETATM    2  C2  UNL     1     -13.393  10.522  34.177  1.00  0.00    -0.098 C 
HETATM    3  C3  UNL     1     -13.903  10.167  32.832  1.00  0.00     0.216 C 
ENDROOT
BRANCH   3   4
HETATM    4  N1  UNL     1     -13.041  10.706  31.808  1.00  0.00    -0.351 N 
HETATM    5  C4  UNL     1     -13.504  11.700  30.903  1.00  0.00     0.220 C 
HETATM    6  O1  UNL     1     -14.685  12.101  31.014  1.00  0.00    -0.274 OA
ATOM      7  H1  UNL     1     -12.082  10.367  31.731  1.00  0.00     0.163 HD
BRANCH   5   8
HETATM    8  C5  UNL     1     -12.641  12.271  29.846  1.00  0.00     0.134 C 
BRANCH   8   9
HETATM    9  C6  UNL     1     -12.499  13.778  30.093  1.00  0.00     0.132 C 
HETATM   10  C7  UNL     1     -12.125  14.115  31.490  1.00  0.00     0.053 C 
HETATM   11  C8  UNL     1     -10.936  15.052  31.508  1.00  0.00     0.053 C 
HETATM   12  C9  UNL     1      -9.721  14.162  31.432  1.00  0.00     0.027 C 
HETATM   13  C11 UNL     1     -10.960  16.095  30.412  1.00  0.00     0.039 C 
HETATM   14  C12 UNL     1      -9.606  16.745  30.391  1.00  0.00     0.009 C 
HETATM   15  C31 UNL     1     -11.492  15.640  29.112  1.00  0.00     0.066 C 
HETATM   16  C13 UNL     1      -9.626  18.165  29.883  1.00  0.00     0.001 C 
HETATM   17  C14 UNL     1     -10.137  18.269  28.464  1.00  0.00     0.005 C 
HETATM   18  C15 UNL     1      -9.843  17.021  27.711  1.00  0.00    -0.003 C 
HETATM   19  C16 UNL     1      -9.704  17.290  26.259  1.00  0.00    -0.001 C 
HETATM   20  C30 UNL     1     -10.810  15.910  27.858  1.00  0.00     0.025 C 
HETATM   21  C17 UNL     1      -8.881  18.408  25.798  1.00  0.00     0.007 C 
HETATM   22  C26 UNL     1      -9.011  16.118  25.544  1.00  0.00    -0.028 C 
HETATM   23  C18 UNL     1      -8.840  18.126  24.284  1.00  0.00     0.015 C 
HETATM   24  C19 UNL     1      -9.093  16.632  24.153  1.00  0.00     0.086 C 
HETATM   25  C27 UNL     1      -7.601  15.917  25.943  1.00  0.00     0.016 C 
HETATM   26  C28 UNL     1      -9.872  14.902  25.791  1.00  0.00     0.011 C 
HETATM   27  C29 UNL     1     -10.052  14.686  27.284  1.00  0.00     0.009 C 
HETATM   28  C32 UNL     1     -12.974  16.066  29.004  1.00  0.00     0.047 C 
HETATM   29  O7  UNL     1     -11.573  14.232  29.195  1.00  0.00    -0.374 OA
BRANCH  11  30
HETATM   30  C10 UNL     1     -10.980  15.729  32.824  1.00  0.00     0.182 C 
HETATM   31  O2  UNL     1     -12.058  16.157  33.273  1.00  0.00    -0.647 OA
HETATM   32  O3  UNL     1      -9.822  15.880  33.546  1.00  0.00    -0.647 OA
ENDBRANCH  11  30
BRANCH  24  33
HETATM   33  C20 UNL     1      -8.225  15.980  23.162  1.00  0.00     0.222 C 
HETATM   34  O4  UNL     1      -8.542  14.789  22.814  1.00  0.00    -0.273 OA
HETATM   35  N2  UNL     1      -7.077  16.549  22.564  1.00  0.00    -0.361 N 
ATOM     36  H2  UNL     1      -6.799  17.498  22.812  1.00  0.00     0.162 HD
BRANCH  35  37
HETATM   37  C21 UNL     1      -6.282  15.792  21.594  1.00  0.00     0.122 C 
BRANCH  37  38
HETATM   38  C22 UNL     1      -5.679  16.754  20.619  1.00  0.00     0.020 C 
BRANCH  38  39
HETATM   39  C23 UNL     1      -6.734  17.716  20.139  1.00  0.00     0.012 C 
BRANCH  39  40
HETATM   40  C24 UNL     1      -7.757  17.018  19.274  1.00  0.00     0.113 C 
BRANCH  40  41
HETATM   41  C25 UNL     1      -9.130  17.178  19.849  1.00  0.00     0.172 C 
HETATM   42  O5  UNL     1      -9.332  18.146  20.638  1.00  0.00    -0.648 OA
HETATM   43  O6  UNL     1     -10.153  16.309  19.541  1.00  0.00    -0.648 OA
ENDBRANCH  40  41
ENDBRANCH  39  40
ENDBRANCH  38  39
ENDBRANCH  37  38
ENDBRANCH  35  37
ENDBRANCH  24  33
ENDBRANCH   8   9
ENDBRANCH   5   8
ENDBRANCH   3   4
TORSDOF 10
ENDMDL
MODEL 3
REMARK VINA RESULT: -8.610128983      3.444     11.247
REMARK  10 active torsions:
REMARK  status: ('A' for Active; 'I' for Inactive)
REMARK    1  A    between atoms: C3_3  and  N1_4 
REMARK       I    between atoms: N1_4  and  C4_6 
REMARK    2  A    between atoms: C4_6  and  C5_8 
REMARK    3  A    between atoms: C5_8  and  C6_9 
REMARK    4  A    between atoms: C8_11  and  C10_13 
REMARK    5  A    between atoms: C19_24  and  C20_25 
REMARK       I    between atoms: C20_25  and  N2_27 
REMARK    6  A    between atoms: N2_27  and  C21_29 
REMARK    7  A    between atoms: C21_29  and  C22_30 
REMARK    8  A    between atoms: C22_30  and  C23_31 
REMARK    9  A    between atoms: C23_31  and  C24_32 
REMARK   10  A    between atoms: C24_32  and  C25_33 
ROOT
HETATM    1  C1  UNL     1     -13.385  10.037  31.275  1.00  0.00     0.014 C 
HETATM    2  C2  UNL     1     -13.881  11.130  31.268  1.00  0.00    -0.098 C 
HETATM    3  C3  UNL     1     -14.481  12.485  31.233  1.00  0.00     0.216 C 
ENDROOT
BRANCH   3   4
HETATM    4  N1  UNL     1     -13.916  13.258  30.154  1.00  0.00    -0.351 N 
HETATM    5  C4  UNL     1     -14.350  14.588  29.896  1.00  0.00     0.220 C 
HETATM    6  O1  UNL     1     -15.240  15.076  30.628  1.00  0.00    -0.274 OA
ATOM      7  H1  UNL     1     -13.192  12.845  29.567  1.00  0.00     0.163 HD
BRANCH   5   8
HETATM    8  C5  UNL     1     -13.786  15.404  28.798  1.00  0.00     0.134 C 
BRANCH   8   9
HETATM    9  C6  UNL     1     -12.532  16.118  29.315  1.00  0.00     0.132 C 
HETATM   10  C7  UNL     1     -11.959  15.494  30.535  1.00  0.00     0.053 C 
HETATM   11  C8  UNL     1     -10.476  15.244  30.354  1.00  0.00     0.053 C 
HETATM   12  C9  UNL     1     -10.377  13.906  29.663  1.00  0.00     0.027 C 
HETATM   13  C11 UNL     1      -9.756  16.340  29.601  1.00  0.00     0.039 C 
HETATM   14  C12 UNL     1      -8.388  15.819  29.261  1.00  0.00     0.009 C 
HETATM   15  C31 UNL     1     -10.516  16.960  28.497  1.00  0.00     0.066 C 
HETATM   16  C13 UNL     1      -7.346  16.900  29.127  1.00  0.00     0.001 C 
HETATM   17  C14 UNL     1      -7.673  17.893  28.036  1.00  0.00     0.005 C 
HETATM   18  C15 UNL     1      -8.476  17.244  26.965  1.00  0.00    -0.003 C 
HETATM   19  C16 UNL     1      -8.259  17.907  25.655  1.00  0.00    -0.001 C 
HETATM   20  C30 UNL     1      -9.938  17.171  27.181  1.00  0.00     0.025 C 
HETATM   21  C17 UNL     1      -6.902  18.211  25.206  1.00  0.00     0.007 C 
HETATM   22  C26 UNL     1      -8.747  17.017  24.499  1.00  0.00    -0.028 C 
HETATM   23  C18 UNL     1      -7.172  18.632  23.748  1.00  0.00     0.015 C 
HETATM   24  C19 UNL     1      -8.482  17.954  23.378  1.00  0.00     0.086 C 
HETATM   25  C27 UNL     1      -7.970  15.770  24.331  1.00  0.00     0.016 C 
HETATM   26  C28 UNL     1     -10.215  16.768  24.746  1.00  0.00     0.011 C 
HETATM   27  C29 UNL     1     -10.415  16.148  26.119  1.00  0.00     0.009 C 
HETATM   28  C32 UNL     1     -11.151  18.274  29.006  1.00  0.00     0.047 C 
HETATM   29  O7  UNL     1     -11.638  16.129  28.281  1.00  0.00    -0.374 OA
BRANCH  11  30
HETATM   30  C10 UNL     1      -9.917  15.145  31.721  1.00  0.00     0.182 C 
HETATM   31  O2  UNL     1      -9.188  14.186  32.032  1.00  0.00    -0.647 OA
HETATM   32  O3  UNL     1     -10.207  16.120  32.643  1.00  0.00    -0.647 OA
ENDBRANCH  11  30
BRANCH  24  33
HETATM   33  C20 UNL     1      -8.474  17.372  22.027  1.00  0.00     0.222 C 
HETATM   34  O4  UNL     1      -9.600  16.975  21.565  1.00  0.00    -0.273 OA
HETATM   35  N2  UNL     1      -7.338  17.213  21.201  1.00  0.00    -0.361 N 
ATOM     36  H2  UNL     1      -6.426  17.524  21.534  1.00  0.00     0.162 HD
BRANCH  35  37
HETATM   37  C21 UNL     1      -7.455  16.606  19.873  1.00  0.00     0.122 C 
BRANCH  37  38
HETATM   38  C22 UNL     1      -6.510  17.303  18.946  1.00  0.00     0.020 C 
BRANCH  38  39
HETATM   39  C23 UNL     1      -5.091  16.951  19.312  1.00  0.00     0.012 C 
BRANCH  39  40
HETATM   40  C24 UNL     1      -4.241  18.191  19.455  1.00  0.00     0.113 C 
BRANCH  40  41
HETATM   41  C25 UNL     1      -3.930  18.453  20.896  1.00  0.00     0.172 C 
HETATM   42  O5  UNL     1      -4.403  17.656  21.757  1.00  0.00    -0.648 OA
HETATM   43  O6  UNL     1      -3.156  19.521  21.291  1.00  0.00    -0.648 OA
ENDBRANCH  40  41
ENDBRANCH  39  40
ENDBRANCH  38  39
ENDBRANCH  37  38
ENDBRANCH  35  37
ENDBRANCH  24  33
ENDBRANCH   8   9
ENDBRANCH   5   8
ENDBRANCH   3   4
TORSDOF 10
ENDMDL
MODEL 4
REMARK VINA RESULT: -8.600543101      1.217      1.392
REMARK  10 active torsions:
REMARK  status: ('A' for Active; 'I' for Inactive)
REMARK    1  A    between atoms: C3_3  and  N1_4 
REMARK       I    between atoms: N1_4  and  C4_6 
REMARK    2  A    between atoms: C4_6  and  C5_8 
REMARK    3  A    between atoms: C5_8  and  C6_9 
REMARK    4  A    between atoms: C8_11  and  C10_13 
REMARK    5  A    between atoms: C19_24  and  C20_25 
REMARK       I    between atoms: C20_25  and  N2_27 
REMARK    6  A    between atoms: N2_27  and  C21_29 
REMARK    7  A    between atoms: C21_29  and  C22_30 
REMARK    8  A    between atoms: C22_30  and  C23_31 
REMARK    9  A    between atoms: C23_31  and  C24_32 
REMARK   10  A    between atoms: C24_32  and  C25_33 
ROOT
HETATM    1  C1  UNL     1      -5.689  17.716  22.513  1.00  0.00     0.014 C 
HETATM    2  C2  UNL     1      -5.260  18.502  23.312  1.00  0.00    -0.098 C 
HETATM    3  C3  UNL     1      -4.754  19.468  24.315  1.00  0.00     0.216 C 
ENDROOT
BRANCH   3   4
HETATM    4  N1  UNL     1      -5.770  19.753  25.299  1.00  0.00    -0.351 N 
HETATM    5  C4  UNL     1      -5.873  18.987  26.493  1.00  0.00     0.220 C 
HETATM    6  O1  UNL     1      -5.059  18.054  26.673  1.00  0.00    -0.274 OA
ATOM      7  H1  UNL     1      -6.426  20.516  25.135  1.00  0.00     0.163 HD
BRANCH   5   8
HETATM    8  C5  UNL     1      -6.904  19.259  27.519  1.00  0.00     0.134 C 
BRANCH   8   9
HETATM    9  C6  UNL     1      -8.188  18.518  27.128  1.00  0.00     0.132 C 
HETATM   10  C7  UNL     1      -8.032  17.659  25.926  1.00  0.00     0.053 C 
HETATM   11  C8  UNL     1      -8.546  16.262  26.205  1.00  0.00     0.053 C 
HETATM   12  C9  UNL     1      -7.391  15.528  26.839  1.00  0.00     0.027 C 
HETATM   13  C11 UNL     1      -9.795  16.226  27.057  1.00  0.00     0.039 C 
HETATM   14  C12 UNL     1     -10.005  14.797  27.473  1.00  0.00     0.009 C 
HETATM   15  C31 UNL     1      -9.863  17.239  28.130  1.00  0.00     0.066 C 
HETATM   16  C13 UNL     1     -11.450  14.450  27.732  1.00  0.00     0.001 C 
HETATM   17  C14 UNL     1     -12.058  15.278  28.841  1.00  0.00     0.005 C 
HETATM   18  C15 UNL     1     -11.014  15.685  29.819  1.00  0.00    -0.003 C 
HETATM   19  C16 UNL     1     -11.594  15.887  31.170  1.00  0.00    -0.001 C 
HETATM   20  C30 UNL     1     -10.234  16.900  29.493  1.00  0.00     0.025 C 
HETATM   21  C17 UNL     1     -12.503  14.889  31.731  1.00  0.00     0.007 C 
HETATM   22  C26 UNL     1     -10.495  15.904  32.245  1.00  0.00    -0.028 C 
HETATM   23  C18 UNL     1     -12.618  15.394  33.182  1.00  0.00     0.015 C 
HETATM   24  C19 UNL     1     -11.349  16.194  33.424  1.00  0.00     0.086 C 
HETATM   25  C27 UNL     1      -9.797  14.611  32.413  1.00  0.00     0.016 C 
HETATM   26  C28 UNL     1      -9.562  17.034  31.880  1.00  0.00     0.011 C 
HETATM   27  C29 UNL     1      -9.032  16.837  30.469  1.00  0.00     0.009 C 
HETATM   28  C32 UNL     1     -10.715  18.430  27.636  1.00  0.00     0.047 C 
HETATM   29  O7  UNL     1      -8.567  17.794  28.224  1.00  0.00    -0.374 OA
BRANCH  11  30
HETATM   30  C10 UNL     1      -8.846  15.675  24.879  1.00  0.00     0.182 C 
HETATM   31  O2  UNL     1      -7.992  14.987  24.290  1.00  0.00    -0.647 OA
HETATM   32  O3  UNL     1     -10.074  15.893  24.304  1.00  0.00    -0.647 OA
ENDBRANCH  11  30
BRANCH  24  33
HETATM   33  C20 UNL     1     -10.748  15.948  34.744  1.00  0.00     0.222 C 
HETATM   34  O4  UNL     1      -9.762  16.693  35.075  1.00  0.00    -0.273 OA
HETATM   35  N2  UNL     1     -11.163  14.965  35.671  1.00  0.00    -0.361 N 
ATOM     36  H2  UNL     1     -11.950  14.358  35.444  1.00  0.00     0.162 HD
BRANCH  35  37
HETATM   37  C21 UNL     1     -10.475  14.807  36.956  1.00  0.00     0.122 C 
BRANCH  37  38
HETATM   38  C22 UNL     1     -11.331  13.971  37.854  1.00  0.00     0.020 C 
BRANCH  38  39
HETATM   39  C23 UNL     1     -12.727  13.892  37.293  1.00  0.00     0.012 C 
BRANCH  39  40
HETATM   40  C24 UNL     1     -13.755  14.284  38.327  1.00  0.00     0.113 C 
BRANCH  40  41
HETATM   41  C25 UNL     1     -13.892  13.213  39.364  1.00  0.00     0.172 C 
HETATM   42  O5  UNL     1     -14.422  12.119  39.018  1.00  0.00    -0.648 OA
HETATM   43  O6  UNL     1     -13.459  13.395  40.659  1.00  0.00    -0.648 OA
ENDBRANCH  40  41
ENDBRANCH  39  40
ENDBRANCH  38  39
ENDBRANCH  37  38
ENDBRANCH  35  37
ENDBRANCH  24  33
ENDBRANCH   8   9
ENDBRANCH   5   8
ENDBRANCH   3   4
TORSDOF 10
ENDMDL
MODEL 5
REMARK VINA RESULT: -8.585916844      2.854      9.678
REMARK  10 active torsions:
REMARK  status: ('A' for Active; 'I' for Inactive)
REMARK    1  A    between atoms: C3_3  and  N1_4 
REMARK       I    between atoms: N1_4  and  C4_6 
REMARK    2  A    between atoms: C4_6  and  C5_8 
REMARK    3  A    between atoms: C5_8  and  C6_9 
REMARK    4  A    between atoms: C8_11  and  C10_13 
REMARK    5  A    between atoms: C19_24  and  C20_25 
REMARK       I    between atoms: C20_25  and  N2_27 
REMARK    6  A    between atoms: N2_27  and  C21_29 
REMARK    7  A    between atoms: C21_29  and  C22_30 
REMARK    8  A    between atoms: C22_30  and  C23_31 
REMARK    9  A    between atoms: C23_31  and  C24_32 
REMARK   10  A    between atoms: C24_32  and  C25_33 
ROOT
HETATM    1  C1  UNL     1     -12.386  12.797  27.492  1.00  0.00     0.014 C 
HETATM    2  C2  UNL     1     -12.546  12.086  28.446  1.00  0.00    -0.098 C 
HETATM    3  C3  UNL     1     -12.769  11.221  29.628  1.00  0.00     0.216 C 
ENDROOT
BRANCH   3   4
HETATM    4  N1  UNL     1     -13.902  11.690  30.388  1.00  0.00    -0.351 N 
HETATM    5  C4  UNL     1     -14.247  11.099  31.635  1.00  0.00     0.220 C 
HETATM    6  O1  UNL     1     -13.543  10.156  32.062  1.00  0.00    -0.274 OA
ATOM      7  H1  UNL     1     -14.466  12.458  30.025  1.00  0.00     0.163 HD
BRANCH   5   8
HETATM    8  C5  UNL     1     -15.402  11.561  32.436  1.00  0.00     0.134 C 
BRANCH   8   9
HETATM    9  C6  UNL     1     -14.913  12.618  33.433  1.00  0.00     0.132 C 
HETATM   10  C7  UNL     1     -14.801  12.111  34.824  1.00  0.00     0.053 C 
HETATM   11  C8  UNL     1     -13.439  12.440  35.398  1.00  0.00     0.053 C 
HETATM   12  C9  UNL     1     -12.533  11.319  34.951  1.00  0.00     0.027 C 
HETATM   13  C11 UNL     1     -12.917  13.802  34.999  1.00  0.00     0.039 C 
HETATM   14  C12 UNL     1     -11.470  13.857  35.401  1.00  0.00     0.009 C 
HETATM   15  C31 UNL     1     -13.231  14.225  33.619  1.00  0.00     0.066 C 
HETATM   16  C13 UNL     1     -10.979  15.251  35.698  1.00  0.00     0.001 C 
HETATM   17  C14 UNL     1     -11.093  16.176  34.508  1.00  0.00     0.005 C 
HETATM   18  C15 UNL     1     -10.984  15.407  33.239  1.00  0.00    -0.003 C 
HETATM   19  C16 UNL     1     -10.439  16.249  32.146  1.00  0.00    -0.001 C 
HETATM   20  C30 UNL     1     -12.226  14.782  32.731  1.00  0.00     0.025 C 
HETATM   21  C17 UNL     1      -9.257  17.076  32.381  1.00  0.00     0.007 C 
HETATM   22  C26 UNL     1      -9.948  15.382  30.974  1.00  0.00    -0.028 C 
HETATM   23  C18 UNL     1      -8.939  17.534  30.945  1.00  0.00     0.015 C 
HETATM   24  C19 UNL     1      -9.555  16.473  30.047  1.00  0.00     0.086 C 
HETATM   25  C27 UNL     1      -8.783  14.532  31.301  1.00  0.00     0.016 C 
HETATM   26  C28 UNL     1     -11.143  14.588  30.504  1.00  0.00     0.011 C 
HETATM   27  C29 UNL     1     -11.722  13.785  31.657  1.00  0.00     0.009 C 
HETATM   28  C32 UNL     1     -14.470  15.149  33.652  1.00  0.00     0.047 C 
HETATM   29  O7  UNL     1     -13.714  13.073  32.959  1.00  0.00    -0.374 OA
BRANCH  11  30
HETATM   30  C10 UNL     1     -13.603  12.395  36.869  1.00  0.00     0.182 C 
HETATM   31  O2  UNL     1     -14.293  13.252  37.449  1.00  0.00    -0.647 OA
HETATM   32  O3  UNL     1     -12.990  11.398  37.588  1.00  0.00    -0.647 OA
ENDBRANCH  11  30
BRANCH  24  33
HETATM   33  C20 UNL     1      -8.692  16.094  28.918  1.00  0.00     0.222 C 
HETATM   34  O4  UNL     1      -7.500  16.560  28.923  1.00  0.00    -0.273 OA
HETATM   35  N2  UNL     1      -9.064  15.266  27.834  1.00  0.00    -0.361 N 
ATOM     36  H2  UNL     1     -10.003  14.871  27.801  1.00  0.00     0.162 HD
BRANCH  35  37
HETATM   37  C21 UNL     1      -8.115  14.967  26.758  1.00  0.00     0.122 C 
BRANCH  37  38
HETATM   38  C22 UNL     1      -8.775  15.258  25.448  1.00  0.00     0.020 C 
BRANCH  38  39
HETATM   39  C23 UNL     1     -10.145  15.836  25.689  1.00  0.00     0.012 C 
BRANCH  39  40
HETATM   40  C24 UNL     1     -10.278  17.205  25.065  1.00  0.00     0.113 C 
BRANCH  40  41
HETATM   41  C25 UNL     1      -9.651  18.245  25.941  1.00  0.00     0.172 C 
HETATM   42  O5  UNL     1      -8.517  18.695  25.606  1.00  0.00    -0.648 OA
HETATM   43  O6  UNL     1     -10.273  18.710  27.077  1.00  0.00    -0.648 OA
ENDBRANCH  40  41
ENDBRANCH  39  40
ENDBRANCH  38  39
ENDBRANCH  37  38
ENDBRANCH  35  37
ENDBRANCH  24  33
ENDBRANCH   8   9
ENDBRANCH   5   8
ENDBRANCH   3   4
TORSDOF 10
ENDMDL
