MODEL 1
REMARK VINA RESULT: -7.690477947      0.000      0.000
REMARK  13 active torsions:
REMARK  status: ('A' for Active; 'I' for Inactive)
REMARK    1  A    between atoms: C2_2  and  C3_3 
REMARK    2  A    between atoms: C3_3  and  C5_5 
REMARK    3  A    between atoms: C5_5  and  N1_6 
REMARK    4  A    between atoms: C5_5  and  C32_41 
REMARK       I    between atoms: N1_6  and  C6_8 
REMARK    5  A    between atoms: C6_8  and  C7_10 
REMARK    6  A    between atoms: C7_10  and  C8_11 
REMARK    7  A    between atoms: C7_10  and  N2_15 
REMARK    8  A    between atoms: C8_11  and  C9_12 
REMARK       I    between atoms: N2_15  and  C12_17 
REMARK    9  A    between atoms: C12_17  and  C13_19 
REMARK   10  A    between atoms: N3_23  and  C18_25 
REMARK   11  A    between atoms: C18_25  and  C19_26 
REMARK   12  A    between atoms: C19_26  and  O3_27 
REMARK   13  A    between atoms: C19_26  and  C20_29 
ROOT
HETATM    1  C13 UNL     1      -9.891  16.026  26.549  1.00  0.00     0.027 C 
HETATM    2  C14 UNL     1      -9.013  14.886  26.967  1.00  0.00     0.078 C 
HETATM    3  C15 UNL     1      -9.267  14.658  28.460  1.00  0.00    -0.052 C 
HETATM    4  C16 UNL     1     -10.529  14.589  28.799  1.00  0.00     0.206 C 
HETATM    5  N3  UNL     1     -11.533  14.734  27.787  1.00  0.00    -0.037 N 
HETATM    6  C17 UNL     1     -11.606  13.666  26.813  1.00  0.00     0.279 C 
HETATM    7  C24 UNL     1     -11.314  15.972  27.140  1.00  0.00     0.253 C 
HETATM    8  C25 UNL     1     -11.509  17.285  27.689  1.00  0.00     0.011 C 
HETATM    9  C26 UNL     1     -11.847  17.776  28.990  1.00  0.00    -0.006 C 
HETATM   10  C27 UNL     1     -10.967  17.668  30.180  1.00  0.00    -0.027 C 
HETATM   11  C28 UNL     1      -9.509  17.689  30.113  1.00  0.00     0.027 C 
HETATM   12  C29 UNL     1      -8.750  16.538  30.726  1.00  0.00     0.004 C 
HETATM   13  C30 UNL     1      -7.657  15.942  29.900  1.00  0.00     0.005 C 
HETATM   14  C31 UNL     1      -8.013  14.628  29.236  1.00  0.00     0.036 C 
ENDROOT
BRANCH   1  15
HETATM   15  C12 UNL     1      -9.762  16.531  25.215  1.00  0.00     0.250 C 
HETATM   16  N2  UNL     1      -8.553  16.773  24.551  1.00  0.00    -0.322 N 
ATOM     17  H2  UNL     1      -7.694  16.582  25.068  1.00  0.00     0.169 HD
HETATM   18  O2  UNL     1     -10.799  16.805  24.509  1.00  0.00    -0.268 OA
BRANCH  16  19
HETATM   19  C7  UNL     1      -8.409  17.266  23.210  1.00  0.00     0.080 C 
BRANCH  19  20
HETATM   20  C6  UNL     1      -7.294  18.186  23.100  1.00  0.00     0.264 C 
HETATM   21  N1  UNL     1      -5.988  17.983  23.509  1.00  0.00    -0.341 N 
ATOM     22  H1  UNL     1      -5.729  17.100  23.949  1.00  0.00     0.163 HD
HETATM   23  O1  UNL     1      -7.561  19.326  22.564  1.00  0.00    -0.266 OA
BRANCH  21  24
HETATM   24  C5  UNL     1      -4.959  19.036  23.316  1.00  0.00     0.189 C 
BRANCH  24  25
HETATM   25  C3  UNL     1      -4.329  19.267  24.631  1.00  0.00     0.014 C 
HETATM   26  C4  UNL     1      -5.247  20.018  25.551  1.00  0.00     0.012 C 
BRANCH  25  27
HETATM   27  C2  UNL     1      -3.553  18.193  25.283  1.00  0.00     0.002 C 
HETATM   28  C1  UNL     1      -4.207  17.469  26.408  1.00  0.00     0.005 C 
ENDBRANCH  25  27
ENDBRANCH  24  25
BRANCH  24  29
HETATM   29  C32 UNL     1      -4.109  18.661  22.189  1.00  0.00     0.197 C 
HETATM   30  O4  UNL     1      -3.106  19.384  21.915  1.00  0.00    -0.646 OA
HETATM   31  O5  UNL     1      -4.294  17.566  21.377  1.00  0.00    -0.646 OA
ENDBRANCH  24  29
ENDBRANCH  21  24
ENDBRANCH  19  20
BRANCH  19  32
HETATM   32  C8  UNL     1      -8.600  16.336  22.093  1.00  0.00     0.067 C 
BRANCH  32  33
HETATM   33  C9  UNL     1      -8.714  17.046  20.765  1.00  0.00    -0.017 C 
HETATM   34  C10 UNL     1      -7.543  16.711  19.860  1.00  0.00     0.010 C 
HETATM   35  C11 UNL     1      -9.965  16.503  20.016  1.00  0.00     0.010 C 
ENDBRANCH  32  33
ENDBRANCH  19  32
ENDBRANCH  16  19
ENDBRANCH   1  15
BRANCH   5  36
HETATM   36  C18 UNL     1     -12.792  14.583  28.485  1.00  0.00     0.276 C 
BRANCH  36  37
HETATM   37  C19 UNL     1     -12.815  13.564  29.581  1.00  0.00     0.152 C 
BRANCH  37  38
HETATM   38  O3  UNL     1     -13.348  12.340  29.319  1.00  0.00    -0.393 OA
ATOM     39  H3  UNL     1     -12.835  11.568  29.525  1.00  0.00     0.210 HD
ENDBRANCH  37  38
BRANCH  37  40
HETATM   40  C20 UNL     1     -13.791  14.155  30.648  1.00  0.00    -0.024 C 
HETATM   41  C21 UNL     1     -14.551  12.992  31.240  1.00  0.00     0.017 C 
HETATM   42  C22 UNL     1     -13.051  14.905  31.698  1.00  0.00     0.017 C 
HETATM   43  C23 UNL     1     -14.800  15.049  29.962  1.00  0.00     0.017 C 
ENDBRANCH  37  40
ENDBRANCH  36  37
ENDBRANCH   5  36
TORSDOF 13
ENDMDL
MODEL 2
REMARK VINA RESULT: -7.434396562      2.986     10.300
REMARK  13 active torsions:
REMARK  status: ('A' for Active; 'I' for Inactive)
REMARK    1  A    between atoms: C2_2  and  C3_3 
REMARK    2  A    between atoms: C3_3  and  C5_5 
REMARK    3  A    between atoms: C5_5  and  N1_6 
REMARK    4  A    between atoms: C5_5  and  C32_41 
REMARK       I    between atoms: N1_6  and  C6_8 
REMARK    5  A    between atoms: C6_8  and  C7_10 
REMARK    6  A    between atoms: C7_10  and  C8_11 
REMARK    7  A    between atoms: C7_10  and  N2_15 
REMARK    8  A    between atoms: C8_11  and  C9_12 
REMARK       I    between atoms: N2_15  and  C12_17 
REMARK    9  A    between atoms: C12_17  and  C13_19 
REMARK   10  A    between atoms: N3_23  and  C18_25 
REMARK   11  A    between atoms: C18_25  and  C19_26 
REMARK   12  A    between atoms: C19_26  and  O3_27 
REMARK   13  A    between atoms: C19_26  and  C20_29 
ROOT
HETATM    1  C13 UNL     1      -9.046  16.516  29.232  1.00  0.00     0.027 C 
HETATM    2  C14 UNL     1      -8.575  15.170  28.775  1.00  0.00     0.078 C 
HETATM    3  C15 UNL     1      -8.195  15.315  27.298  1.00  0.00    -0.052 C 
HETATM    4  C16 UNL     1      -7.424  16.336  27.026  1.00  0.00     0.206 C 
HETATM    5  N3  UNL     1      -7.019  17.208  28.088  1.00  0.00    -0.037 N 
HETATM    6  C17 UNL     1      -6.124  16.632  29.069  1.00  0.00     0.279 C 
HETATM    7  C24 UNL     1      -8.190  17.690  28.717  1.00  0.00     0.253 C 
HETATM    8  C25 UNL     1      -9.153  18.607  28.173  1.00  0.00     0.011 C 
HETATM    9  C26 UNL     1      -9.329  19.214  26.889  1.00  0.00    -0.006 C 
HETATM   10  C27 UNL     1      -9.691  18.473  25.656  1.00  0.00    -0.027 C 
HETATM   11  C28 UNL     1     -10.522  17.274  25.646  1.00  0.00     0.027 C 
HETATM   12  C29 UNL     1      -9.969  16.028  25.000  1.00  0.00     0.004 C 
HETATM   13  C30 UNL     1     -10.110  14.755  25.769  1.00  0.00     0.005 C 
HETATM   14  C31 UNL     1      -8.842  14.290  26.457  1.00  0.00     0.036 C 
ENDROOT
BRANCH   1  15
HETATM   15  C12 UNL     1      -9.581  16.636  30.556  1.00  0.00     0.250 C 
HETATM   16  N2  UNL     1     -10.386  15.685  31.196  1.00  0.00    -0.322 N 
ATOM     17  H2  UNL     1     -10.617  14.843  30.669  1.00  0.00     0.169 HD
HETATM   18  O2  UNL     1      -9.343  17.674  31.274  1.00  0.00    -0.268 OA
BRANCH  16  19
HETATM   19  C7  UNL     1     -10.917  15.786  32.527  1.00  0.00     0.080 C 
BRANCH  19  20
HETATM   20  C6  UNL     1     -12.281  15.298  32.590  1.00  0.00     0.264 C 
HETATM   21  N1  UNL     1     -12.767  14.088  32.131  1.00  0.00    -0.341 N 
ATOM     22  H1  UNL     1     -12.133  13.427  31.683  1.00  0.00     0.163 HD
HETATM   23  O1  UNL     1     -13.135  16.095  33.135  1.00  0.00    -0.266 OA
BRANCH  21  24
HETATM   24  C5  UNL     1     -14.203  13.738  32.282  1.00  0.00     0.189 C 
BRANCH  24  25
HETATM   25  C3  UNL     1     -14.681  13.307  30.954  1.00  0.00     0.014 C 
HETATM   26  C4  UNL     1     -14.872  14.480  30.036  1.00  0.00     0.012 C 
BRANCH  25  27
HETATM   27  C2  UNL     1     -14.105  12.111  30.307  1.00  0.00     0.002 C 
HETATM   28  C1  UNL     1     -13.141  12.338  29.195  1.00  0.00     0.005 C 
ENDBRANCH  25  27
ENDBRANCH  24  25
BRANCH  24  29
HETATM   29  C32 UNL     1     -14.347  12.821  33.409  1.00  0.00     0.197 C 
HETATM   30  O4  UNL     1     -15.500  12.632  33.898  1.00  0.00    -0.646 OA
HETATM   31  O5  UNL     1     -13.326  12.119  34.006  1.00  0.00    -0.646 OA
ENDBRANCH  24  29
ENDBRANCH  21  24
ENDBRANCH  19  20
BRANCH  19  32
HETATM   32  C8  UNL     1     -10.050  15.450  33.659  1.00  0.00     0.067 C 
BRANCH  32  33
HETATM   33  C9  UNL     1     -10.591  15.965  34.972  1.00  0.00    -0.017 C 
HETATM   34  C10 UNL     1     -10.863  14.828  35.938  1.00  0.00     0.010 C 
HETATM   35  C11 UNL     1      -9.491  16.821  35.663  1.00  0.00     0.010 C 
ENDBRANCH  32  33
ENDBRANCH  19  32
ENDBRANCH  16  19
ENDBRANCH   1  15
BRANCH   5  36
HETATM   36  C18 UNL     1      -6.170  18.196  27.458  1.00  0.00     0.276 C 
BRANCH  36  37
HETATM   37  C19 UNL     1      -5.379  17.724  26.279  1.00  0.00     0.152 C 
BRANCH  37  38
HETATM   38  O3  UNL     1      -4.052  17.472  26.444  1.00  0.00    -0.393 OA
ATOM     39  H3  UNL     1      -3.549  17.177  25.694  1.00  0.00     0.210 HD
ENDBRANCH  37  38
BRANCH  37  40
HETATM   40  C20 UNL     1      -5.391  18.931  25.287  1.00  0.00    -0.024 C 
HETATM   41  C21 UNL     1      -3.979  19.095  24.778  1.00  0.00     0.017 C 
HETATM   42  C22 UNL     1      -6.343  18.698  24.168  1.00  0.00     0.017 C 
HETATM   43  C23 UNL     1      -5.748  20.192  26.040  1.00  0.00     0.017 C 
ENDBRANCH  37  40
ENDBRANCH  36  37
ENDBRANCH   5  36
TORSDOF 13
ENDMDL
MODEL 3
REMARK VINA RESULT: -7.395534507      3.173      9.153
REMARK  13 active torsions:
REMARK  status: ('A' for Active; 'I' for Inactive)
REMARK    1  A    between atoms: C2_2  and  C3_3 
REMARK    2  A    between atoms: C3_3  and  C5_5 
REMARK    3  A    between atoms: C5_5  and  N1_6 
REMARK    4  A    between atoms: C5_5  and  C32_41 
REMARK       I    between atoms: N1_6  and  C6_8 
REMARK    5  A    between atoms: C6_8  and  C7_10 
REMARK    6  A    between atoms: C7_10  and  C8_11 
REMARK    7  A    between atoms: C7_10  and  N2_15 
REMARK    8  A    between atoms: C8_11  and  C9_12 
REMARK       I    between atoms: N2_15  and  C12_17 
REMARK    9  A    between atoms: C12_17  and  C13_19 
REMARK   10  A    between atoms: N3_23  and  C18_25 
REMARK   11  A    between atoms: C18_25  and  C19_26 
REMARK   12  A    between atoms: C19_26  and  O3_27 
REMARK   13  A    between atoms: C19_26  and  C20_29 
ROOT
HETATM    1  C13 UNL     1     -10.287  16.543  27.762  1.00  0.00     0.027 C 
HETATM    2  C14 UNL     1     -10.453  18.015  27.542  1.00  0.00     0.078 C 
HETATM    3  C15 UNL     1      -9.325  18.450  26.602  1.00  0.00    -0.052 C 
HETATM    4  C16 UNL     1      -9.179  17.705  25.536  1.00  0.00     0.206 C 
HETATM    5  N3  UNL     1     -10.047  16.581  25.346  1.00  0.00    -0.037 N 
HETATM    6  C17 UNL     1     -11.437  16.894  25.092  1.00  0.00     0.279 C 
HETATM    7  C24 UNL     1      -9.933  15.753  26.486  1.00  0.00     0.253 C 
HETATM    8  C25 UNL     1      -8.799  14.961  26.874  1.00  0.00     0.011 C 
HETATM    9  C26 UNL     1      -7.466  14.824  26.371  1.00  0.00    -0.006 C 
HETATM   10  C27 UNL     1      -6.438  15.892  26.421  1.00  0.00    -0.027 C 
HETATM   11  C28 UNL     1      -6.361  16.893  27.481  1.00  0.00     0.027 C 
HETATM   12  C29 UNL     1      -6.377  18.350  27.089  1.00  0.00     0.004 C 
HETATM   13  C30 UNL     1      -7.297  19.240  27.859  1.00  0.00     0.005 C 
HETATM   14  C31 UNL     1      -8.576  19.604  27.133  1.00  0.00     0.036 C 
ENDROOT
BRANCH   1  15
HETATM   15  C12 UNL     1     -11.147  15.894  28.707  1.00  0.00     0.250 C 
HETATM   16  N2  UNL     1     -10.735  14.976  29.682  1.00  0.00    -0.322 N 
ATOM     17  H2  UNL     1      -9.742  14.744  29.710  1.00  0.00     0.169 HD
HETATM   18  O2  UNL     1     -12.409  16.127  28.722  1.00  0.00    -0.268 OA
BRANCH  16  19
HETATM   19  C7  UNL     1     -11.583  14.329  30.644  1.00  0.00     0.080 C 
BRANCH  19  20
HETATM   20  C6  UNL     1     -11.597  15.046  31.904  1.00  0.00     0.264 C 
HETATM   21  N1  UNL     1     -10.684  14.954  32.939  1.00  0.00    -0.341 N 
ATOM     22  H1  UNL     1      -9.892  14.316  32.858  1.00  0.00     0.163 HD
HETATM   23  O1  UNL     1     -12.581  15.860  32.073  1.00  0.00    -0.266 OA
BRANCH  21  24
HETATM   24  C5  UNL     1     -10.843  15.771  34.169  1.00  0.00     0.189 C 
BRANCH  24  25
HETATM   25  C3  UNL     1     -11.128  14.834  35.273  1.00  0.00     0.014 C 
HETATM   26  C4  UNL     1     -12.278  15.311  36.111  1.00  0.00     0.012 C 
BRANCH  25  27
HETATM   27  C2  UNL     1     -11.106  13.376  35.036  1.00  0.00     0.002 C 
HETATM   28  C1  UNL     1     -11.682  12.506  36.099  1.00  0.00     0.005 C 
ENDBRANCH  25  27
ENDBRANCH  24  25
BRANCH  24  29
HETATM   29  C32 UNL     1      -9.696  16.667  34.289  1.00  0.00     0.197 C 
HETATM   30  O4  UNL     1      -9.360  17.076  35.440  1.00  0.00    -0.646 OA
HETATM   31  O5  UNL     1      -8.920  17.118  33.247  1.00  0.00    -0.646 OA
ENDBRANCH  24  29
ENDBRANCH  21  24
ENDBRANCH  19  20
BRANCH  19  32
HETATM   32  C8  UNL     1     -12.863  13.774  30.196  1.00  0.00     0.067 C 
BRANCH  32  33
HETATM   33  C9  UNL     1     -12.756  12.318  29.811  1.00  0.00    -0.017 C 
HETATM   34  C10 UNL     1     -14.055  11.581  30.081  1.00  0.00     0.010 C 
HETATM   35  C11 UNL     1     -12.555  12.222  28.272  1.00  0.00     0.010 C 
ENDBRANCH  32  33
ENDBRANCH  19  32
ENDBRANCH  16  19
ENDBRANCH   1  15
BRANCH   5  36
HETATM   36  C18 UNL     1      -9.639  16.002  24.084  1.00  0.00     0.276 C 
BRANCH  36  37
HETATM   37  C19 UNL     1      -9.273  16.974  23.006  1.00  0.00     0.152 C 
BRANCH  37  38
HETATM   38  O3  UNL     1     -10.075  17.062  21.910  1.00  0.00    -0.393 OA
ATOM     39  H3  UNL     1      -9.675  17.243  21.068  1.00  0.00     0.210 HD
ENDBRANCH  37  38
BRANCH  37  40
HETATM   40  C20 UNL     1      -7.931  16.428  22.421  1.00  0.00    -0.024 C 
HETATM   41  C21 UNL     1      -8.002  16.601  20.923  1.00  0.00     0.017 C 
HETATM   42  C22 UNL     1      -6.762  17.149  22.992  1.00  0.00     0.017 C 
HETATM   43  C23 UNL     1      -7.833  14.945  22.699  1.00  0.00     0.017 C 
ENDBRANCH  37  40
ENDBRANCH  36  37
ENDBRANCH   5  36
TORSDOF 13
ENDMDL
MODEL 4
REMARK VINA RESULT: -7.238744878      2.691      9.371
REMARK  13 active torsions:
REMARK  status: ('A' for Active; 'I' for Inactive)
REMARK    1  A    between atoms: C2_2  and  C3_3 
REMARK    2  A    between atoms: C3_3  and  C5_5 
REMARK    3  A    between atoms: C5_5  and  N1_6 
REMARK    4  A    between atoms: C5_5  and  C32_41 
REMARK       I    between atoms: N1_6  and  C6_8 
REMARK    5  A    between atoms: C6_8  and  C7_10 
REMARK    6  A    between atoms: C7_10  and  C8_11 
REMARK    7  A    between atoms: C7_10  and  N2_15 
REMARK    8  A    between atoms: C8_11  and  C9_12 
REMARK       I    between atoms: N2_15  and  C12_17 
REMARK    9  A    between atoms: C12_17  and  C13_19 
REMARK   10  A    between atoms: N3_23  and  C18_25 
REMARK   11  A    between atoms: C18_25  and  C19_26 
REMARK   12  A    between atoms: C19_26  and  O3_27 
REMARK   13  A    between atoms: C19_26  and  C20_29 
ROOT
HETATM    1  C13 UNL     1      -9.987  16.082  27.008  1.00  0.00     0.027 C 
HETATM    2  C14 UNL     1     -10.547  17.471  26.964  1.00  0.00     0.078 C 
HETATM    3  C15 UNL     1      -9.604  18.298  26.085  1.00  0.00    -0.052 C 
HETATM    4  C16 UNL     1      -9.296  17.747  24.939  1.00  0.00     0.206 C 
HETATM    5  N3  UNL     1      -9.837  16.461  24.614  1.00  0.00    -0.037 N 
HETATM    6  C17 UNL     1     -11.267  16.416  24.395  1.00  0.00     0.279 C 
HETATM    7  C24 UNL     1      -9.473  15.569  25.649  1.00  0.00     0.253 C 
HETATM    8  C25 UNL     1      -8.157  15.072  25.943  1.00  0.00     0.011 C 
HETATM    9  C26 UNL     1      -6.852  15.356  25.430  1.00  0.00    -0.006 C 
HETATM   10  C27 UNL     1      -6.145  16.648  25.609  1.00  0.00    -0.027 C 
HETATM   11  C28 UNL     1      -6.307  17.505  26.781  1.00  0.00     0.027 C 
HETATM   12  C29 UNL     1      -6.724  18.938  26.564  1.00  0.00     0.004 C 
HETATM   13  C30 UNL     1      -7.825  19.454  27.432  1.00  0.00     0.005 C 
HETATM   14  C31 UNL     1      -9.176  19.542  26.751  1.00  0.00     0.036 C 
ENDROOT
BRANCH   1  15
HETATM   15  C12 UNL     1     -10.614  15.122  27.868  1.00  0.00     0.250 C 
HETATM   16  N2  UNL     1     -11.204  15.405  29.107  1.00  0.00    -0.322 N 
ATOM     17  H2  UNL     1     -11.174  16.374  29.424  1.00  0.00     0.169 HD
HETATM   18  O2  UNL     1     -10.678  13.883  27.540  1.00  0.00    -0.268 OA
BRANCH  16  19
HETATM   19  C7  UNL     1     -11.848  14.456  29.972  1.00  0.00     0.080 C 
BRANCH  19  20
HETATM   20  C6  UNL     1     -11.215  14.414  31.275  1.00  0.00     0.264 C 
HETATM   21  N1  UNL     1     -11.818  14.548  32.512  1.00  0.00    -0.341 N 
ATOM     22  H1  UNL     1     -12.825  14.700  32.568  1.00  0.00     0.163 HD
HETATM   23  O1  UNL     1      -9.938  14.237  31.271  1.00  0.00    -0.266 OA
BRANCH  21  24
HETATM   24  C5  UNL     1     -11.018  14.474  33.761  1.00  0.00     0.189 C 
BRANCH  24  25
HETATM   25  C3  UNL     1     -11.005  15.829  34.345  1.00  0.00     0.014 C 
HETATM   26  C4  UNL     1     -11.858  15.900  35.578  1.00  0.00     0.012 C 
BRANCH  25  27
HETATM   27  C2  UNL     1      -9.743  16.592  34.428  1.00  0.00     0.002 C 
HETATM   28  C1  UNL     1      -9.026  16.860  33.150  1.00  0.00     0.005 C 
ENDBRANCH  25  27
ENDBRANCH  24  25
BRANCH  24  29
HETATM   29  C32 UNL     1     -11.515  13.366  34.573  1.00  0.00     0.197 C 
HETATM   30  O4  UNL     1     -12.704  12.968  34.398  1.00  0.00    -0.646 OA
HETATM   31  O5  UNL     1     -10.796  12.691  35.532  1.00  0.00    -0.646 OA
ENDBRANCH  24  29
ENDBRANCH  21  24
ENDBRANCH  19  20
BRANCH  19  32
HETATM   32  C8  UNL     1     -13.311  14.365  29.954  1.00  0.00     0.067 C 
BRANCH  32  33
HETATM   33  C9  UNL     1     -13.797  12.947  29.769  1.00  0.00    -0.017 C 
HETATM   34  C10 UNL     1     -12.638  11.992  29.557  1.00  0.00     0.010 C 
HETATM   35  C11 UNL     1     -14.468  12.474  31.090  1.00  0.00     0.010 C 
ENDBRANCH  32  33
ENDBRANCH  19  32
ENDBRANCH  16  19
ENDBRANCH   1  15
BRANCH   5  36
HETATM   36  C18 UNL     1      -9.327  16.163  23.294  1.00  0.00     0.276 C 
BRANCH  36  37
HETATM   37  C19 UNL     1      -9.438  17.262  22.285  1.00  0.00     0.152 C 
BRANCH  37  38
HETATM   38  O3  UNL     1     -10.288  17.098  21.234  1.00  0.00    -0.393 OA
ATOM     39  H3  UNL     1      -9.951  17.219  20.355  1.00  0.00     0.210 HD
ENDBRANCH  37  38
BRANCH  37  40
HETATM   40  C20 UNL     1      -8.035  17.314  21.601  1.00  0.00    -0.024 C 
HETATM   41  C21 UNL     1      -8.272  17.525  20.125  1.00  0.00     0.017 C 
HETATM   42  C22 UNL     1      -7.198  18.403  22.173  1.00  0.00     0.017 C 
HETATM   43  C23 UNL     1      -7.352  15.974  21.760  1.00  0.00     0.017 C 
ENDBRANCH  37  40
ENDBRANCH  36  37
ENDBRANCH   5  36
TORSDOF 13
ENDMDL
MODEL 5
REMARK VINA RESULT: -7.221865987      2.974      9.472
REMARK  13 active torsions:
REMARK  status: ('A' for Active; 'I' for Inactive)
REMARK    1  A    between atoms: C2_2  and  C3_3 
REMARK    2  A    between atoms: C3_3  and  C5_5 
REMARK    3  A    between atoms: C5_5  and  N1_6 
REMARK    4  A    between atoms: C5_5  and  C32_41 
REMARK       I    between atoms: N1_6  and  C6_8 
REMARK    5  A    between atoms: C6_8  and  C7_10 
REMARK    6  A    between atoms: C7_10  and  C8_11 
REMARK    7  A    between atoms: C7_10  and  N2_15 
REMARK    8  A    between atoms: C8_11  and  C9_12 
REMARK       I    between atoms: N2_15  and  C12_17 
REMARK    9  A    between atoms: C12_17  and  C13_19 
REMARK   10  A    between atoms: N3_23  and  C18_25 
REMARK   11  A    between atoms: C18_25  and  C19_26 
REMARK   12  A    between atoms: C19_26  and  O3_27 
REMARK   13  A    between atoms: C19_26  and  C20_29 
ROOT
HETATM    1  C13 UNL     1     -10.025  15.879  27.123  1.00  0.00     0.027 C 
HETATM    2  C14 UNL     1     -10.725  17.202  27.069  1.00  0.00     0.078 C 
HETATM    3  C15 UNL     1      -9.877  18.112  26.175  1.00  0.00    -0.052 C 
HETATM    4  C16 UNL     1      -9.520  17.583  25.033  1.00  0.00     0.206 C 
HETATM    5  N3  UNL     1      -9.927  16.245  24.725  1.00  0.00    -0.037 N 
HETATM    6  C17 UNL     1     -11.346  16.050  24.515  1.00  0.00     0.279 C 
HETATM    7  C24 UNL     1      -9.467  15.407  25.766  1.00  0.00     0.253 C 
HETATM    8  C25 UNL     1      -8.106  15.051  26.057  1.00  0.00     0.011 C 
HETATM    9  C26 UNL     1      -6.840  15.462  25.533  1.00  0.00    -0.006 C 
HETATM   10  C27 UNL     1      -6.269  16.822  25.694  1.00  0.00    -0.027 C 
HETATM   11  C28 UNL     1      -6.512  17.670  26.858  1.00  0.00     0.027 C 
HETATM   12  C29 UNL     1      -7.075  19.051  26.629  1.00  0.00     0.004 C 
HETATM   13  C30 UNL     1      -8.219  19.460  27.498  1.00  0.00     0.005 C 
HETATM   14  C31 UNL     1      -9.576  19.401  26.825  1.00  0.00     0.036 C 
ENDROOT
BRANCH   1  15
HETATM   15  C12 UNL     1     -10.545  14.869  27.997  1.00  0.00     0.250 C 
HETATM   16  N2  UNL     1     -10.913  15.064  29.335  1.00  0.00    -0.322 N 
ATOM     17  H2  UNL     1     -10.788  16.001  29.717  1.00  0.00     0.169 HD
HETATM   18  O2  UNL     1     -10.716  13.665  27.587  1.00  0.00    -0.268 OA
BRANCH  16  19
HETATM   19  C7  UNL     1     -11.448  14.065  30.217  1.00  0.00     0.080 C 
BRANCH  19  20
HETATM   20  C6  UNL     1     -11.622  14.583  31.559  1.00  0.00     0.264 C 
HETATM   21  N1  UNL     1     -10.885  14.272  32.688  1.00  0.00    -0.341 N 
ATOM     22  H1  UNL     1     -10.120  13.600  32.621  1.00  0.00     0.163 HD
HETATM   23  O1  UNL     1     -12.582  15.429  31.712  1.00  0.00    -0.266 OA
BRANCH  21  24
HETATM   24  C5  UNL     1     -11.193  14.903  33.996  1.00  0.00     0.189 C 
BRANCH  24  25
HETATM   25  C3  UNL     1     -11.115  13.839  35.016  1.00  0.00     0.014 C 
HETATM   26  C4  UNL     1     -11.005  14.414  36.397  1.00  0.00     0.012 C 
BRANCH  25  27
HETATM   27  C2  UNL     1     -11.984  12.648  34.915  1.00  0.00     0.002 C 
HETATM   28  C1  UNL     1     -13.451  12.883  34.815  1.00  0.00     0.005 C 
ENDBRANCH  25  27
ENDBRANCH  24  25
BRANCH  24  29
HETATM   29  C32 UNL     1     -10.354  16.088  34.156  1.00  0.00     0.197 C 
HETATM   30  O4  UNL     1      -9.252  16.144  33.533  1.00  0.00    -0.646 OA
HETATM   31  O5  UNL     1     -10.654  17.182  34.934  1.00  0.00    -0.646 OA
ENDBRANCH  24  29
ENDBRANCH  21  24
ENDBRANCH  19  20
BRANCH  19  32
HETATM   32  C8  UNL     1     -12.501  13.176  29.719  1.00  0.00     0.067 C 
BRANCH  32  33
HETATM   33  C9  UNL     1     -13.187  12.417  30.830  1.00  0.00    -0.017 C 
HETATM   34  C10 UNL     1     -14.685  12.658  30.817  1.00  0.00     0.010 C 
HETATM   35  C11 UNL     1     -13.025  10.893  30.566  1.00  0.00     0.010 C 
ENDBRANCH  32  33
ENDBRANCH  19  32
ENDBRANCH  16  19
ENDBRANCH   1  15
BRANCH   5  36
HETATM   36  C18 UNL     1      -9.395  15.986  23.404  1.00  0.00     0.276 C 
BRANCH  36  37
HETATM   37  C19 UNL     1      -9.511  17.108  22.420  1.00  0.00     0.152 C 
BRANCH  37  38
HETATM   38  O3  UNL     1     -10.407  16.993  21.403  1.00  0.00    -0.393 OA
ATOM     39  H3  UNL     1     -10.580  17.753  20.861  1.00  0.00     0.210 HD
ENDBRANCH  37  38
BRANCH  37  40
HETATM   40  C20 UNL     1      -8.135  17.127  21.681  1.00  0.00    -0.024 C 
HETATM   41  C21 UNL     1      -7.490  15.782  21.918  1.00  0.00     0.017 C 
HETATM   42  C22 UNL     1      -8.309  17.392  20.227  1.00  0.00     0.017 C 
HETATM   43  C23 UNL     1      -7.243  18.172  22.312  1.00  0.00     0.017 C 
ENDBRANCH  37  40
ENDBRANCH  36  37
ENDBRANCH   5  36
TORSDOF 13
ENDMDL
