MODEL 1
REMARK VINA RESULT: -9.610122930      0.000      0.000
REMARK  11 active torsions:
REMARK  status: ('A' for Active; 'I' for Inactive)
REMARK    1  A    between atoms: C2_2  and  N1_3 
REMARK       I    between atoms: N1_3  and  C3_5 
REMARK    2  A    between atoms: C3_5  and  C4_7 
REMARK    3  A    between atoms: C6_9  and  C7_10 
REMARK       I    between atoms: C7_10  and  N2_12 
REMARK    4  A    between atoms: N2_12  and  C8_14 
REMARK    5  A    between atoms: C8_14  and  C9_15 
REMARK    6  A    between atoms: C8_14  and  C16_22 
REMARK    7  A    between atoms: C9_15  and  C10_16 
REMARK    8  A    between atoms: C16_22  and  O3_23 
REMARK    9  A    between atoms: C16_22  and  C17_25 
REMARK   10  A    between atoms: C25_36  and  C26_37 
REMARK   11  A    between atoms: C26_37  and  C27_38 
ROOT
HETATM    1  C4  UNL     1     -12.094  13.066  30.616  1.00  0.00     0.179 C 
HETATM    2  C5  UNL     1     -11.805  14.029  29.522  1.00  0.00     0.077 C 
HETATM    3  C6  UNL     1     -11.089  15.276  29.842  1.00  0.00     0.280 C 
HETATM    4  N3  UNL     1     -10.479  15.403  31.115  1.00  0.00    -0.049 N 
ATOM      5  H31 UNL     1      -9.624  15.956  31.066  1.00  0.00     0.279 HD
ATOM      6  H32 UNL     1     -10.077  14.520  31.428  1.00  0.00     0.279 HD
HETATM    7  C25 UNL     1     -11.408  15.943  32.095  1.00  0.00     0.278 C 
HETATM    8  C33 UNL     1     -12.501  15.007  32.318  1.00  0.00     0.249 C 
HETATM    9  O4  UNL     1     -13.446  15.391  33.029  1.00  0.00    -0.271 OA
HETATM   10  N4  UNL     1     -12.637  13.690  31.828  1.00  0.00    -0.346 N 
ATOM     11  H4  UNL     1     -13.204  13.073  32.409  1.00  0.00     0.163 HD
ENDROOT
BRANCH   3  12
HETATM   12  C7  UNL     1     -10.070  15.652  28.819  1.00  0.00     0.249 C 
HETATM   13  O2  UNL     1      -8.978  14.978  28.764  1.00  0.00    -0.271 OA
HETATM   14  N2  UNL     1     -10.226  16.693  27.906  1.00  0.00    -0.352 N 
ATOM     15  H2  UNL     1     -11.079  17.251  27.910  1.00  0.00     0.163 HD
BRANCH  14  16
HETATM   16  C8  UNL     1      -9.118  16.998  26.899  1.00  0.00     0.114 C 
BRANCH  16  17
HETATM   17  C9  UNL     1      -8.585  18.315  27.251  1.00  0.00     0.032 C 
BRANCH  17  18
HETATM   18  C10 UNL     1      -7.317  18.354  27.995  1.00  0.00    -0.013 C 
HETATM   19  C11 UNL     1      -6.403  17.173  27.650  1.00  0.00     0.005 C 
HETATM   20  C12 UNL     1      -5.955  17.183  26.222  1.00  0.00     0.000 C 
HETATM   21  C13 UNL     1      -5.112  18.424  26.014  1.00  0.00     0.000 C 
HETATM   22  C14 UNL     1      -6.005  19.625  26.241  1.00  0.00     0.000 C 
HETATM   23  C15 UNL     1      -6.509  19.623  27.643  1.00  0.00     0.005 C 
ENDBRANCH  17  18
ENDBRANCH  16  17
BRANCH  16  24
HETATM   24  C16 UNL     1      -9.689  16.714  25.581  1.00  0.00     0.149 C 
BRANCH  24  25
HETATM   25  O3  UNL     1     -10.979  16.922  25.596  1.00  0.00    -0.393 OA
ATOM     26  H3  UNL     1     -11.439  16.113  25.786  1.00  0.00     0.210 HD
ENDBRANCH  24  25
BRANCH  24  27
HETATM   27  C17 UNL     1      -9.320  16.285  24.262  1.00  0.00    -0.016 C 
HETATM   28  C18 UNL     1     -10.544  16.136  23.396  1.00  0.00     0.018 C 
HETATM   29  C19 UNL     1      -8.554  17.492  23.620  1.00  0.00     0.012 C 
HETATM   30  C20 UNL     1      -8.741  17.676  22.177  1.00  0.00     0.001 C 
HETATM   31  C21 UNL     1      -8.069  16.741  21.242  1.00  0.00     0.000 C 
HETATM   32  C22 UNL     1      -7.349  15.584  21.860  1.00  0.00     0.000 C 
HETATM   33  C23 UNL     1      -8.229  14.696  22.706  1.00  0.00     0.001 C 
HETATM   34  C24 UNL     1      -8.323  15.169  24.131  1.00  0.00     0.012 C 
ENDBRANCH  24  27
ENDBRANCH  16  24
ENDBRANCH  14  16
ENDBRANCH   3  12
BRANCH   1  35
HETATM   35  C3  UNL     1     -13.142  12.140  30.122  1.00  0.00     0.240 C 
HETATM   36  N1  UNL     1     -14.002  11.413  30.985  1.00  0.00    -0.360 N 
ATOM     37  H1  UNL     1     -13.909  11.523  31.995  1.00  0.00     0.162 HD
HETATM   38  O1  UNL     1     -13.271  11.997  28.884  1.00  0.00    -0.271 OA
BRANCH  36  39
HETATM   39  C2  UNL     1     -15.000  10.524  30.464  1.00  0.00     0.118 C 
HETATM   40  C1  UNL     1     -15.299   9.345  31.376  1.00  0.00     0.026 C 
ENDBRANCH  36  39
ENDBRANCH   1  35
BRANCH   7  41
HETATM   41  C26 UNL     1     -10.574  16.234  33.307  1.00  0.00     0.047 C 
BRANCH  41  42
HETATM   42  C27 UNL     1     -11.010  15.645  34.588  1.00  0.00    -0.012 C 
HETATM   43  C28 UNL     1     -10.446  14.214  34.612  1.00  0.00     0.005 C 
HETATM   44  C29 UNL     1     -11.306  13.412  35.589  1.00  0.00     0.000 C 
HETATM   45  C30 UNL     1     -11.493  14.303  36.800  1.00  0.00     0.000 C 
HETATM   46  C31 UNL     1     -10.315  15.278  36.915  1.00  0.00     0.000 C 
HETATM   47  C32 UNL     1     -10.387  16.322  35.814  1.00  0.00     0.005 C 
ENDBRANCH  41  42
ENDBRANCH   7  41
TORSDOF 11
ENDMDL
MODEL 2
REMARK VINA RESULT: -9.483172508      0.634      1.101
REMARK  11 active torsions:
REMARK  status: ('A' for Active; 'I' for Inactive)
REMARK    1  A    between atoms: C2_2  and  N1_3 
REMARK       I    between atoms: N1_3  and  C3_5 
REMARK    2  A    between atoms: C3_5  and  C4_7 
REMARK    3  A    between atoms: C6_9  and  C7_10 
REMARK       I    between atoms: C7_10  and  N2_12 
REMARK    4  A    between atoms: N2_12  and  C8_14 
REMARK    5  A    between atoms: C8_14  and  C9_15 
REMARK    6  A    between atoms: C8_14  and  C16_22 
REMARK    7  A    between atoms: C9_15  and  C10_16 
REMARK    8  A    between atoms: C16_22  and  O3_23 
REMARK    9  A    between atoms: C16_22  and  C17_25 
REMARK   10  A    between atoms: C25_36  and  C26_37 
REMARK   11  A    between atoms: C26_37  and  C27_38 
ROOT
HETATM    1  C4  UNL     1     -12.103  13.196  30.861  1.00  0.00     0.179 C 
HETATM    2  C5  UNL     1     -11.695  14.152  29.800  1.00  0.00     0.077 C 
HETATM    3  C6  UNL     1     -10.943  15.359  30.181  1.00  0.00     0.280 C 
HETATM    4  N3  UNL     1     -10.414  15.447  31.493  1.00  0.00    -0.049 N 
ATOM      5  H31 UNL     1      -9.532  15.958  31.508  1.00  0.00     0.279 HD
ATOM      6  H32 UNL     1     -10.077  14.542  31.822  1.00  0.00     0.279 HD
HETATM    7  C25 UNL     1     -11.379  16.024  32.415  1.00  0.00     0.278 C 
HETATM    8  C33 UNL     1     -12.529  15.140  32.555  1.00  0.00     0.249 C 
HETATM    9  O4  UNL     1     -13.499  15.564  33.205  1.00  0.00    -0.271 OA
HETATM   10  N4  UNL     1     -12.695  13.836  32.041  1.00  0.00    -0.346 N 
ATOM     11  H4  UNL     1     -13.329  13.242  32.576  1.00  0.00     0.163 HD
ENDROOT
BRANCH   3  12
HETATM   12  C7  UNL     1      -9.841  15.693  29.232  1.00  0.00     0.249 C 
HETATM   13  O2  UNL     1      -8.650  15.305  29.515  1.00  0.00    -0.271 OA
HETATM   14  N2  UNL     1     -10.018  16.402  28.046  1.00  0.00    -0.352 N 
ATOM     15  H2  UNL     1     -10.947  16.726  27.779  1.00  0.00     0.163 HD
BRANCH  14  16
HETATM   16  C8  UNL     1      -8.819  16.695  27.145  1.00  0.00     0.114 C 
BRANCH  16  17
HETATM   17  C9  UNL     1      -8.408  18.070  27.430  1.00  0.00     0.032 C 
BRANCH  17  18
HETATM   18  C10 UNL     1      -7.115  18.262  28.104  1.00  0.00    -0.013 C 
HETATM   19  C11 UNL     1      -6.097  17.179  27.730  1.00  0.00     0.005 C 
HETATM   20  C12 UNL     1      -5.727  17.205  26.279  1.00  0.00     0.000 C 
HETATM   21  C13 UNL     1      -5.036  18.525  26.006  1.00  0.00     0.000 C 
HETATM   22  C14 UNL     1      -6.041  19.628  26.262  1.00  0.00     0.000 C 
HETATM   23  C15 UNL     1      -6.469  19.603  27.688  1.00  0.00     0.005 C 
ENDBRANCH  17  18
ENDBRANCH  16  17
BRANCH  16  24
HETATM   24  C16 UNL     1      -9.216  16.261  25.803  1.00  0.00     0.149 C 
BRANCH  24  25
HETATM   25  O3  UNL     1     -10.272  15.494  25.872  1.00  0.00    -0.393 OA
ATOM     26  H3  UNL     1     -10.918  15.768  25.234  1.00  0.00     0.210 HD
ENDBRANCH  24  25
BRANCH  24  27
HETATM   27  C17 UNL     1      -8.847  16.392  24.422  1.00  0.00    -0.016 C 
HETATM   28  C18 UNL     1      -7.977  15.237  23.999  1.00  0.00     0.018 C 
HETATM   29  C19 UNL     1     -10.168  16.180  23.605  1.00  0.00     0.012 C 
HETATM   30  C20 UNL     1     -10.021  15.508  22.310  1.00  0.00     0.001 C 
HETATM   31  C21 UNL     1      -9.429  16.259  21.175  1.00  0.00     0.000 C 
HETATM   32  C22 UNL     1      -8.899  17.624  21.484  1.00  0.00     0.000 C 
HETATM   33  C23 UNL     1      -7.821  17.636  22.542  1.00  0.00     0.001 C 
HETATM   34  C24 UNL     1      -8.383  17.734  23.935  1.00  0.00     0.012 C 
ENDBRANCH  24  27
ENDBRANCH  16  24
ENDBRANCH  14  16
ENDBRANCH   3  12
BRANCH   1  35
HETATM   35  C3  UNL     1     -13.159  12.327  30.289  1.00  0.00     0.240 C 
HETATM   36  N1  UNL     1     -14.067  11.583  31.086  1.00  0.00    -0.360 N 
ATOM     37  H1  UNL     1     -14.005  11.641  32.102  1.00  0.00     0.162 HD
HETATM   38  O1  UNL     1     -13.250  12.248  29.041  1.00  0.00    -0.271 OA
BRANCH  36  39
HETATM   39  C2  UNL     1     -15.072  10.750  30.490  1.00  0.00     0.118 C 
HETATM   40  C1  UNL     1     -15.324   9.461  31.254  1.00  0.00     0.026 C 
ENDBRANCH  36  39
ENDBRANCH   1  35
BRANCH   7  41
HETATM   41  C26 UNL     1     -10.615  16.264  33.683  1.00  0.00     0.047 C 
BRANCH  41  42
HETATM   42  C27 UNL     1     -11.075  15.559  34.896  1.00  0.00    -0.012 C 
HETATM   43  C28 UNL     1     -10.514  14.131  34.796  1.00  0.00     0.005 C 
HETATM   44  C29 UNL     1     -11.391  13.244  35.679  1.00  0.00     0.000 C 
HETATM   45  C30 UNL     1     -11.598  14.019  36.964  1.00  0.00     0.000 C 
HETATM   46  C31 UNL     1     -10.421  14.975  37.190  1.00  0.00     0.000 C 
HETATM   47  C32 UNL     1     -10.472  16.117  36.190  1.00  0.00     0.005 C 
ENDBRANCH  41  42
ENDBRANCH   7  41
TORSDOF 11
ENDMDL
MODEL 3
REMARK VINA RESULT: -9.399059177      1.262      1.684
REMARK  11 active torsions:
REMARK  status: ('A' for Active; 'I' for Inactive)
REMARK    1  A    between atoms: C2_2  and  N1_3 
REMARK       I    between atoms: N1_3  and  C3_5 
REMARK    2  A    between atoms: C3_5  and  C4_7 
REMARK    3  A    between atoms: C6_9  and  C7_10 
REMARK       I    between atoms: C7_10  and  N2_12 
REMARK    4  A    between atoms: N2_12  and  C8_14 
REMARK    5  A    between atoms: C8_14  and  C9_15 
REMARK    6  A    between atoms: C8_14  and  C16_22 
REMARK    7  A    between atoms: C9_15  and  C10_16 
REMARK    8  A    between atoms: C16_22  and  O3_23 
REMARK    9  A    between atoms: C16_22  and  C17_25 
REMARK   10  A    between atoms: C25_36  and  C26_37 
REMARK   11  A    between atoms: C26_37  and  C27_38 
ROOT
HETATM    1  C4  UNL     1     -13.254  12.720  31.387  1.00  0.00     0.179 C 
HETATM    2  C5  UNL     1     -12.973  13.306  30.052  1.00  0.00     0.077 C 
HETATM    3  C6  UNL     1     -12.016  14.422  29.951  1.00  0.00     0.280 C 
HETATM    4  N3  UNL     1     -11.211  14.731  31.075  1.00  0.00    -0.049 N 
ATOM      5  H31 UNL     1     -10.291  15.070  30.794  1.00  0.00     0.279 HD
ATOM      6  H32 UNL     1     -10.922  13.889  31.572  1.00  0.00     0.279 HD
HETATM    7  C25 UNL     1     -11.877  15.671  31.961  1.00  0.00     0.278 C 
HETATM    8  C33 UNL     1     -13.068  15.060  32.537  1.00  0.00     0.249 C 
HETATM    9  O4  UNL     1     -13.817  15.790  33.208  1.00  0.00    -0.271 OA
HETATM   10  N4  UNL     1     -13.497  13.719  32.435  1.00  0.00    -0.346 N 
ATOM     11  H4  UNL     1     -14.067  13.391  33.214  1.00  0.00     0.163 HD
ENDROOT
BRANCH   3  12
HETATM   12  C7  UNL     1     -11.113  14.321  28.768  1.00  0.00     0.249 C 
HETATM   13  O2  UNL     1     -11.055  13.206  28.133  1.00  0.00    -0.271 OA
HETATM   14  N2  UNL     1     -10.321  15.366  28.297  1.00  0.00    -0.352 N 
ATOM     15  H2  UNL     1     -10.338  16.271  28.767  1.00  0.00     0.163 HD
BRANCH  14  16
HETATM   16  C8  UNL     1      -9.426  15.157  27.077  1.00  0.00     0.114 C 
BRANCH  16  17
HETATM   17  C9  UNL     1      -8.049  15.368  27.527  1.00  0.00     0.032 C 
BRANCH  17  18
HETATM   18  C10 UNL     1      -7.821  16.415  28.533  1.00  0.00    -0.013 C 
HETATM   19  C11 UNL     1      -6.358  16.480  28.985  1.00  0.00     0.005 C 
HETATM   20  C12 UNL     1      -5.425  16.867  27.880  1.00  0.00     0.000 C 
HETATM   21  C13 UNL     1      -5.781  18.275  27.451  1.00  0.00     0.000 C 
HETATM   22  C14 UNL     1      -7.189  18.240  26.895  1.00  0.00     0.000 C 
HETATM   23  C15 UNL     1      -8.142  17.812  27.957  1.00  0.00     0.005 C 
ENDBRANCH  17  18
ENDBRANCH  16  17
BRANCH  16  24
HETATM   24  C16 UNL     1     -10.027  15.951  26.003  1.00  0.00     0.149 C 
BRANCH  24  25
HETATM   25  O3  UNL     1     -11.127  16.517  26.424  1.00  0.00    -0.393 OA
ATOM     26  H3  UNL     1     -11.659  15.886  26.895  1.00  0.00     0.210 HD
ENDBRANCH  24  25
BRANCH  24  27
HETATM   27  C17 UNL     1      -9.822  16.332  24.634  1.00  0.00    -0.016 C 
HETATM   28  C18 UNL     1      -9.294  17.741  24.554  1.00  0.00     0.018 C 
HETATM   29  C19 UNL     1      -8.626  15.458  24.123  1.00  0.00     0.012 C 
HETATM   30  C20 UNL     1      -7.732  16.098  23.152  1.00  0.00     0.001 C 
HETATM   31  C21 UNL     1      -8.204  16.286  21.758  1.00  0.00     0.000 C 
HETATM   32  C22 UNL     1      -9.628  15.920  21.481  1.00  0.00     0.000 C 
HETATM   33  C23 UNL     1     -10.628  16.680  22.318  1.00  0.00     0.001 C 
HETATM   34  C24 UNL     1     -10.900  16.012  23.639  1.00  0.00     0.012 C 
ENDBRANCH  24  27
ENDBRANCH  16  24
ENDBRANCH  14  16
ENDBRANCH   3  12
BRANCH   1  35
HETATM   35  C3  UNL     1     -14.506  11.934  31.268  1.00  0.00     0.240 C 
HETATM   36  N1  UNL     1     -14.523  10.533  31.046  1.00  0.00    -0.360 N 
ATOM     37  H1  UNL     1     -13.640  10.028  30.964  1.00  0.00     0.162 HD
HETATM   38  O1  UNL     1     -15.598  12.540  31.370  1.00  0.00    -0.271 OA
BRANCH  36  39
HETATM   39  C2  UNL     1     -15.758   9.812  30.933  1.00  0.00     0.118 C 
HETATM   40  C1  UNL     1     -15.683   8.392  31.469  1.00  0.00     0.026 C 
ENDBRANCH  36  39
ENDBRANCH   1  35
BRANCH   7  41
HETATM   41  C26 UNL     1     -10.835  16.076  32.961  1.00  0.00     0.047 C 
BRANCH  41  42
HETATM   42  C27 UNL     1     -11.103  15.775  34.381  1.00  0.00    -0.012 C 
HETATM   43  C28 UNL     1     -10.587  14.346  34.617  1.00  0.00     0.005 C 
HETATM   44  C29 UNL     1     -11.324  13.802  35.841  1.00  0.00     0.000 C 
HETATM   45  C30 UNL     1     -11.309  14.922  36.861  1.00  0.00     0.000 C 
HETATM   46  C31 UNL     1     -10.096  15.829  36.621  1.00  0.00     0.000 C 
HETATM   47  C32 UNL     1     -10.291  16.640  35.351  1.00  0.00     0.005 C 
ENDBRANCH  41  42
ENDBRANCH   7  41
TORSDOF 11
ENDMDL
MODEL 4
REMARK VINA RESULT: -9.320387452      6.301     10.711
REMARK  11 active torsions:
REMARK  status: ('A' for Active; 'I' for Inactive)
REMARK    1  A    between atoms: C2_2  and  N1_3 
REMARK       I    between atoms: N1_3  and  C3_5 
REMARK    2  A    between atoms: C3_5  and  C4_7 
REMARK    3  A    between atoms: C6_9  and  C7_10 
REMARK       I    between atoms: C7_10  and  N2_12 
REMARK    4  A    between atoms: N2_12  and  C8_14 
REMARK    5  A    between atoms: C8_14  and  C9_15 
REMARK    6  A    between atoms: C8_14  and  C16_22 
REMARK    7  A    between atoms: C9_15  and  C10_16 
REMARK    8  A    between atoms: C16_22  and  O3_23 
REMARK    9  A    between atoms: C16_22  and  C17_25 
REMARK   10  A    between atoms: C25_36  and  C26_37 
REMARK   11  A    between atoms: C26_37  and  C27_38 
ROOT
HETATM    1  C4  UNL     1      -5.872  17.367  18.933  1.00  0.00     0.179 C 
HETATM    2  C5  UNL     1      -5.799  18.454  19.943  1.00  0.00     0.077 C 
HETATM    3  C6  UNL     1      -6.395  18.231  21.272  1.00  0.00     0.280 C 
HETATM    4  N3  UNL     1      -6.787  16.917  21.631  1.00  0.00    -0.049 N 
ATOM      5  H31 UNL     1      -6.658  16.748  22.629  1.00  0.00     0.279 HD
ATOM      6  H32 UNL     1      -6.136  16.221  21.269  1.00  0.00     0.279 HD
HETATM    7  C25 UNL     1      -8.152  16.640  21.215  1.00  0.00     0.278 C 
HETATM    8  C33 UNL     1      -8.245  16.652  19.762  1.00  0.00     0.249 C 
HETATM    9  O4  UNL     1      -9.380  16.566  19.261  1.00  0.00    -0.271 OA
HETATM   10  N4  UNL     1      -7.198  16.748  18.820  1.00  0.00    -0.346 N 
ATOM     11  H4  UNL     1      -7.394  16.319  17.916  1.00  0.00     0.163 HD
ENDROOT
BRANCH   3  12
HETATM   12  C7  UNL     1      -5.566  18.771  22.389  1.00  0.00     0.249 C 
HETATM   13  O2  UNL     1      -5.177  19.994  22.328  1.00  0.00    -0.271 OA
HETATM   14  N2  UNL     1      -5.185  18.034  23.507  1.00  0.00    -0.352 N 
ATOM     15  H2  UNL     1      -5.475  17.061  23.600  1.00  0.00     0.163 HD
BRANCH  14  16
HETATM   16  C8  UNL     1      -4.330  18.683  24.595  1.00  0.00     0.114 C 
BRANCH  16  17
HETATM   17  C9  UNL     1      -3.243  17.747  24.887  1.00  0.00     0.032 C 
BRANCH  17  18
HETATM   18  C10 UNL     1      -1.868  18.228  24.691  1.00  0.00    -0.013 C 
HETATM   19  C11 UNL     1      -0.887  17.086  24.403  1.00  0.00     0.005 C 
HETATM   20  C12 UNL     1      -1.182  16.377  23.117  1.00  0.00     0.000 C 
HETATM   21  C13 UNL     1      -0.992  17.372  21.991  1.00  0.00     0.000 C 
HETATM   22  C14 UNL     1      -2.016  18.472  22.175  1.00  0.00     0.000 C 
HETATM   23  C15 UNL     1      -1.782  19.170  23.470  1.00  0.00     0.005 C 
ENDBRANCH  17  18
ENDBRANCH  16  17
BRANCH  16  24
HETATM   24  C16 UNL     1      -5.272  19.132  25.624  1.00  0.00     0.149 C 
BRANCH  24  25
HETATM   25  O3  UNL     1      -5.530  20.404  25.472  1.00  0.00    -0.393 OA
ATOM     26  H3  UNL     1      -6.371  20.518  25.046  1.00  0.00     0.210 HD
ENDBRANCH  24  25
BRANCH  24  27
HETATM   27  C17 UNL     1      -6.021  18.653  26.751  1.00  0.00    -0.016 C 
HETATM   28  C18 UNL     1      -6.156  19.736  27.790  1.00  0.00     0.018 C 
HETATM   29  C19 UNL     1      -7.486  18.450  26.233  1.00  0.00     0.012 C 
HETATM   30  C20 UNL     1      -8.553  18.730  27.200  1.00  0.00     0.001 C 
HETATM   31  C21 UNL     1      -8.797  17.762  28.299  1.00  0.00     0.000 C 
HETATM   32  C22 UNL     1      -7.831  16.625  28.412  1.00  0.00     0.000 C 
HETATM   33  C23 UNL     1      -6.397  17.057  28.607  1.00  0.00     0.001 C 
HETATM   34  C24 UNL     1      -5.686  17.298  27.302  1.00  0.00     0.012 C 
ENDBRANCH  24  27
ENDBRANCH  16  24
ENDBRANCH  14  16
ENDBRANCH   3  12
BRANCH   1  35
HETATM   35  C3  UNL     1      -5.585  17.974  17.611  1.00  0.00     0.240 C 
HETATM   36  N1  UNL     1      -5.723  19.362  17.349  1.00  0.00    -0.360 N 
ATOM     37  H1  UNL     1      -6.031  19.984  18.097  1.00  0.00     0.162 HD
HETATM   38  O1  UNL     1      -5.204  17.222  16.684  1.00  0.00    -0.271 OA
BRANCH  36  39
HETATM   39  C2  UNL     1      -5.439  19.907  16.053  1.00  0.00     0.118 C 
HETATM   40  C1  UNL     1      -5.978  21.314  15.855  1.00  0.00     0.026 C 
ENDBRANCH  36  39
ENDBRANCH   1  35
BRANCH   7  41
HETATM   41  C26 UNL     1      -8.498  15.328  21.855  1.00  0.00     0.047 C 
BRANCH  41  42
HETATM   42  C27 UNL     1      -9.285  15.369  23.103  1.00  0.00    -0.012 C 
HETATM   43  C28 UNL     1      -8.277  15.642  24.232  1.00  0.00     0.005 C 
HETATM   44  C29 UNL     1      -8.914  15.143  25.529  1.00  0.00     0.000 C 
HETATM   45  C30 UNL     1     -10.349  15.628  25.496  1.00  0.00     0.000 C 
HETATM   46  C31 UNL     1     -10.451  16.894  24.637  1.00  0.00     0.000 C 
HETATM   47  C32 UNL     1     -10.261  16.549  23.169  1.00  0.00     0.005 C 
ENDBRANCH  41  42
ENDBRANCH   7  41
TORSDOF 11
ENDMDL
MODEL 5
REMARK VINA RESULT: -9.285059131      1.178      1.863
REMARK  11 active torsions:
REMARK  status: ('A' for Active; 'I' for Inactive)
REMARK    1  A    between atoms: C2_2  and  N1_3 
REMARK       I    between atoms: N1_3  and  C3_5 
REMARK    2  A    between atoms: C3_5  and  C4_7 
REMARK    3  A    between atoms: C6_9  and  C7_10 
REMARK       I    between atoms: C7_10  and  N2_12 
REMARK    4  A    between atoms: N2_12  and  C8_14 
REMARK    5  A    between atoms: C8_14  and  C9_15 
REMARK    6  A    between atoms: C8_14  and  C16_22 
REMARK    7  A    between atoms: C9_15  and  C10_16 
REMARK    8  A    between atoms: C16_22  and  O3_23 
REMARK    9  A    between atoms: C16_22  and  C17_25 
REMARK   10  A    between atoms: C25_36  and  C26_37 
REMARK   11  A    between atoms: C26_37  and  C27_38 
ROOT
HETATM    1  C4  UNL     1     -11.905  12.853  30.129  1.00  0.00     0.179 C 
HETATM    2  C5  UNL     1     -11.589  13.521  28.841  1.00  0.00     0.077 C 
HETATM    3  C6  UNL     1     -10.696  14.693  28.847  1.00  0.00     0.280 C 
HETATM    4  N3  UNL     1      -9.971  14.990  30.028  1.00  0.00    -0.049 N 
ATOM      5  H31 UNL     1      -9.060  15.395  29.815  1.00  0.00     0.279 HD
ATOM      6  H32 UNL     1      -9.660  14.142  30.499  1.00  0.00     0.279 HD
HETATM    7  C25 UNL     1     -10.739  15.845  30.919  1.00  0.00     0.278 C 
HETATM    8  C33 UNL     1     -11.920  15.138  31.397  1.00  0.00     0.249 C 
HETATM    9  O4  UNL     1     -12.746  15.789  32.059  1.00  0.00    -0.271 OA
HETATM   10  N4  UNL     1     -12.262  13.782  31.207  1.00  0.00    -0.346 N 
ATOM     11  H4  UNL     1     -12.852  13.383  31.937  1.00  0.00     0.163 HD
ENDROOT
BRANCH   3  12
HETATM   12  C7  UNL     1      -9.727  14.703  27.713  1.00  0.00     0.249 C 
HETATM   13  O2  UNL     1      -8.673  13.975  27.800  1.00  0.00    -0.271 OA
HETATM   14  N2  UNL     1      -9.890  15.456  26.551  1.00  0.00    -0.352 N 
ATOM     15  H2  UNL     1     -10.715  16.045  26.437  1.00  0.00     0.163 HD
BRANCH  14  16
HETATM   16  C8  UNL     1      -8.834  15.398  25.449  1.00  0.00     0.114 C 
BRANCH  16  17
HETATM   17  C9  UNL     1      -7.558  15.752  26.073  1.00  0.00     0.032 C 
BRANCH  17  18
HETATM   18  C10 UNL     1      -7.314  17.176  26.348  1.00  0.00    -0.013 C 
HETATM   19  C11 UNL     1      -7.497  17.522  27.830  1.00  0.00     0.005 C 
HETATM   20  C12 UNL     1      -6.505  16.833  28.715  1.00  0.00     0.000 C 
HETATM   21  C13 UNL     1      -5.128  17.344  28.345  1.00  0.00     0.000 C 
HETATM   22  C14 UNL     1      -4.858  16.931  26.914  1.00  0.00     0.000 C 
HETATM   23  C15 UNL     1      -5.857  17.561  26.007  1.00  0.00     0.005 C 
ENDBRANCH  17  18
ENDBRANCH  16  17
BRANCH  16  24
HETATM   24  C16 UNL     1      -9.391  16.155  24.325  1.00  0.00     0.149 C 
BRANCH  24  25
HETATM   25  O3  UNL     1     -10.615  16.524  24.595  1.00  0.00    -0.393 OA
ATOM     26  H3  UNL     1     -11.132  16.549  23.799  1.00  0.00     0.210 HD
ENDBRANCH  24  25
BRANCH  24  27
HETATM   27  C17 UNL     1      -9.053  16.642  23.018  1.00  0.00    -0.016 C 
HETATM   28  C18 UNL     1      -8.250  17.913  23.122  1.00  0.00     0.018 C 
HETATM   29  C19 UNL     1      -8.035  15.607  22.427  1.00  0.00     0.012 C 
HETATM   30  C20 UNL     1      -6.988  16.159  21.561  1.00  0.00     0.001 C 
HETATM   31  C21 UNL     1      -7.350  16.600  20.191  1.00  0.00     0.000 C 
HETATM   32  C22 UNL     1      -8.805  16.567  19.843  1.00  0.00     0.000 C 
HETATM   33  C23 UNL     1      -9.669  17.414  20.746  1.00  0.00     0.001 C 
HETATM   34  C24 UNL     1     -10.127  16.666  21.969  1.00  0.00     0.012 C 
ENDBRANCH  24  27
ENDBRANCH  16  24
ENDBRANCH  14  16
ENDBRANCH   3  12
BRANCH   1  35
HETATM   35  C3  UNL     1     -13.100  12.004  29.903  1.00  0.00     0.240 C 
HETATM   36  N1  UNL     1     -13.811  11.371  30.956  1.00  0.00    -0.360 N 
ATOM     37  H1  UNL     1     -13.499  11.499  31.918  1.00  0.00     0.162 HD
HETATM   38  O1  UNL     1     -13.496  11.840  28.726  1.00  0.00    -0.271 OA
BRANCH  36  39
HETATM   39  C2  UNL     1     -14.960  10.553  30.691  1.00  0.00     0.118 C 
HETATM   40  C1  UNL     1     -15.003   9.281  31.521  1.00  0.00     0.026 C 
ENDBRANCH  36  39
ENDBRANCH   1  35
BRANCH   7  41
HETATM   41  C26 UNL     1      -9.777  16.257  31.993  1.00  0.00     0.047 C 
BRANCH  41  42
HETATM   42  C27 UNL     1     -10.274  16.264  33.383  1.00  0.00    -0.012 C 
HETATM   43  C28 UNL     1      -9.985  14.861  33.944  1.00  0.00     0.005 C 
HETATM   44  C29 UNL     1     -10.947  14.642  35.112  1.00  0.00     0.000 C 
HETATM   45  C30 UNL     1     -10.927  15.929  35.910  1.00  0.00     0.000 C 
HETATM   46  C31 UNL     1      -9.585  16.644  35.710  1.00  0.00     0.000 C 
HETATM   47  C32 UNL     1      -9.497  17.211  34.303  1.00  0.00     0.005 C 
ENDBRANCH  41  42
ENDBRANCH   7  41
TORSDOF 11
ENDMDL
