MODEL 1
REMARK VINA RESULT: -9.466645716      0.000      0.000
REMARK  12 active torsions:
REMARK  status: ('A' for Active; 'I' for Inactive)
REMARK    1  A    between atoms: C2_2  and  N1_3 
REMARK       I    between atoms: N1_3  and  C3_5 
REMARK    2  A    between atoms: C3_5  and  C4_7 
REMARK    3  A    between atoms: N2_13  and  C10_14 
REMARK    4  A    between atoms: C10_14  and  C11_15 
REMARK    5  A    between atoms: C10_14  and  C12_18 
REMARK    6  A    between atoms: C11_15  and  O2_16 
REMARK       I    between atoms: C12_18  and  N3_20 
REMARK       I    between atoms: N3_20  and  C13_22 
REMARK    7  A    between atoms: C13_22  and  O5_24 
REMARK    8  A    between atoms: O5_24  and  C14_25 
REMARK    9  A    between atoms: C14_25  and  C15_26 
REMARK   10  A    between atoms: C15_26  and  C16_27 
REMARK   11  A    between atoms: C15_26  and  C22_33 
REMARK   12  A    between atoms: C25_36  and  C26_37 
ROOT
HETATM    1  C12 UNL     1      -8.373  16.376  29.565  1.00  0.00     0.262 C 
HETATM    2  O3  UNL     1      -7.649  15.373  29.432  1.00  0.00    -0.271 OA
HETATM    3  N3  UNL     1      -8.377  17.372  28.562  1.00  0.00    -0.271 N 
ATOM      4  H3  UNL     1      -8.922  18.217  28.736  1.00  0.00     0.174 HD
HETATM    5  C13 UNL     1      -7.675  17.282  27.325  1.00  0.00     0.367 C 
HETATM    6  O4  UNL     1      -7.689  18.247  26.528  1.00  0.00    -0.238 OA
ENDROOT
BRANCH   5   7
HETATM    7  O5  UNL     1      -6.967  16.149  26.953  1.00  0.00    -0.303 OA
BRANCH   7   8
HETATM    8  C14 UNL     1      -7.694  15.084  26.289  1.00  0.00     0.185 C 
BRANCH   8   9
HETATM    9  C15 UNL     1      -8.888  15.658  25.555  1.00  0.00     0.018 C 
BRANCH   9  10
HETATM   10  C16 UNL     1      -8.680  15.539  24.074  1.00  0.00    -0.008 C 
HETATM   11  C17 UNL     1      -9.911  15.379  23.246  1.00  0.00     0.005 C 
HETATM   12  C18 UNL     1      -9.511  14.845  21.878  1.00  0.00     0.000 C 
HETATM   13  C19 UNL     1      -8.415  15.673  21.286  1.00  0.00     0.000 C 
HETATM   14  C20 UNL     1      -8.006  16.862  22.081  1.00  0.00     0.000 C 
HETATM   15  C21 UNL     1      -7.610  16.417  23.499  1.00  0.00     0.005 C 
ENDBRANCH   9  10
BRANCH   9  16
HETATM   16  C22 UNL     1     -10.092  14.944  26.099  1.00  0.00    -0.008 C 
HETATM   17  C23 UNL     1     -10.927  15.751  27.075  1.00  0.00     0.005 C 
HETATM   18  C24 UNL     1     -12.129  14.834  27.396  1.00  0.00     0.005 C 
HETATM   19  C25 UNL     1     -11.596  13.777  28.342  1.00  0.00    -0.010 C 
HETATM   20  C34 UNL     1     -10.651  12.925  27.523  1.00  0.00     0.005 C 
HETATM   21  C35 UNL     1      -9.547  13.811  27.003  1.00  0.00     0.005 C 
BRANCH  19  22
HETATM   22  C26 UNL     1     -12.729  12.939  28.906  1.00  0.00    -0.010 C 
HETATM   23  C27 UNL     1     -13.650  13.899  29.669  1.00  0.00     0.005 C 
HETATM   24  C28 UNL     1     -14.409  13.071  30.715  1.00  0.00     0.009 C 
HETATM   25  C29 UNL     1     -13.451  12.965  31.898  1.00  0.00    -0.048 C 
HETATM   26  C30 UNL     1     -13.856  11.890  32.878  1.00  0.00     0.015 C 
HETATM   27  C31 UNL     1     -13.446  14.295  32.632  1.00  0.00     0.015 C 
HETATM   28  C32 UNL     1     -12.077  12.658  31.328  1.00  0.00     0.009 C 
HETATM   29  C33 UNL     1     -12.146  12.028  29.965  1.00  0.00     0.005 C 
ENDBRANCH  19  22
ENDBRANCH   9  16
ENDBRANCH   8   9
ENDBRANCH   7   8
ENDBRANCH   5   7
BRANCH   1  30
HETATM   30  C10 UNL     1      -9.262  16.558  30.787  1.00  0.00     0.338 C 
BRANCH  30  31
HETATM   31  N2  UNL     1      -8.836  15.618  31.713  1.00  0.00     0.114 N 
HETATM   32  C6  UNL     1      -7.783  16.100  32.633  1.00  0.00     0.225 C 
HETATM   33  C5  UNL     1      -8.540  16.870  33.639  1.00  0.00     0.052 C 
HETATM   34  C7  UNL     1      -7.381  14.765  33.213  1.00  0.00     0.038 C 
HETATM   35  C4  UNL     1      -9.840  16.062  33.749  1.00  0.00     0.113 C 
HETATM   36  C9  UNL     1      -9.682  15.044  32.701  1.00  0.00     0.237 C 
HETATM   37  C8  UNL     1      -8.703  13.970  33.211  1.00  0.00     0.039 C 
BRANCH  35  38
HETATM   38  C3  UNL     1     -10.087  15.555  35.114  1.00  0.00     0.224 C 
HETATM   39  N1  UNL     1     -11.233  14.743  35.325  1.00  0.00    -0.361 N 
ATOM     40  H1  UNL     1     -11.817  14.523  34.519  1.00  0.00     0.162 HD
HETATM   41  O1  UNL     1      -9.352  15.803  36.111  1.00  0.00    -0.273 OA
BRANCH  39  42
HETATM   42  C2  UNL     1     -11.622  14.210  36.612  1.00  0.00     0.118 C 
HETATM   43  C1  UNL     1     -11.954  12.732  36.552  1.00  0.00     0.026 C 
ENDBRANCH  39  42
ENDBRANCH  35  38
ENDBRANCH  30  31
BRANCH  30  44
HETATM   44  C11 UNL     1     -10.655  16.553  30.283  1.00  0.00     0.210 C 
BRANCH  44  45
HETATM   45  O2  UNL     1     -11.006  17.724  29.610  1.00  0.00    -0.398 OA
ATOM     46  H2  UNL     1     -10.835  17.688  28.676  1.00  0.00     0.209 HD
ENDBRANCH  44  45
ENDBRANCH  30  44
ENDBRANCH   1  30
TORSDOF 12
ENDMDL
MODEL 2
REMARK VINA RESULT: -9.145672451      2.237      8.435
REMARK  12 active torsions:
REMARK  status: ('A' for Active; 'I' for Inactive)
REMARK    1  A    between atoms: C2_2  and  N1_3 
REMARK       I    between atoms: N1_3  and  C3_5 
REMARK    2  A    between atoms: C3_5  and  C4_7 
REMARK    3  A    between atoms: N2_13  and  C10_14 
REMARK    4  A    between atoms: C10_14  and  C11_15 
REMARK    5  A    between atoms: C10_14  and  C12_18 
REMARK    6  A    between atoms: C11_15  and  O2_16 
REMARK       I    between atoms: C12_18  and  N3_20 
REMARK       I    between atoms: N3_20  and  C13_22 
REMARK    7  A    between atoms: C13_22  and  O5_24 
REMARK    8  A    between atoms: O5_24  and  C14_25 
REMARK    9  A    between atoms: C14_25  and  C15_26 
REMARK   10  A    between atoms: C15_26  and  C16_27 
REMARK   11  A    between atoms: C15_26  and  C22_33 
REMARK   12  A    between atoms: C25_36  and  C26_37 
ROOT
HETATM    1  C12 UNL     1      -9.193  17.117  28.350  1.00  0.00     0.262 C 
HETATM    2  O3  UNL     1     -10.386  16.845  28.570  1.00  0.00    -0.271 OA
HETATM    3  N3  UNL     1      -8.287  17.215  29.432  1.00  0.00    -0.271 N 
ATOM      4  H3  UNL     1      -7.334  17.514  29.226  1.00  0.00     0.174 HD
HETATM    5  C13 UNL     1      -8.610  16.925  30.789  1.00  0.00     0.367 C 
HETATM    6  O4  UNL     1      -7.755  17.104  31.686  1.00  0.00    -0.238 OA
ENDROOT
BRANCH   5   7
HETATM    7  O5  UNL     1      -9.851  16.438  31.171  1.00  0.00    -0.303 OA
BRANCH   7   8
HETATM    8  C14 UNL     1      -9.921  15.079  31.671  1.00  0.00     0.185 C 
BRANCH   8   9
HETATM    9  C15 UNL     1     -11.347  14.750  32.065  1.00  0.00     0.018 C 
BRANCH   9  10
HETATM   10  C16 UNL     1     -12.043  14.059  30.930  1.00  0.00    -0.008 C 
HETATM   11  C17 UNL     1     -13.114  14.836  30.242  1.00  0.00     0.005 C 
HETATM   12  C18 UNL     1     -13.982  13.871  29.449  1.00  0.00     0.000 C 
HETATM   13  C19 UNL     1     -13.140  12.990  28.582  1.00  0.00     0.000 C 
HETATM   14  C20 UNL     1     -11.680  13.277  28.600  1.00  0.00     0.000 C 
HETATM   15  C21 UNL     1     -11.166  13.223  30.048  1.00  0.00     0.005 C 
ENDBRANCH   9  10
BRANCH   9  16
HETATM   16  C22 UNL     1     -11.253  13.966  33.341  1.00  0.00    -0.008 C 
HETATM   17  C23 UNL     1     -12.581  13.492  33.899  1.00  0.00     0.005 C 
HETATM   18  C24 UNL     1     -12.195  12.645  35.134  1.00  0.00     0.005 C 
HETATM   19  C25 UNL     1     -11.816  13.642  36.211  1.00  0.00    -0.010 C 
HETATM   20  C34 UNL     1     -10.527  14.284  35.747  1.00  0.00     0.005 C 
HETATM   21  C35 UNL     1     -10.787  14.966  34.428  1.00  0.00     0.005 C 
BRANCH  19  22
HETATM   22  C26 UNL     1     -11.624  12.945  37.546  1.00  0.00    -0.010 C 
HETATM   23  C27 UNL     1     -11.547  11.442  37.251  1.00  0.00     0.005 C 
HETATM   24  C28 UNL     1     -11.961  10.702  38.530  1.00  0.00     0.009 C 
HETATM   25  C29 UNL     1     -13.486  10.685  38.494  1.00  0.00    -0.048 C 
HETATM   26  C30 UNL     1     -14.094  10.332  39.830  1.00  0.00     0.015 C 
HETATM   27  C31 UNL     1     -13.930   9.641  37.484  1.00  0.00     0.015 C 
HETATM   28  C32 UNL     1     -13.934  12.073  38.069  1.00  0.00     0.009 C 
HETATM   29  C33 UNL     1     -12.897  13.123  38.347  1.00  0.00     0.005 C 
ENDBRANCH  19  22
ENDBRANCH   9  16
ENDBRANCH   8   9
ENDBRANCH   7   8
ENDBRANCH   5   7
BRANCH   1  30
HETATM   30  C10 UNL     1      -8.677  17.347  26.937  1.00  0.00     0.338 C 
BRANCH  30  31
HETATM   31  N2  UNL     1      -8.559  16.090  26.363  1.00  0.00     0.114 N 
HETATM   32  C6  UNL     1      -9.843  15.483  25.951  1.00  0.00     0.225 C 
HETATM   33  C5  UNL     1     -10.125  16.137  24.657  1.00  0.00     0.052 C 
HETATM   34  C7  UNL     1      -9.346  14.078  25.711  1.00  0.00     0.038 C 
HETATM   35  C4  UNL     1      -8.718  16.294  24.065  1.00  0.00     0.113 C 
HETATM   36  C9  UNL     1      -7.850  15.836  25.158  1.00  0.00     0.237 C 
HETATM   37  C8  UNL     1      -7.904  14.297  25.209  1.00  0.00     0.039 C 
BRANCH  35  38
HETATM   38  C3  UNL     1      -8.559  15.598  22.773  1.00  0.00     0.224 C 
HETATM   39  N1  UNL     1      -7.352  15.799  22.053  1.00  0.00    -0.361 N 
ATOM     40  H1  UNL     1      -6.638  16.393  22.474  1.00  0.00     0.162 HD
HETATM   41  O1  UNL     1      -9.429  14.840  22.259  1.00  0.00    -0.273 OA
BRANCH  39  42
HETATM   42  C2  UNL     1      -7.072  15.215  20.760  1.00  0.00     0.118 C 
HETATM   43  C1  UNL     1      -7.313  16.183  19.620  1.00  0.00     0.026 C 
ENDBRANCH  39  42
ENDBRANCH  35  38
ENDBRANCH  30  31
BRANCH  30  44
HETATM   44  C11 UNL     1      -7.500  18.236  27.070  1.00  0.00     0.210 C 
BRANCH  44  45
HETATM   45  O2  UNL     1      -7.830  19.547  27.417  1.00  0.00    -0.398 OA
ATOM     46  H2  UNL     1      -7.699  20.169  26.711  1.00  0.00     0.209 HD
ENDBRANCH  44  45
ENDBRANCH  30  44
ENDBRANCH   1  30
TORSDOF 12
ENDMDL
MODEL 3
REMARK VINA RESULT: -9.060623211      2.865      9.998
REMARK  12 active torsions:
REMARK  status: ('A' for Active; 'I' for Inactive)
REMARK    1  A    between atoms: C2_2  and  N1_3 
REMARK       I    between atoms: N1_3  and  C3_5 
REMARK    2  A    between atoms: C3_5  and  C4_7 
REMARK    3  A    between atoms: N2_13  and  C10_14 
REMARK    4  A    between atoms: C10_14  and  C11_15 
REMARK    5  A    between atoms: C10_14  and  C12_18 
REMARK    6  A    between atoms: C11_15  and  O2_16 
REMARK       I    between atoms: C12_18  and  N3_20 
REMARK       I    between atoms: N3_20  and  C13_22 
REMARK    7  A    between atoms: C13_22  and  O5_24 
REMARK    8  A    between atoms: O5_24  and  C14_25 
REMARK    9  A    between atoms: C14_25  and  C15_26 
REMARK   10  A    between atoms: C15_26  and  C16_27 
REMARK   11  A    between atoms: C15_26  and  C22_33 
REMARK   12  A    between atoms: C25_36  and  C26_37 
ROOT
HETATM    1  C12 UNL     1     -10.357  15.365  26.153  1.00  0.00     0.262 C 
HETATM    2  O3  UNL     1      -9.987  14.186  26.298  1.00  0.00    -0.271 OA
HETATM    3  N3  UNL     1     -11.200  15.956  27.122  1.00  0.00    -0.271 N 
ATOM      4  H3  UNL     1     -11.548  16.897  26.936  1.00  0.00     0.174 HD
HETATM    5  C13 UNL     1     -11.599  15.333  28.340  1.00  0.00     0.367 C 
HETATM    6  O4  UNL     1     -12.401  15.914  29.105  1.00  0.00    -0.238 OA
ENDROOT
BRANCH   5   7
HETATM    7  O5  UNL     1     -11.125  14.089  28.729  1.00  0.00    -0.303 OA
BRANCH   7   8
HETATM    8  C14 UNL     1      -9.822  14.028  29.363  1.00  0.00     0.185 C 
BRANCH   8   9
HETATM    9  C15 UNL     1      -9.644  15.219  30.282  1.00  0.00     0.018 C 
BRANCH   9  10
HETATM   10  C16 UNL     1      -9.637  14.761  31.712  1.00  0.00    -0.008 C 
HETATM   11  C17 UNL     1      -8.458  15.170  32.529  1.00  0.00     0.005 C 
HETATM   12  C18 UNL     1      -8.394  14.287  33.766  1.00  0.00     0.000 C 
HETATM   13  C19 UNL     1      -9.713  14.263  34.470  1.00  0.00     0.000 C 
HETATM   14  C20 UNL     1     -10.766  15.143  33.892  1.00  0.00     0.000 C 
HETATM   15  C21 UNL     1     -10.964  14.795  32.407  1.00  0.00     0.005 C 
ENDBRANCH   9  10
BRANCH   9  16
HETATM   16  C22 UNL     1      -8.397  15.916  29.820  1.00  0.00    -0.008 C 
HETATM   17  C23 UNL     1      -8.623  17.277  29.191  1.00  0.00     0.005 C 
HETATM   18  C24 UNL     1      -7.198  17.803  28.901  1.00  0.00     0.005 C 
HETATM   19  C25 UNL     1      -6.722  17.043  27.680  1.00  0.00    -0.010 C 
HETATM   20  C34 UNL     1      -6.536  15.610  28.130  1.00  0.00     0.005 C 
HETATM   21  C35 UNL     1      -7.864  15.093  28.622  1.00  0.00     0.005 C 
BRANCH  19  22
HETATM   22  C26 UNL     1      -5.418  17.621  27.160  1.00  0.00    -0.010 C 
HETATM   23  C27 UNL     1      -5.778  18.893  26.383  1.00  0.00     0.005 C 
HETATM   24  C28 UNL     1      -4.650  19.150  25.376  1.00  0.00     0.009 C 
HETATM   25  C29 UNL     1      -4.984  18.262  24.181  1.00  0.00    -0.048 C 
HETATM   26  C30 UNL     1      -3.816  18.089  23.241  1.00  0.00     0.015 C 
HETATM   27  C31 UNL     1      -6.121  18.908  23.407  1.00  0.00     0.015 C 
HETATM   28  C32 UNL     1      -5.408  16.913  24.738  1.00  0.00     0.009 C 
HETATM   29  C33 UNL     1      -4.872  16.666  26.120  1.00  0.00     0.005 C 
ENDBRANCH  19  22
ENDBRANCH   9  16
ENDBRANCH   8   9
ENDBRANCH   7   8
ENDBRANCH   5   7
BRANCH   1  30
HETATM   30  C10 UNL     1      -9.922  16.193  24.953  1.00  0.00     0.338 C 
BRANCH  30  31
HETATM   31  N2  UNL     1      -9.323  15.305  24.072  1.00  0.00     0.114 N 
HETATM   32  C6  UNL     1     -10.205  14.840  22.980  1.00  0.00     0.225 C 
HETATM   33  C5  UNL     1     -10.163  15.955  22.013  1.00  0.00     0.052 C 
HETATM   34  C7  UNL     1      -9.345  13.704  22.481  1.00  0.00     0.038 C 
HETATM   35  C4  UNL     1      -8.716  16.445  22.153  1.00  0.00     0.113 C 
HETATM   36  C9  UNL     1      -8.201  15.631  23.263  1.00  0.00     0.237 C 
HETATM   37  C8  UNL     1      -7.911  14.214  22.733  1.00  0.00     0.039 C 
BRANCH  35  38
HETATM   38  C3  UNL     1      -7.960  16.368  20.887  1.00  0.00     0.224 C 
HETATM   39  N1  UNL     1      -6.610  16.808  20.891  1.00  0.00    -0.361 N 
ATOM     40  H1  UNL     1      -6.214  17.130  21.774  1.00  0.00     0.162 HD
HETATM   41  O1  UNL     1      -8.436  15.946  19.796  1.00  0.00    -0.273 OA
BRANCH  39  42
HETATM   42  C2  UNL     1      -5.760  16.829  19.720  1.00  0.00     0.118 C 
HETATM   43  C1  UNL     1      -4.567  15.904  19.851  1.00  0.00     0.026 C 
ENDBRANCH  39  42
ENDBRANCH  35  38
ENDBRANCH  30  31
BRANCH  30  44
HETATM   44  C11 UNL     1      -9.168  17.344  25.502  1.00  0.00     0.210 C 
BRANCH  44  45
HETATM   45  O2  UNL     1      -9.982  18.306  26.101  1.00  0.00    -0.398 OA
ATOM     46  H2  UNL     1      -9.514  19.095  26.350  1.00  0.00     0.209 HD
ENDBRANCH  44  45
ENDBRANCH  30  44
ENDBRANCH   1  30
TORSDOF 12
ENDMDL
MODEL 4
REMARK VINA RESULT: -8.998887421      2.683      5.266
REMARK  12 active torsions:
REMARK  status: ('A' for Active; 'I' for Inactive)
REMARK    1  A    between atoms: C2_2  and  N1_3 
REMARK       I    between atoms: N1_3  and  C3_5 
REMARK    2  A    between atoms: C3_5  and  C4_7 
REMARK    3  A    between atoms: N2_13  and  C10_14 
REMARK    4  A    between atoms: C10_14  and  C11_15 
REMARK    5  A    between atoms: C10_14  and  C12_18 
REMARK    6  A    between atoms: C11_15  and  O2_16 
REMARK       I    between atoms: C12_18  and  N3_20 
REMARK       I    between atoms: N3_20  and  C13_22 
REMARK    7  A    between atoms: C13_22  and  O5_24 
REMARK    8  A    between atoms: O5_24  and  C14_25 
REMARK    9  A    between atoms: C14_25  and  C15_26 
REMARK   10  A    between atoms: C15_26  and  C16_27 
REMARK   11  A    between atoms: C15_26  and  C22_33 
REMARK   12  A    between atoms: C25_36  and  C26_37 
ROOT
HETATM    1  C12 UNL     1     -11.442  15.450  27.833  1.00  0.00     0.262 C 
HETATM    2  O3  UNL     1     -11.548  16.457  28.554  1.00  0.00    -0.271 OA
HETATM    3  N3  UNL     1     -10.667  15.514  26.651  1.00  0.00    -0.271 N 
ATOM      4  H3  UNL     1     -10.663  14.695  26.043  1.00  0.00     0.174 HD
HETATM    5  C13 UNL     1      -9.892  16.640  26.249  1.00  0.00     0.367 C 
HETATM    6  O4  UNL     1      -9.291  16.624  25.152  1.00  0.00    -0.238 OA
ENDROOT
BRANCH   5   7
HETATM    7  O5  UNL     1      -9.766  17.775  27.036  1.00  0.00    -0.303 OA
BRANCH   7   8
HETATM    8  C14 UNL     1      -8.711  17.795  28.031  1.00  0.00     0.185 C 
BRANCH   8   9
HETATM    9  C15 UNL     1      -7.936  16.494  27.984  1.00  0.00     0.018 C 
BRANCH   9  10
HETATM   10  C16 UNL     1      -6.663  16.688  27.215  1.00  0.00    -0.008 C 
HETATM   11  C17 UNL     1      -6.443  18.044  26.634  1.00  0.00     0.005 C 
HETATM   12  C18 UNL     1      -5.373  17.945  25.557  1.00  0.00     0.000 C 
HETATM   13  C19 UNL     1      -4.160  17.241  26.078  1.00  0.00     0.000 C 
HETATM   14  C20 UNL     1      -4.203  16.867  27.518  1.00  0.00     0.000 C 
HETATM   15  C21 UNL     1      -5.453  16.013  27.787  1.00  0.00     0.005 C 
ENDBRANCH   9  10
BRANCH   9  16
HETATM   16  C22 UNL     1      -7.771  16.058  29.411  1.00  0.00    -0.008 C 
HETATM   17  C23 UNL     1      -8.627  14.876  29.821  1.00  0.00     0.005 C 
HETATM   18  C24 UNL     1      -8.196  14.581  31.277  1.00  0.00     0.005 C 
HETATM   19  C25 UNL     1      -8.844  15.659  32.121  1.00  0.00    -0.010 C 
HETATM   20  C34 UNL     1      -8.147  16.951  31.751  1.00  0.00     0.005 C 
HETATM   21  C35 UNL     1      -8.359  17.197  30.279  1.00  0.00     0.005 C 
BRANCH  19  22
HETATM   22  C26 UNL     1      -8.676  15.358  33.600  1.00  0.00    -0.010 C 
HETATM   23  C27 UNL     1      -9.159  13.919  33.814  1.00  0.00     0.005 C 
HETATM   24  C28 UNL     1      -9.577  13.789  35.285  1.00  0.00     0.009 C 
HETATM   25  C29 UNL     1     -11.002  14.331  35.334  1.00  0.00    -0.048 C 
HETATM   26  C30 UNL     1     -11.461  14.632  36.740  1.00  0.00     0.015 C 
HETATM   27  C31 UNL     1     -11.934  13.283  34.748  1.00  0.00     0.015 C 
HETATM   28  C32 UNL     1     -11.023  15.599  34.498  1.00  0.00     0.009 C 
HETATM   29  C33 UNL     1      -9.662  16.220  34.361  1.00  0.00     0.005 C 
ENDBRANCH  19  22
ENDBRANCH   9  16
ENDBRANCH   8   9
ENDBRANCH   7   8
ENDBRANCH   5   7
BRANCH   1  30
HETATM   30  C10 UNL     1     -12.128  14.139  28.192  1.00  0.00     0.338 C 
BRANCH  30  31
HETATM   31  N2  UNL     1     -12.186  14.106  29.578  1.00  0.00     0.114 N 
HETATM   32  C6  UNL     1     -13.484  14.529  30.145  1.00  0.00     0.225 C 
HETATM   33  C5  UNL     1     -14.325  13.325  29.999  1.00  0.00     0.052 C 
HETATM   34  C7  UNL     1     -13.050  14.672  31.584  1.00  0.00     0.038 C 
HETATM   35  C4  UNL     1     -13.313  12.197  30.236  1.00  0.00     0.113 C 
HETATM   36  C9  UNL     1     -12.038  12.918  30.345  1.00  0.00     0.237 C 
HETATM   37  C8  UNL     1     -11.971  13.580  31.735  1.00  0.00     0.039 C 
BRANCH  35  38
HETATM   38  C3  UNL     1     -13.672  11.336  31.381  1.00  0.00     0.224 C 
HETATM   39  N1  UNL     1     -12.771  10.298  31.741  1.00  0.00    -0.361 N 
ATOM     40  H1  UNL     1     -11.904  10.212  31.211  1.00  0.00     0.162 HD
HETATM   41  O1  UNL     1     -14.731  11.454  32.058  1.00  0.00    -0.273 OA
BRANCH  39  42
HETATM   42  C2  UNL     1     -13.008   9.355  32.812  1.00  0.00     0.118 C 
HETATM   43  C1  UNL     1     -12.604   7.942  32.443  1.00  0.00     0.026 C 
ENDBRANCH  39  42
ENDBRANCH  35  38
ENDBRANCH  30  31
BRANCH  30  44
HETATM   44  C11 UNL     1     -11.416  13.084  27.435  1.00  0.00     0.210 C 
BRANCH  44  45
HETATM   45  O2  UNL     1     -10.059  12.995  27.748  1.00  0.00    -0.398 OA
ATOM     46  H2  UNL     1      -9.595  13.818  27.653  1.00  0.00     0.209 HD
ENDBRANCH  44  45
ENDBRANCH  30  44
ENDBRANCH   1  30
TORSDOF 12
ENDMDL
MODEL 5
REMARK VINA RESULT: -8.914687567      2.582      8.421
REMARK  12 active torsions:
REMARK  status: ('A' for Active; 'I' for Inactive)
REMARK    1  A    between atoms: C2_2  and  N1_3 
REMARK       I    between atoms: N1_3  and  C3_5 
REMARK    2  A    between atoms: C3_5  and  C4_7 
REMARK    3  A    between atoms: N2_13  and  C10_14 
REMARK    4  A    between atoms: C10_14  and  C11_15 
REMARK    5  A    between atoms: C10_14  and  C12_18 
REMARK    6  A    between atoms: C11_15  and  O2_16 
REMARK       I    between atoms: C12_18  and  N3_20 
REMARK       I    between atoms: N3_20  and  C13_22 
REMARK    7  A    between atoms: C13_22  and  O5_24 
REMARK    8  A    between atoms: O5_24  and  C14_25 
REMARK    9  A    between atoms: C14_25  and  C15_26 
REMARK   10  A    between atoms: C15_26  and  C16_27 
REMARK   11  A    between atoms: C15_26  and  C22_33 
REMARK   12  A    between atoms: C25_36  and  C26_37 
ROOT
HETATM    1  C12 UNL     1      -9.987  15.065  27.270  1.00  0.00     0.262 C 
HETATM    2  O3  UNL     1     -10.864  14.184  27.267  1.00  0.00    -0.271 OA
HETATM    3  N3  UNL     1     -10.215  16.276  27.963  1.00  0.00    -0.271 N 
ATOM      4  H3  UNL     1      -9.509  17.008  27.882  1.00  0.00     0.174 HD
HETATM    5  C13 UNL     1     -11.360  16.549  28.766  1.00  0.00     0.367 C 
HETATM    6  O4  UNL     1     -11.502  17.677  29.288  1.00  0.00    -0.238 OA
ENDROOT
BRANCH   5   7
HETATM    7  O5  UNL     1     -12.343  15.600  29.006  1.00  0.00    -0.303 OA
BRANCH   7   8
HETATM    8  C14 UNL     1     -12.483  15.097  30.359  1.00  0.00     0.185 C 
BRANCH   8   9
HETATM    9  C15 UNL     1     -11.258  14.290  30.735  1.00  0.00     0.018 C 
BRANCH   9  10
HETATM   10  C16 UNL     1     -10.511  14.982  31.837  1.00  0.00    -0.008 C 
HETATM   11  C17 UNL     1     -10.789  14.506  33.223  1.00  0.00     0.005 C 
HETATM   12  C18 UNL     1     -10.313  15.565  34.206  1.00  0.00     0.000 C 
HETATM   13  C19 UNL     1      -8.902  15.965  33.913  1.00  0.00     0.000 C 
HETATM   14  C20 UNL     1      -8.237  15.215  32.812  1.00  0.00     0.000 C 
HETATM   15  C21 UNL     1      -9.084  15.326  31.533  1.00  0.00     0.005 C 
ENDBRANCH   9  10
BRANCH   9  16
HETATM   16  C22 UNL     1     -11.753  12.910  31.057  1.00  0.00    -0.008 C 
HETATM   17  C23 UNL     1     -11.914  11.993  29.860  1.00  0.00     0.005 C 
HETATM   18  C24 UNL     1     -12.334  10.637  30.473  1.00  0.00     0.005 C 
HETATM   19  C25 UNL     1     -13.790  10.796  30.859  1.00  0.00    -0.010 C 
HETATM   20  C34 UNL     1     -13.809  11.778  32.010  1.00  0.00     0.005 C 
HETATM   21  C35 UNL     1     -13.218  13.079  31.531  1.00  0.00     0.005 C 
BRANCH  19  22
HETATM   22  C26 UNL     1     -14.384   9.462  31.275  1.00  0.00    -0.010 C 
HETATM   23  C27 UNL     1     -15.224   9.727  32.531  1.00  0.00     0.005 C 
HETATM   24  C28 UNL     1     -15.324   8.404  33.303  1.00  0.00     0.009 C 
HETATM   25  C29 UNL     1     -14.035   8.330  34.116  1.00  0.00    -0.048 C 
HETATM   26  C30 UNL     1     -13.769   6.946  34.657  1.00  0.00     0.015 C 
HETATM   27  C31 UNL     1     -14.156   9.282  35.294  1.00  0.00     0.015 C 
HETATM   28  C32 UNL     1     -12.905   8.754  33.194  1.00  0.00     0.009 C 
HETATM   29  C33 UNL     1     -13.249   8.576  31.742  1.00  0.00     0.005 C 
ENDBRANCH  19  22
ENDBRANCH   9  16
ENDBRANCH   8   9
ENDBRANCH   7   8
ENDBRANCH   5   7
BRANCH   1  30
HETATM   30  C10 UNL     1      -8.663  14.871  26.543  1.00  0.00     0.338 C 
BRANCH  30  31
HETATM   31  N2  UNL     1      -8.978  14.770  25.196  1.00  0.00     0.114 N 
HETATM   32  C6  UNL     1      -9.882  15.829  24.699  1.00  0.00     0.225 C 
HETATM   33  C5  UNL     1      -8.975  16.974  24.486  1.00  0.00     0.052 C 
HETATM   34  C7  UNL     1     -10.230  15.203  23.370  1.00  0.00     0.038 C 
HETATM   35  C4  UNL     1      -7.691  16.282  24.009  1.00  0.00     0.113 C 
HETATM   36  C9  UNL     1      -8.016  14.856  24.153  1.00  0.00     0.237 C 
HETATM   37  C8  UNL     1      -8.940  14.448  22.989  1.00  0.00     0.039 C 
BRANCH  35  38
HETATM   38  C3  UNL     1      -7.269  16.719  22.664  1.00  0.00     0.224 C 
HETATM   39  N1  UNL     1      -5.927  16.467  22.273  1.00  0.00    -0.361 N 
ATOM     40  H1  UNL     1      -5.324  15.969  22.928  1.00  0.00     0.162 HD
HETATM   41  O1  UNL     1      -8.019  17.312  21.838  1.00  0.00    -0.273 OA
BRANCH  39  42
HETATM   42  C2  UNL     1      -5.363  16.871  21.004  1.00  0.00     0.118 C 
HETATM   43  C1  UNL     1      -5.404  15.765  19.970  1.00  0.00     0.026 C 
ENDBRANCH  39  42
ENDBRANCH  35  38
ENDBRANCH  30  31
BRANCH  30  44
HETATM   44  C11 UNL     1      -7.968  13.768  27.247  1.00  0.00     0.210 C 
BRANCH  44  45
HETATM   45  O2  UNL     1      -8.430  13.561  28.548  1.00  0.00    -0.398 OA
ATOM     46  H2  UNL     1      -8.075  12.779  28.954  1.00  0.00     0.209 HD
ENDBRANCH  44  45
ENDBRANCH  30  44
ENDBRANCH   1  30
TORSDOF 12
ENDMDL
