MODEL 1
REMARK VINA RESULT: -8.820408385      0.000      0.000
REMARK  15 active torsions:
REMARK  status: ('A' for Active; 'I' for Inactive)
REMARK    1  A    between atoms: C2_2  and  C3_3 
REMARK    2  A    between atoms: C3_3  and  N1_5 
REMARK       I    between atoms: N1_5  and  C5_7 
REMARK       I    between atoms: C5_7  and  N2_9 
REMARK    3  A    between atoms: N2_9  and  C6_10 
REMARK    4  A    between atoms: C7_11  and  C8_12 
REMARK    5  A    between atoms: C12_16  and  C13_17 
REMARK       I    between atoms: C13_17  and  N3_19 
REMARK    6  A    between atoms: N3_19  and  C14_21 
REMARK    7  A    between atoms: C14_21  and  O3_24 
REMARK    8  A    between atoms: C17_26  and  N4_27 
REMARK       I    between atoms: N4_27  and  C18_29 
REMARK    9  A    between atoms: C18_29  and  C19_31 
REMARK   10  A    between atoms: C19_31  and  C20_32 
REMARK   11  A    between atoms: C20_32  and  C21_33 
REMARK   12  A    between atoms: C21_33  and  C22_34 
REMARK   13  A    between atoms: C22_34  and  C23_35 
REMARK   14  A    between atoms: C23_35  and  O5_36 
REMARK   15  A    between atoms: N6_40  and  C25_41 
ROOT
HETATM    1  C6  UNL     1      -7.995  16.027  25.787  1.00  0.00     0.214 A 
HETATM    2  C7  UNL     1      -7.976  15.948  27.225  1.00  0.00     0.029 A 
HETATM    3  C12 UNL     1      -8.783  15.029  27.791  1.00  0.00     0.089 A 
HETATM    4  C17 UNL     1      -9.620  14.180  27.007  1.00  0.00     0.139 A 
HETATM    5  N5  UNL     1      -9.595  14.303  25.696  1.00  0.00    -0.276 N 
ATOM      6  H5  UNL     1     -10.197  13.695  25.140  1.00  0.00     0.189 HD
HETATM    7  N6  UNL     1      -8.816  15.191  25.057  1.00  0.00    -0.234 N 
ENDROOT
BRANCH   4   8
HETATM    8  N4  UNL     1     -10.374  13.328  27.612  1.00  0.00    -0.311 N 
HETATM    9  C18 UNL     1     -11.736  13.403  27.857  1.00  0.00     0.223 C 
HETATM   10  O4  UNL     1     -12.276  14.406  28.359  1.00  0.00    -0.273 OA
ATOM     11  H4  UNL     1      -9.908  12.490  27.956  1.00  0.00     0.170 HD
BRANCH   9  12
HETATM   12  C19 UNL     1     -12.689  12.245  27.526  1.00  0.00     0.103 C 
BRANCH  12  13
HETATM   13  C20 UNL     1     -12.223  11.032  28.214  1.00  0.00     0.009 C 
BRANCH  13  14
HETATM   14  C21 UNL     1     -12.159  10.971  29.663  1.00  0.00     0.002 C 
BRANCH  14  15
HETATM   15  C22 UNL     1     -13.261  10.420  30.462  1.00  0.00     0.026 C 
BRANCH  15  16
HETATM   16  C23 UNL     1     -12.923   9.297  31.376  1.00  0.00     0.167 C 
BRANCH  16  17
HETATM   17  O5  UNL     1     -11.760   8.686  30.801  1.00  0.00    -0.396 OA
HETATM   18  C24 UNL     1     -11.744   7.363  31.262  1.00  0.00     0.201 C 
ENDBRANCH  16  17
ENDBRANCH  15  16
ENDBRANCH  14  15
ENDBRANCH  13  14
ENDBRANCH  12  13
ENDBRANCH   9  12
ENDBRANCH   4   8
BRANCH   3  19
HETATM   19  C13 UNL     1      -8.821  14.695  29.197  1.00  0.00     0.258 C 
HETATM   20  O2  UNL     1      -8.022  13.883  29.651  1.00  0.00    -0.267 OA
HETATM   21  N3  UNL     1      -9.761  15.280  30.079  1.00  0.00    -0.326 N 
ATOM     22  H3  UNL     1     -10.416  15.949  29.675  1.00  0.00     0.165 HD
BRANCH  21  23
HETATM   23  C14 UNL     1      -9.882  15.031  31.468  1.00  0.00     0.126 C 
HETATM   24  C15 UNL     1      -8.873  15.879  32.251  1.00  0.00     0.070 C 
HETATM   25  C16 UNL     1     -11.211  15.202  32.092  1.00  0.00     0.070 C 
BRANCH  23  26
HETATM   26  O3  UNL     1      -9.465  13.699  31.730  1.00  0.00    -0.372 OA
ATOM     27  H3  UNL     1     -10.005  13.341  32.426  1.00  0.00     0.212 HD
ENDBRANCH  23  26
ENDBRANCH  21  23
ENDBRANCH   3  19
BRANCH   2  28
HETATM   28  C8  UNL     1      -7.155  16.899  27.927  1.00  0.00    -0.018 C 
HETATM   29  C9  UNL     1      -5.674  16.533  27.736  1.00  0.00     0.019 C 
HETATM   30  C10 UNL     1      -7.301  17.207  29.356  1.00  0.00     0.019 C 
HETATM   31  C11 UNL     1      -7.382  18.300  27.267  1.00  0.00     0.019 C 
ENDBRANCH   2  28
BRANCH   7  32
HETATM   32  C25 UNL     1      -8.873  15.214  23.639  1.00  0.00     0.015 C 
HETATM   33  C26 UNL     1      -8.257  14.069  22.885  1.00  0.00     0.055 C 
HETATM   34  C27 UNL     1      -7.712  14.681  21.571  1.00  0.00     0.014 C 
HETATM   35  C28 UNL     1      -8.715  15.494  20.838  1.00  0.00    -0.047 C 
HETATM   36  C29 UNL     1      -9.600  14.658  19.928  1.00  0.00     0.015 C 
HETATM   37  C30 UNL     1      -7.923  16.408  19.889  1.00  0.00     0.015 C 
HETATM   38  C31 UNL     1      -9.566  16.408  21.666  1.00  0.00     0.014 C 
HETATM   39  C32 UNL     1     -10.097  15.623  22.918  1.00  0.00     0.055 C 
ENDBRANCH   7  32
BRANCH   1  40
HETATM   40  N2  UNL     1      -7.311  16.761  25.132  1.00  0.00    -0.331 NA
HETATM   41  C5  UNL     1      -6.551  17.560  24.378  1.00  0.00     0.396 C 
HETATM   42  N1  UNL     1      -5.089  17.474  24.447  1.00  0.00    -0.327 N 
HETATM   43  O1  UNL     1      -6.980  18.453  23.551  1.00  0.00    -0.230 OA
ATOM     44  H1  UNL     1      -4.675  16.789  25.079  1.00  0.00     0.165 HD
BRANCH  42  45
HETATM   45  C3  UNL     1      -4.217  18.294  23.679  1.00  0.00     0.082 C 
HETATM   46  C4  UNL     1      -3.922  17.710  22.307  1.00  0.00     0.032 C 
BRANCH  45  47
HETATM   47  C2  UNL     1      -2.879  18.521  24.371  1.00  0.00     0.020 C 
HETATM   48  C1  UNL     1      -2.576  17.420  25.363  1.00  0.00     0.007 C 
ENDBRANCH  45  47
ENDBRANCH  42  45
ENDBRANCH   1  40
TORSDOF 15
ENDMDL
MODEL 2
REMARK VINA RESULT: -8.790452177      0.901      1.173
REMARK  15 active torsions:
REMARK  status: ('A' for Active; 'I' for Inactive)
REMARK    1  A    between atoms: C2_2  and  C3_3 
REMARK    2  A    between atoms: C3_3  and  N1_5 
REMARK       I    between atoms: N1_5  and  C5_7 
REMARK       I    between atoms: C5_7  and  N2_9 
REMARK    3  A    between atoms: N2_9  and  C6_10 
REMARK    4  A    between atoms: C7_11  and  C8_12 
REMARK    5  A    between atoms: C12_16  and  C13_17 
REMARK       I    between atoms: C13_17  and  N3_19 
REMARK    6  A    between atoms: N3_19  and  C14_21 
REMARK    7  A    between atoms: C14_21  and  O3_24 
REMARK    8  A    between atoms: C17_26  and  N4_27 
REMARK       I    between atoms: N4_27  and  C18_29 
REMARK    9  A    between atoms: C18_29  and  C19_31 
REMARK   10  A    between atoms: C19_31  and  C20_32 
REMARK   11  A    between atoms: C20_32  and  C21_33 
REMARK   12  A    between atoms: C21_33  and  C22_34 
REMARK   13  A    between atoms: C22_34  and  C23_35 
REMARK   14  A    between atoms: C23_35  and  O5_36 
REMARK   15  A    between atoms: N6_40  and  C25_41 
ROOT
HETATM    1  C6  UNL     1      -8.041  16.017  25.795  1.00  0.00     0.214 A 
HETATM    2  C7  UNL     1      -8.037  15.940  27.233  1.00  0.00     0.029 A 
HETATM    3  C12 UNL     1      -8.866  15.034  27.791  1.00  0.00     0.089 A 
HETATM    4  C17 UNL     1      -9.708  14.199  26.999  1.00  0.00     0.139 A 
HETATM    5  N5  UNL     1      -9.668  14.320  25.688  1.00  0.00    -0.276 N 
ATOM      6  H5  UNL     1     -10.274  13.722  25.126  1.00  0.00     0.189 HD
HETATM    7  N6  UNL     1      -8.867  15.195  25.056  1.00  0.00    -0.234 N 
ENDROOT
BRANCH   4   8
HETATM    8  N4  UNL     1     -10.483  13.360  27.597  1.00  0.00    -0.311 N 
HETATM    9  C18 UNL     1     -11.833  13.484  27.878  1.00  0.00     0.223 C 
HETATM   10  O4  UNL     1     -12.318  14.492  28.426  1.00  0.00    -0.273 OA
ATOM     11  H4  UNL     1     -10.044  12.493  27.903  1.00  0.00     0.170 HD
BRANCH   9  12
HETATM   12  C19 UNL     1     -12.843  12.378  27.537  1.00  0.00     0.103 C 
BRANCH  12  13
HETATM   13  C20 UNL     1     -12.231  11.070  27.819  1.00  0.00     0.009 C 
BRANCH  13  14
HETATM   14  C21 UNL     1     -12.140  10.564  29.177  1.00  0.00     0.002 C 
BRANCH  14  15
HETATM   15  C22 UNL     1     -13.284  10.607  30.095  1.00  0.00     0.026 C 
BRANCH  15  16
HETATM   16  C23 UNL     1     -13.020  11.126  31.463  1.00  0.00     0.167 C 
BRANCH  16  17
HETATM   17  O5  UNL     1     -12.742  12.521  31.286  1.00  0.00    -0.396 OA
HETATM   18  C24 UNL     1     -13.985  13.156  31.162  1.00  0.00     0.201 C 
ENDBRANCH  16  17
ENDBRANCH  15  16
ENDBRANCH  14  15
ENDBRANCH  13  14
ENDBRANCH  12  13
ENDBRANCH   9  12
ENDBRANCH   4   8
BRANCH   3  19
HETATM   19  C13 UNL     1      -8.924  14.703  29.196  1.00  0.00     0.258 C 
HETATM   20  O2  UNL     1      -8.140  13.882  29.661  1.00  0.00    -0.267 OA
HETATM   21  N3  UNL     1      -9.866  15.300  30.068  1.00  0.00    -0.326 N 
ATOM     22  H3  UNL     1     -10.509  15.976  29.655  1.00  0.00     0.165 HD
BRANCH  21  23
HETATM   23  C14 UNL     1     -10.006  15.054  31.455  1.00  0.00     0.126 C 
HETATM   24  C15 UNL     1      -8.810  15.628  32.221  1.00  0.00     0.070 C 
HETATM   25  C16 UNL     1     -11.243  15.513  32.122  1.00  0.00     0.070 C 
BRANCH  23  26
HETATM   26  O3  UNL     1      -9.903  13.656  31.682  1.00  0.00    -0.372 OA
ATOM     27  H3  UNL     1     -10.421  13.201  31.028  1.00  0.00     0.212 HD
ENDBRANCH  23  26
ENDBRANCH  21  23
ENDBRANCH   3  19
BRANCH   2  28
HETATM   28  C8  UNL     1      -7.208  16.878  27.942  1.00  0.00    -0.018 C 
HETATM   29  C9  UNL     1      -5.731  16.495  27.756  1.00  0.00     0.019 C 
HETATM   30  C10 UNL     1      -7.357  17.181  29.372  1.00  0.00     0.019 C 
HETATM   31  C11 UNL     1      -7.416  18.284  27.288  1.00  0.00     0.019 C 
ENDBRANCH   2  28
BRANCH   7  32
HETATM   32  C25 UNL     1      -8.909  15.218  23.638  1.00  0.00     0.015 C 
HETATM   33  C26 UNL     1      -8.294  14.067  22.892  1.00  0.00     0.055 C 
HETATM   34  C27 UNL     1      -7.730  14.674  21.583  1.00  0.00     0.014 C 
HETATM   35  C28 UNL     1      -8.719  15.494  20.839  1.00  0.00    -0.047 C 
HETATM   36  C29 UNL     1      -9.601  14.665  19.920  1.00  0.00     0.015 C 
HETATM   37  C30 UNL     1      -7.910  16.401  19.897  1.00  0.00     0.015 C 
HETATM   38  C31 UNL     1      -9.572  16.415  21.657  1.00  0.00     0.014 C 
HETATM   39  C32 UNL     1     -10.122  15.635  22.903  1.00  0.00     0.055 C 
ENDBRANCH   7  32
BRANCH   1  40
HETATM   40  N2  UNL     1      -7.337  16.740  25.146  1.00  0.00    -0.331 NA
HETATM   41  C5  UNL     1      -6.557  17.525  24.399  1.00  0.00     0.396 C 
HETATM   42  N1  UNL     1      -5.098  17.396  24.461  1.00  0.00    -0.327 N 
HETATM   43  O1  UNL     1      -6.962  18.441  23.585  1.00  0.00    -0.230 OA
ATOM     44  H1  UNL     1      -4.702  16.692  25.084  1.00  0.00     0.165 HD
BRANCH  42  45
HETATM   45  C3  UNL     1      -4.205  18.200  23.701  1.00  0.00     0.082 C 
HETATM   46  C4  UNL     1      -3.856  17.577  22.359  1.00  0.00     0.032 C 
BRANCH  45  47
HETATM   47  C2  UNL     1      -2.895  18.460  24.433  1.00  0.00     0.020 C 
HETATM   48  C1  UNL     1      -2.562  17.335  25.387  1.00  0.00     0.007 C 
ENDBRANCH  45  47
ENDBRANCH  42  45
ENDBRANCH   1  40
TORSDOF 15
ENDMDL
MODEL 3
REMARK VINA RESULT: -8.583798313      2.563      8.898
REMARK  15 active torsions:
REMARK  status: ('A' for Active; 'I' for Inactive)
REMARK    1  A    between atoms: C2_2  and  C3_3 
REMARK    2  A    between atoms: C3_3  and  N1_5 
REMARK       I    between atoms: N1_5  and  C5_7 
REMARK       I    between atoms: C5_7  and  N2_9 
REMARK    3  A    between atoms: N2_9  and  C6_10 
REMARK    4  A    between atoms: C7_11  and  C8_12 
REMARK    5  A    between atoms: C12_16  and  C13_17 
REMARK       I    between atoms: C13_17  and  N3_19 
REMARK    6  A    between atoms: N3_19  and  C14_21 
REMARK    7  A    between atoms: C14_21  and  O3_24 
REMARK    8  A    between atoms: C17_26  and  N4_27 
REMARK       I    between atoms: N4_27  and  C18_29 
REMARK    9  A    between atoms: C18_29  and  C19_31 
REMARK   10  A    between atoms: C19_31  and  C20_32 
REMARK   11  A    between atoms: C20_32  and  C21_33 
REMARK   12  A    between atoms: C21_33  and  C22_34 
REMARK   13  A    between atoms: C22_34  and  C23_35 
REMARK   14  A    between atoms: C23_35  and  O5_36 
REMARK   15  A    between atoms: N6_40  and  C25_41 
ROOT
HETATM    1  C6  UNL     1      -8.087  16.255  27.114  1.00  0.00     0.214 A 
HETATM    2  C7  UNL     1      -7.068  16.895  26.323  1.00  0.00     0.029 A 
HETATM    3  C12 UNL     1      -7.121  16.694  24.991  1.00  0.00     0.089 A 
HETATM    4  C17 UNL     1      -8.132  15.883  24.395  1.00  0.00     0.139 A 
HETATM    5  N5  UNL     1      -9.034  15.321  25.172  1.00  0.00    -0.276 N 
ATOM      6  H5  UNL     1      -9.753  14.740  24.741  1.00  0.00     0.189 HD
HETATM    7  N6  UNL     1      -9.051  15.476  26.507  1.00  0.00    -0.234 N 
ENDROOT
BRANCH   4   8
HETATM    8  N4  UNL     1      -8.120  15.725  23.115  1.00  0.00    -0.311 N 
HETATM    9  C18 UNL     1      -9.127  15.238  22.298  1.00  0.00     0.223 C 
HETATM   10  O4  UNL     1      -9.733  14.177  22.535  1.00  0.00    -0.273 OA
ATOM     11  H4  UNL     1      -7.257  15.993  22.644  1.00  0.00     0.170 HD
BRANCH   9  12
HETATM   12  C19 UNL     1      -9.573  15.975  21.026  1.00  0.00     0.103 C 
BRANCH  12  13
HETATM   13  C20 UNL     1      -8.626  15.672  19.942  1.00  0.00     0.009 C 
BRANCH  13  14
HETATM   14  C21 UNL     1      -7.379  16.404  19.811  1.00  0.00     0.002 C 
BRANCH  14  15
HETATM   15  C22 UNL     1      -6.077  15.731  19.888  1.00  0.00     0.026 C 
BRANCH  15  16
HETATM   16  C23 UNL     1      -5.106  16.036  18.804  1.00  0.00     0.167 C 
BRANCH  16  17
HETATM   17  O5  UNL     1      -4.963  17.462  18.820  1.00  0.00    -0.396 OA
HETATM   18  C24 UNL     1      -3.669  17.733  18.356  1.00  0.00     0.201 C 
ENDBRANCH  16  17
ENDBRANCH  15  16
ENDBRANCH  14  15
ENDBRANCH  13  14
ENDBRANCH  12  13
ENDBRANCH   9  12
ENDBRANCH   4   8
BRANCH   3  19
HETATM   19  C13 UNL     1      -6.284  17.343  24.008  1.00  0.00     0.258 C 
HETATM   20  O2  UNL     1      -6.668  18.375  23.468  1.00  0.00    -0.267 OA
HETATM   21  N3  UNL     1      -5.018  16.824  23.644  1.00  0.00    -0.326 N 
ATOM     22  H3  UNL     1      -4.725  15.963  24.106  1.00  0.00     0.165 HD
BRANCH  21  23
HETATM   23  C14 UNL     1      -4.119  17.379  22.702  1.00  0.00     0.126 C 
HETATM   24  C15 UNL     1      -3.287  18.490  23.352  1.00  0.00     0.070 C 
HETATM   25  C16 UNL     1      -3.195  16.464  21.998  1.00  0.00     0.070 C 
BRANCH  23  26
HETATM   26  O3  UNL     1      -4.865  18.065  21.708  1.00  0.00    -0.372 OA
ATOM     27  H3  UNL     1      -4.546  17.804  20.852  1.00  0.00     0.212 HD
ENDBRANCH  23  26
ENDBRANCH  21  23
ENDBRANCH   3  19
BRANCH   2  28
HETATM   28  C8  UNL     1      -6.050  17.629  27.027  1.00  0.00    -0.018 C 
HETATM   29  C9  UNL     1      -6.665  18.902  27.631  1.00  0.00     0.019 C 
HETATM   30  C10 UNL     1      -4.783  18.057  26.419  1.00  0.00     0.019 C 
HETATM   31  C11 UNL     1      -5.557  16.737  28.215  1.00  0.00     0.019 C 
ENDBRANCH   2  28
BRANCH   7  32
HETATM   32  C25 UNL     1     -10.085  14.827  27.230  1.00  0.00     0.015 C 
HETATM   33  C26 UNL     1     -11.295  15.632  27.614  1.00  0.00     0.055 C 
HETATM   34  C27 UNL     1     -11.768  15.052  28.970  1.00  0.00     0.014 C 
HETATM   35  C28 UNL     1     -11.930  13.577  28.956  1.00  0.00    -0.047 C 
HETATM   36  C29 UNL     1     -13.291  13.137  28.443  1.00  0.00     0.015 C 
HETATM   37  C30 UNL     1     -11.896  13.122  30.425  1.00  0.00     0.015 C 
HETATM   38  C31 UNL     1     -10.856  12.793  28.264  1.00  0.00     0.014 C 
HETATM   39  C32 UNL     1     -10.541  13.465  26.881  1.00  0.00     0.055 C 
ENDBRANCH   7  32
BRANCH   1  40
HETATM   40  N2  UNL     1      -8.201  16.365  28.302  1.00  0.00    -0.331 NA
HETATM   41  C5  UNL     1      -8.297  16.486  29.629  1.00  0.00     0.396 C 
HETATM   42  N1  UNL     1      -8.541  15.308  30.466  1.00  0.00    -0.327 N 
HETATM   43  O1  UNL     1      -8.197  17.586  30.298  1.00  0.00    -0.230 OA
ATOM     44  H1  UNL     1      -8.631  14.401  30.008  1.00  0.00     0.165 HD
BRANCH  42  45
HETATM   45  C3  UNL     1      -8.660  15.361  31.882  1.00  0.00     0.082 C 
HETATM   46  C4  UNL     1      -8.078  14.134  32.564  1.00  0.00     0.032 C 
BRANCH  45  47
HETATM   47  C2  UNL     1     -10.108  15.486  32.336  1.00  0.00     0.020 C 
HETATM   48  C1  UNL     1     -10.217  15.477  33.846  1.00  0.00     0.007 C 
ENDBRANCH  45  47
ENDBRANCH  42  45
ENDBRANCH   1  40
TORSDOF 15
ENDMDL
MODEL 4
REMARK VINA RESULT: -8.453617682      1.918      2.297
REMARK  15 active torsions:
REMARK  status: ('A' for Active; 'I' for Inactive)
REMARK    1  A    between atoms: C2_2  and  C3_3 
REMARK    2  A    between atoms: C3_3  and  N1_5 
REMARK       I    between atoms: N1_5  and  C5_7 
REMARK       I    between atoms: C5_7  and  N2_9 
REMARK    3  A    between atoms: N2_9  and  C6_10 
REMARK    4  A    between atoms: C7_11  and  C8_12 
REMARK    5  A    between atoms: C12_16  and  C13_17 
REMARK       I    between atoms: C13_17  and  N3_19 
REMARK    6  A    between atoms: N3_19  and  C14_21 
REMARK    7  A    between atoms: C14_21  and  O3_24 
REMARK    8  A    between atoms: C17_26  and  N4_27 
REMARK       I    between atoms: N4_27  and  C18_29 
REMARK    9  A    between atoms: C18_29  and  C19_31 
REMARK   10  A    between atoms: C19_31  and  C20_32 
REMARK   11  A    between atoms: C20_32  and  C21_33 
REMARK   12  A    between atoms: C21_33  and  C22_34 
REMARK   13  A    between atoms: C22_34  and  C23_35 
REMARK   14  A    between atoms: C23_35  and  O5_36 
REMARK   15  A    between atoms: N6_40  and  C25_41 
ROOT
HETATM    1  C6  UNL     1      -8.095  16.580  25.665  1.00  0.00     0.214 A 
HETATM    2  C7  UNL     1      -8.215  16.733  27.092  1.00  0.00     0.029 A 
HETATM    3  C12 UNL     1      -9.283  16.153  27.675  1.00  0.00     0.089 A 
HETATM    4  C17 UNL     1     -10.250  15.430  26.917  1.00  0.00     0.139 A 
HETATM    5  N5  UNL     1     -10.087  15.328  25.614  1.00  0.00    -0.276 N 
ATOM      6  H5  UNL     1     -10.783  14.810  25.076  1.00  0.00     0.189 HD
HETATM    7  N6  UNL     1      -9.048  15.873  24.960  1.00  0.00    -0.234 N 
ENDROOT
BRANCH   4   8
HETATM    8  N4  UNL     1     -11.253  14.906  27.536  1.00  0.00    -0.311 N 
HETATM    9  C18 UNL     1     -11.443  13.586  27.906  1.00  0.00     0.223 C 
HETATM   10  O4  UNL     1     -11.294  12.636  27.115  1.00  0.00    -0.273 OA
ATOM     11  H4  UNL     1     -12.004  15.549  27.785  1.00  0.00     0.170 HD
BRANCH   9  12
HETATM   12  C19 UNL     1     -11.859  13.189  29.330  1.00  0.00     0.103 C 
BRANCH  12  13
HETATM   13  C20 UNL     1     -13.254  13.598  29.552  1.00  0.00     0.009 C 
BRANCH  13  14
HETATM   14  C21 UNL     1     -13.960  13.222  30.764  1.00  0.00     0.002 C 
BRANCH  14  15
HETATM   15  C22 UNL     1     -13.380  13.442  32.095  1.00  0.00     0.026 C 
BRANCH  15  16
HETATM   16  C23 UNL     1     -13.569  14.792  32.688  1.00  0.00     0.167 C 
BRANCH  16  17
HETATM   17  O5  UNL     1     -12.485  14.948  33.614  1.00  0.00    -0.396 OA
HETATM   18  C24 UNL     1     -12.244  13.677  34.153  1.00  0.00     0.201 C 
ENDBRANCH  16  17
ENDBRANCH  15  16
ENDBRANCH  14  15
ENDBRANCH  13  14
ENDBRANCH  12  13
ENDBRANCH   9  12
ENDBRANCH   4   8
BRANCH   3  19
HETATM   19  C13 UNL     1      -9.524  16.072  29.097  1.00  0.00     0.258 C 
HETATM   20  O2  UNL     1     -10.469  16.681  29.590  1.00  0.00    -0.267 OA
HETATM   21  N3  UNL     1      -8.698  15.306  29.954  1.00  0.00    -0.326 N 
ATOM     22  H3  UNL     1      -7.918  14.813  29.519  1.00  0.00     0.165 HD
BRANCH  21  23
HETATM   23  C14 UNL     1      -8.846  15.153  31.354  1.00  0.00     0.126 C 
HETATM   24  C15 UNL     1      -8.179  13.855  31.822  1.00  0.00     0.070 C 
HETATM   25  C16 UNL     1      -8.380  16.251  32.227  1.00  0.00     0.070 C 
BRANCH  23  26
HETATM   26  O3  UNL     1     -10.220  14.942  31.646  1.00  0.00    -0.372 OA
ATOM     27  H3  UNL     1     -10.438  15.411  32.443  1.00  0.00     0.212 HD
ENDBRANCH  23  26
ENDBRANCH  21  23
ENDBRANCH   3  19
BRANCH   2  28
HETATM   28  C8  UNL     1      -7.228  17.546  27.753  1.00  0.00    -0.018 C 
HETATM   29  C9  UNL     1      -5.841  16.907  27.578  1.00  0.00     0.019 C 
HETATM   30  C10 UNL     1      -7.305  17.934  29.168  1.00  0.00     0.019 C 
HETATM   31  C11 UNL     1      -7.199  18.936  27.035  1.00  0.00     0.019 C 
ENDBRANCH   2  28
BRANCH   7  32
HETATM   32  C25 UNL     1      -8.981  15.680  23.556  1.00  0.00     0.015 C 
HETATM   33  C26 UNL     1      -8.502  14.350  23.044  1.00  0.00     0.055 C 
HETATM   34  C27 UNL     1      -7.755  14.657  21.723  1.00  0.00     0.014 C 
HETATM   35  C28 UNL     1      -8.544  15.485  20.777  1.00  0.00    -0.047 C 
HETATM   36  C29 UNL     1      -9.476  14.660  19.905  1.00  0.00     0.015 C 
HETATM   37  C30 UNL     1      -7.535  16.107  19.798  1.00  0.00     0.015 C 
HETATM   38  C31 UNL     1      -9.299  16.637  21.369  1.00  0.00     0.014 C 
HETATM   39  C32 UNL     1     -10.055  16.150  22.655  1.00  0.00     0.055 C 
ENDBRANCH   7  32
BRANCH   1  40
HETATM   40  N2  UNL     1      -7.187  17.001  25.005  1.00  0.00    -0.331 NA
HETATM   41  C5  UNL     1      -6.190  17.457  24.243  1.00  0.00     0.396 C 
HETATM   42  N1  UNL     1      -4.947  16.691  24.112  1.00  0.00    -0.327 N 
HETATM   43  O1  UNL     1      -6.191  18.562  23.574  1.00  0.00    -0.230 OA
ATOM     44  H1  UNL     1      -4.871  15.805  24.612  1.00  0.00     0.165 HD
BRANCH  42  45
HETATM   45  C3  UNL     1      -3.841  17.116  23.325  1.00  0.00     0.082 C 
HETATM   46  C4  UNL     1      -3.976  16.718  21.865  1.00  0.00     0.032 C 
BRANCH  45  47
HETATM   47  C2  UNL     1      -2.521  16.547  23.828  1.00  0.00     0.020 C 
HETATM   48  C1  UNL     1      -2.532  16.368  25.330  1.00  0.00     0.007 C 
ENDBRANCH  45  47
ENDBRANCH  42  45
ENDBRANCH   1  40
TORSDOF 15
ENDMDL
MODEL 5
REMARK VINA RESULT: -8.182828472      1.281      1.462
REMARK  15 active torsions:
REMARK  status: ('A' for Active; 'I' for Inactive)
REMARK    1  A    between atoms: C2_2  and  C3_3 
REMARK    2  A    between atoms: C3_3  and  N1_5 
REMARK       I    between atoms: N1_5  and  C5_7 
REMARK       I    between atoms: C5_7  and  N2_9 
REMARK    3  A    between atoms: N2_9  and  C6_10 
REMARK    4  A    between atoms: C7_11  and  C8_12 
REMARK    5  A    between atoms: C12_16  and  C13_17 
REMARK       I    between atoms: C13_17  and  N3_19 
REMARK    6  A    between atoms: N3_19  and  C14_21 
REMARK    7  A    between atoms: C14_21  and  O3_24 
REMARK    8  A    between atoms: C17_26  and  N4_27 
REMARK       I    between atoms: N4_27  and  C18_29 
REMARK    9  A    between atoms: C18_29  and  C19_31 
REMARK   10  A    between atoms: C19_31  and  C20_32 
REMARK   11  A    between atoms: C20_32  and  C21_33 
REMARK   12  A    between atoms: C21_33  and  C22_34 
REMARK   13  A    between atoms: C22_34  and  C23_35 
REMARK   14  A    between atoms: C23_35  and  O5_36 
REMARK   15  A    between atoms: N6_40  and  C25_41 
ROOT
HETATM    1  C6  UNL     1      -8.096  16.369  25.747  1.00  0.00     0.214 A 
HETATM    2  C7  UNL     1      -8.221  16.488  27.177  1.00  0.00     0.029 A 
HETATM    3  C12 UNL     1      -9.323  15.947  27.734  1.00  0.00     0.089 A 
HETATM    4  C17 UNL     1     -10.319  15.296  26.947  1.00  0.00     0.139 A 
HETATM    5  N5  UNL     1     -10.149  15.223  25.644  1.00  0.00    -0.276 N 
ATOM      6  H5  UNL     1     -10.864  14.757  25.085  1.00  0.00     0.189 HD
HETATM    7  N6  UNL     1      -9.076  15.733  25.014  1.00  0.00    -0.234 N 
ENDROOT
BRANCH   4   8
HETATM    8  N4  UNL     1     -11.353  14.807  27.542  1.00  0.00    -0.311 N 
HETATM    9  C18 UNL     1     -11.616  13.487  27.869  1.00  0.00     0.223 C 
HETATM   10  O4  UNL     1     -11.511  12.557  27.049  1.00  0.00    -0.273 OA
ATOM     11  H4  UNL     1     -12.071  15.481  27.808  1.00  0.00     0.170 HD
BRANCH   9  12
HETATM   12  C19 UNL     1     -12.063  13.069  29.277  1.00  0.00     0.103 C 
BRANCH  12  13
HETATM   13  C20 UNL     1     -13.459  13.487  29.479  1.00  0.00     0.009 C 
BRANCH  13  14
HETATM   14  C21 UNL     1     -14.118  13.301  30.759  1.00  0.00     0.002 C 
BRANCH  14  15
HETATM   15  C22 UNL     1     -13.612  12.350  31.757  1.00  0.00     0.026 C 
BRANCH  15  16
HETATM   16  C23 UNL     1     -14.066  10.940  31.622  1.00  0.00     0.167 C 
BRANCH  16  17
HETATM   17  O5  UNL     1     -12.897  10.147  31.866  1.00  0.00    -0.396 OA
HETATM   18  C24 UNL     1     -12.495   9.647  30.620  1.00  0.00     0.201 C 
ENDBRANCH  16  17
ENDBRANCH  15  16
ENDBRANCH  14  15
ENDBRANCH  13  14
ENDBRANCH  12  13
ENDBRANCH   9  12
ENDBRANCH   4   8
BRANCH   3  19
HETATM   19  C13 UNL     1      -9.581  15.838  29.152  1.00  0.00     0.258 C 
HETATM   20  O2  UNL     1     -10.433  16.552  29.671  1.00  0.00    -0.267 OA
HETATM   21  N3  UNL     1      -8.877  14.924  29.973  1.00  0.00    -0.326 N 
ATOM     22  H3  UNL     1      -8.172  14.346  29.516  1.00  0.00     0.165 HD
BRANCH  21  23
HETATM   23  C14 UNL     1      -9.054  14.732  31.364  1.00  0.00     0.126 C 
HETATM   24  C15 UNL     1      -8.405  15.879  32.147  1.00  0.00     0.070 C 
HETATM   25  C16 UNL     1     -10.431  14.550  31.872  1.00  0.00     0.070 C 
BRANCH  23  26
HETATM   26  O3  UNL     1      -8.307  13.594  31.766  1.00  0.00    -0.372 OA
ATOM     27  H3  UNL     1      -7.990  13.148  30.990  1.00  0.00     0.212 HD
ENDBRANCH  23  26
ENDBRANCH  21  23
ENDBRANCH   3  19
BRANCH   2  28
HETATM   28  C8  UNL     1      -7.200  17.229  27.869  1.00  0.00    -0.018 C 
HETATM   29  C9  UNL     1      -5.871  16.461  27.793  1.00  0.00     0.019 C 
HETATM   30  C10 UNL     1      -7.317  17.670  29.266  1.00  0.00     0.019 C 
HETATM   31  C11 UNL     1      -7.004  18.586  27.114  1.00  0.00     0.019 C 
ENDBRANCH   2  28
BRANCH   7  32
HETATM   32  C25 UNL     1      -9.006  15.577  23.606  1.00  0.00     0.015 C 
HETATM   33  C26 UNL     1      -8.517  14.264  23.061  1.00  0.00     0.055 C 
HETATM   34  C27 UNL     1      -7.770  14.610  21.749  1.00  0.00     0.014 C 
HETATM   35  C28 UNL     1      -8.563  15.457  20.824  1.00  0.00    -0.047 C 
HETATM   36  C29 UNL     1      -9.488  14.648  19.929  1.00  0.00     0.015 C 
HETATM   37  C30 UNL     1      -7.557  16.111  19.863  1.00  0.00     0.015 C 
HETATM   38  C31 UNL     1      -9.327  16.588  21.443  1.00  0.00     0.014 C 
HETATM   39  C32 UNL     1     -10.082  16.062  22.715  1.00  0.00     0.055 C 
ENDBRANCH   7  32
BRANCH   1  40
HETATM   40  N2  UNL     1      -7.161  16.761  25.107  1.00  0.00    -0.331 NA
HETATM   41  C5  UNL     1      -6.125  17.175  24.373  1.00  0.00     0.396 C 
HETATM   42  N1  UNL     1      -4.759  16.773  24.725  1.00  0.00    -0.327 N 
HETATM   43  O1  UNL     1      -6.189  17.935  23.331  1.00  0.00    -0.230 OA
ATOM     44  H1  UNL     1      -4.628  16.171  25.538  1.00  0.00     0.165 HD
BRANCH  42  45
HETATM   45  C3  UNL     1      -3.608  17.178  23.995  1.00  0.00     0.082 C 
HETATM   46  C4  UNL     1      -2.513  16.124  23.999  1.00  0.00     0.032 C 
BRANCH  45  47
HETATM   47  C2  UNL     1      -3.000  18.463  24.540  1.00  0.00     0.020 C 
HETATM   48  C1  UNL     1      -1.530  18.290  24.853  1.00  0.00     0.007 C 
ENDBRANCH  45  47
ENDBRANCH  42  45
ENDBRANCH   1  40
TORSDOF 15
ENDMDL
