MODEL 1
REMARK VINA RESULT: -9.198413725      0.000      0.000
REMARK  12 active torsions:
REMARK  status: ('A' for Active; 'I' for Inactive)
REMARK    1  A    between atoms: O1_2  and  C2_3 
REMARK    2  A    between atoms: C11_12  and  C12_13 
REMARK    3  A    between atoms: C12_13  and  C14_15 
REMARK    4  A    between atoms: C14_15  and  C15_16 
REMARK    5  A    between atoms: C15_16  and  C16_17 
REMARK       I    between atoms: C16_17  and  N1_19 
REMARK    6  A    between atoms: N1_19  and  C17_21 
REMARK    7  A    between atoms: C17_21  and  C18_22 
REMARK    8  A    between atoms: C18_22  and  C19_23 
REMARK    9  A    between atoms: C19_23  and  N2_24 
REMARK   10  A    between atoms: C31_37  and  C33_39 
REMARK   11  A    between atoms: C34_42  and  C35_43 
REMARK   12  A    between atoms: C35_43  and  O6_44 
ROOT
HETATM    1  C2  UNL     1      -9.368  15.932  25.048  1.00  0.00     0.129 C 
HETATM    2  C3  UNL     1     -10.141  14.988  25.917  1.00  0.00     0.042 C 
HETATM    3  C4  UNL     1      -9.582  14.800  27.304  1.00  0.00    -0.033 C 
HETATM    4  C5  UNL     1      -8.615  13.667  27.292  1.00  0.00     0.016 C 
HETATM    5  C6  UNL     1     -10.810  14.434  28.166  1.00  0.00    -0.001 C 
HETATM    6  C7  UNL     1     -11.606  13.316  27.599  1.00  0.00     0.006 C 
HETATM    7  C8  UNL     1     -12.766  13.094  28.515  1.00  0.00     0.010 C 
HETATM    8  C9  UNL     1     -12.328  12.675  29.929  1.00  0.00    -0.036 C 
HETATM    9  C10 UNL     1     -11.639  11.362  29.730  1.00  0.00     0.016 C 
HETATM   10  C11 UNL     1     -13.543  12.714  30.742  1.00  0.00    -0.002 C 
HETATM   11  C24 UNL     1     -13.525  14.163  31.283  1.00  0.00     0.006 C 
HETATM   12  C25 UNL     1     -12.095  14.547  31.385  1.00  0.00     0.006 C 
HETATM   13  C26 UNL     1     -11.319  13.633  30.500  1.00  0.00    -0.002 C 
HETATM   14  C27 UNL     1     -10.370  14.268  29.565  1.00  0.00    -0.005 C 
HETATM   15  C28 UNL     1      -9.967  15.669  30.057  1.00  0.00     0.006 C 
HETATM   16  C29 UNL     1      -8.667  15.998  29.299  1.00  0.00     0.007 C 
HETATM   17  C30 UNL     1      -9.074  16.094  27.846  1.00  0.00     0.013 C 
HETATM   18  C31 UNL     1      -8.062  16.813  26.987  1.00  0.00     0.057 C 
HETATM   19  C32 UNL     1      -6.647  16.725  27.561  1.00  0.00     0.028 C 
HETATM   20  C34 UNL     1      -8.006  16.261  25.598  1.00  0.00     0.057 C 
ENDROOT
BRANCH  10  21
HETATM   21  C12 UNL     1     -13.861  11.819  31.826  1.00  0.00    -0.013 C 
HETATM   22  C13 UNL     1     -15.169  11.122  31.904  1.00  0.00     0.010 C 
BRANCH  21  23
HETATM   23  C14 UNL     1     -13.495  12.320  33.204  1.00  0.00     0.014 C 
BRANCH  23  24
HETATM   24  C15 UNL     1     -13.049  11.180  34.095  1.00  0.00     0.103 C 
BRANCH  24  25
HETATM   25  C16 UNL     1     -12.266  11.684  35.281  1.00  0.00     0.217 C 
HETATM   26  O2  UNL     1     -11.430  10.914  35.779  1.00  0.00    -0.274 OA
HETATM   27  N1  UNL     1     -12.548  12.992  35.724  1.00  0.00    -0.361 N 
ATOM     28  H1  UNL     1     -13.254  13.543  35.236  1.00  0.00     0.162 HD
BRANCH  27  29
HETATM   29  C17 UNL     1     -11.859  13.567  36.853  1.00  0.00     0.124 C 
BRANCH  29  30
HETATM   30  C18 UNL     1     -10.714  14.412  36.381  1.00  0.00     0.050 C 
BRANCH  30  31
HETATM   31  C19 UNL     1     -11.190  15.121  35.097  1.00  0.00     0.274 C 
BRANCH  31  32
HETATM   32  N2  UNL     1     -10.128  15.286  34.174  1.00  0.00     0.092 N 
HETATM   33  C20 UNL     1      -9.276  16.406  34.418  1.00  0.00     0.298 C 
HETATM   34  C21 UNL     1      -8.239  16.449  33.293  1.00  0.00     0.198 C 
HETATM   35  O3  UNL     1      -7.518  15.265  33.216  1.00  0.00    -0.388 OA
HETATM   36  C22 UNL     1      -8.347  14.217  32.901  1.00  0.00     0.198 C 
HETATM   37  C23 UNL     1      -9.394  14.064  34.012  1.00  0.00     0.298 C 
ENDBRANCH  31  32
ENDBRANCH  30  31
ENDBRANCH  29  30
ENDBRANCH  27  29
ENDBRANCH  24  25
ENDBRANCH  23  24
ENDBRANCH  21  23
ENDBRANCH  10  21
BRANCH   1  38
HETATM   38  O1  UNL     1      -9.197  15.315  23.817  1.00  0.00    -0.390 OA
HETATM   39  C1  UNL     1     -10.382  15.076  23.144  1.00  0.00     0.202 C 
ENDBRANCH   1  38
BRANCH  18  40
HETATM   40  C33 UNL     1      -8.390  18.253  26.941  1.00  0.00     0.182 C 
HETATM   41  O4  UNL     1      -7.467  19.079  27.266  1.00  0.00    -0.647 OA
HETATM   42  O5  UNL     1      -9.578  18.826  26.589  1.00  0.00    -0.647 OA
ENDBRANCH  18  40
BRANCH  20  43
HETATM   43  C35 UNL     1      -7.313  17.137  24.600  1.00  0.00     0.172 C 
BRANCH  43  44
HETATM   44  O6  UNL     1      -6.404  16.477  23.783  1.00  0.00    -0.400 OA
ATOM     45  H6  UNL     1      -6.000  17.022  23.118  1.00  0.00     0.209 HD
ENDBRANCH  43  44
ENDBRANCH  20  43
TORSDOF 12
ENDMDL
MODEL 2
REMARK VINA RESULT: -8.906608566      4.076     10.592
REMARK  12 active torsions:
REMARK  status: ('A' for Active; 'I' for Inactive)
REMARK    1  A    between atoms: O1_2  and  C2_3 
REMARK    2  A    between atoms: C11_12  and  C12_13 
REMARK    3  A    between atoms: C12_13  and  C14_15 
REMARK    4  A    between atoms: C14_15  and  C15_16 
REMARK    5  A    between atoms: C15_16  and  C16_17 
REMARK       I    between atoms: C16_17  and  N1_19 
REMARK    6  A    between atoms: N1_19  and  C17_21 
REMARK    7  A    between atoms: C17_21  and  C18_22 
REMARK    8  A    between atoms: C18_22  and  C19_23 
REMARK    9  A    between atoms: C19_23  and  N2_24 
REMARK   10  A    between atoms: C31_37  and  C33_39 
REMARK   11  A    between atoms: C34_42  and  C35_43 
REMARK   12  A    between atoms: C35_43  and  O6_44 
ROOT
HETATM    1  C2  UNL     1     -10.961  15.454  31.001  1.00  0.00     0.129 C 
HETATM    2  C3  UNL     1      -9.734  15.961  30.308  1.00  0.00     0.042 C 
HETATM    3  C4  UNL     1      -9.288  15.140  29.126  1.00  0.00    -0.033 C 
HETATM    4  C5  UNL     1      -8.339  14.090  29.589  1.00  0.00     0.016 C 
HETATM    5  C6  UNL     1      -8.553  16.149  28.215  1.00  0.00    -0.001 C 
HETATM    6  C7  UNL     1      -7.511  16.926  28.932  1.00  0.00     0.006 C 
HETATM    7  C8  UNL     1      -6.910  17.871  27.942  1.00  0.00     0.010 C 
HETATM    8  C9  UNL     1      -6.219  17.143  26.776  1.00  0.00    -0.036 C 
HETATM    9  C10 UNL     1      -5.105  16.381  27.423  1.00  0.00     0.016 C 
HETATM   10  C11 UNL     1      -5.887  18.185  25.805  1.00  0.00    -0.002 C 
HETATM   11  C24 UNL     1      -7.144  18.204  24.906  1.00  0.00     0.006 C 
HETATM   12  C25 UNL     1      -7.686  16.822  24.926  1.00  0.00     0.006 C 
HETATM   13  C26 UNL     1      -7.137  16.140  26.132  1.00  0.00    -0.002 C 
HETATM   14  C27 UNL     1      -8.109  15.444  26.997  1.00  0.00    -0.005 C 
HETATM   15  C28 UNL     1      -9.386  15.091  26.216  1.00  0.00     0.006 C 
HETATM   16  C29 UNL     1     -10.070  13.990  27.048  1.00  0.00     0.007 C 
HETATM   17  C30 UNL     1     -10.465  14.666  28.341  1.00  0.00     0.013 C 
HETATM   18  C31 UNL     1     -11.508  13.901  29.122  1.00  0.00     0.057 C 
HETATM   19  C32 UNL     1     -11.477  12.403  28.816  1.00  0.00     0.028 C 
HETATM   20  C34 UNL     1     -11.330  14.051  30.599  1.00  0.00     0.057 C 
ENDROOT
BRANCH  10  21
HETATM   21  C12 UNL     1      -4.716  18.212  24.966  1.00  0.00    -0.013 C 
HETATM   22  C13 UNL     1      -3.598  19.155  25.216  1.00  0.00     0.010 C 
BRANCH  21  23
HETATM   23  C14 UNL     1      -4.987  18.164  23.480  1.00  0.00     0.014 C 
BRANCH  23  24
HETATM   24  C15 UNL     1      -3.711  17.924  22.702  1.00  0.00     0.103 C 
BRANCH  24  25
HETATM   25  C16 UNL     1      -3.966  17.089  21.472  1.00  0.00     0.217 C 
HETATM   26  O2  UNL     1      -3.315  16.040  21.352  1.00  0.00    -0.274 OA
HETATM   27  N1  UNL     1      -4.927  17.571  20.561  1.00  0.00    -0.361 N 
ATOM     28  H1  UNL     1      -5.410  18.446  20.761  1.00  0.00     0.162 HD
BRANCH  27  29
HETATM   29  C17 UNL     1      -5.241  16.851  19.352  1.00  0.00     0.124 C 
BRANCH  29  30
HETATM   30  C18 UNL     1      -6.510  16.073  19.531  1.00  0.00     0.050 C 
BRANCH  30  31
HETATM   31  C19 UNL     1      -7.503  17.011  20.248  1.00  0.00     0.274 C 
BRANCH  31  32
HETATM   32  N2  UNL     1      -8.206  16.332  21.273  1.00  0.00     0.092 N 
HETATM   33  C20 UNL     1      -9.625  16.283  21.113  1.00  0.00     0.298 C 
HETATM   34  C21 UNL     1     -10.202  15.569  22.337  1.00  0.00     0.198 C 
HETATM   35  O3  UNL     1      -9.662  14.300  22.492  1.00  0.00    -0.388 OA
HETATM   36  C22 UNL     1      -8.311  14.378  22.726  1.00  0.00     0.198 C 
HETATM   37  C23 UNL     1      -7.637  15.036  21.514  1.00  0.00     0.298 C 
ENDBRANCH  31  32
ENDBRANCH  30  31
ENDBRANCH  29  30
ENDBRANCH  27  29
ENDBRANCH  24  25
ENDBRANCH  23  24
ENDBRANCH  21  23
ENDBRANCH  10  21
BRANCH   1  38
HETATM   38  O1  UNL     1     -10.699  15.456  32.364  1.00  0.00    -0.390 OA
HETATM   39  C1  UNL     1      -9.385  15.756  32.678  1.00  0.00     0.202 C 
ENDBRANCH   1  38
BRANCH  18  40
HETATM   40  C33 UNL     1     -12.854  14.366  28.729  1.00  0.00     0.182 C 
HETATM   41  O4  UNL     1     -13.011  15.622  28.534  1.00  0.00    -0.647 OA
HETATM   42  O5  UNL     1     -13.976  13.610  28.545  1.00  0.00    -0.647 OA
ENDBRANCH  18  40
BRANCH  20  43
HETATM   43  C35 UNL     1     -12.513  13.639  31.420  1.00  0.00     0.172 C 
BRANCH  43  44
HETATM   44  O6  UNL     1     -12.206  12.865  32.532  1.00  0.00    -0.400 OA
ATOM     45  H6  UNL     1     -12.827  12.170  32.715  1.00  0.00     0.209 HD
ENDBRANCH  43  44
ENDBRANCH  20  43
TORSDOF 12
ENDMDL
MODEL 3
REMARK VINA RESULT: -8.758451155      3.749     10.244
REMARK  12 active torsions:
REMARK  status: ('A' for Active; 'I' for Inactive)
REMARK    1  A    between atoms: O1_2  and  C2_3 
REMARK    2  A    between atoms: C11_12  and  C12_13 
REMARK    3  A    between atoms: C12_13  and  C14_15 
REMARK    4  A    between atoms: C14_15  and  C15_16 
REMARK    5  A    between atoms: C15_16  and  C16_17 
REMARK       I    between atoms: C16_17  and  N1_19 
REMARK    6  A    between atoms: N1_19  and  C17_21 
REMARK    7  A    between atoms: C17_21  and  C18_22 
REMARK    8  A    between atoms: C18_22  and  C19_23 
REMARK    9  A    between atoms: C19_23  and  N2_24 
REMARK   10  A    between atoms: C31_37  and  C33_39 
REMARK   11  A    between atoms: C34_42  and  C35_43 
REMARK   12  A    between atoms: C35_43  and  O6_44 
ROOT
HETATM    1  C2  UNL     1     -11.218  15.225  32.078  1.00  0.00     0.129 C 
HETATM    2  C3  UNL     1     -10.036  15.753  31.326  1.00  0.00     0.042 C 
HETATM    3  C4  UNL     1      -9.687  14.988  30.074  1.00  0.00    -0.033 C 
HETATM    4  C5  UNL     1      -8.724  13.905  30.415  1.00  0.00     0.016 C 
HETATM    5  C6  UNL     1      -9.003  16.034  29.166  1.00  0.00    -0.001 C 
HETATM    6  C7  UNL     1      -7.901  16.761  29.844  1.00  0.00     0.006 C 
HETATM    7  C8  UNL     1      -7.357  17.748  28.863  1.00  0.00     0.010 C 
HETATM    8  C9  UNL     1      -6.762  17.073  27.615  1.00  0.00    -0.036 C 
HETATM    9  C10 UNL     1      -5.616  16.266  28.142  1.00  0.00     0.016 C 
HETATM   10  C11 UNL     1      -6.483  18.160  26.677  1.00  0.00    -0.002 C 
HETATM   11  C24 UNL     1      -7.800  18.240  25.872  1.00  0.00     0.006 C 
HETATM   12  C25 UNL     1      -8.360  16.865  25.861  1.00  0.00     0.006 C 
HETATM   13  C26 UNL     1      -7.738  16.116  26.989  1.00  0.00    -0.002 C 
HETATM   14  C27 UNL     1      -8.657  15.387  27.884  1.00  0.00    -0.005 C 
HETATM   15  C28 UNL     1      -9.992  15.091  27.180  1.00  0.00     0.006 C 
HETATM   16  C29 UNL     1     -10.631  13.956  28.002  1.00  0.00     0.007 C 
HETATM   17  C30 UNL     1     -10.924  14.569  29.353  1.00  0.00     0.013 C 
HETATM   18  C31 UNL     1     -11.921  13.778  30.166  1.00  0.00     0.057 C 
HETATM   19  C32 UNL     1     -11.935  12.297  29.784  1.00  0.00     0.028 C 
HETATM   20  C34 UNL     1     -11.636  13.849  31.633  1.00  0.00     0.057 C 
ENDROOT
BRANCH  10  21
HETATM   21  C12 UNL     1      -5.374  18.216  25.759  1.00  0.00    -0.013 C 
HETATM   22  C13 UNL     1      -4.857  19.506  25.237  1.00  0.00     0.010 C 
BRANCH  21  23
HETATM   23  C14 UNL     1      -5.426  17.219  24.624  1.00  0.00     0.014 C 
BRANCH  23  24
HETATM   24  C15 UNL     1      -4.853  17.811  23.354  1.00  0.00     0.103 C 
BRANCH  24  25
HETATM   25  C16 UNL     1      -5.873  17.820  22.244  1.00  0.00     0.217 C 
HETATM   26  O2  UNL     1      -6.961  18.372  22.474  1.00  0.00    -0.274 OA
HETATM   27  N1  UNL     1      -5.504  17.200  21.033  1.00  0.00    -0.361 N 
ATOM     28  H1  UNL     1      -4.579  16.780  20.948  1.00  0.00     0.162 HD
BRANCH  27  29
HETATM   29  C17 UNL     1      -6.408  17.149  19.910  1.00  0.00     0.124 C 
BRANCH  29  30
HETATM   30  C18 UNL     1      -7.145  15.843  19.902  1.00  0.00     0.050 C 
BRANCH  30  31
HETATM   31  C19 UNL     1      -8.621  16.169  20.211  1.00  0.00     0.274 C 
BRANCH  31  32
HETATM   32  N2  UNL     1      -8.954  15.841  21.548  1.00  0.00     0.092 N 
HETATM   33  C20 UNL     1     -10.346  15.640  21.799  1.00  0.00     0.298 C 
HETATM   34  C21 UNL     1     -10.507  15.356  23.294  1.00  0.00     0.198 C 
HETATM   35  O3  UNL     1      -9.754  14.260  23.691  1.00  0.00    -0.388 OA
HETATM   36  C22 UNL     1      -8.415  14.508  23.515  1.00  0.00     0.198 C 
HETATM   37  C23 UNL     1      -8.149  14.751  22.023  1.00  0.00     0.298 C 
ENDBRANCH  31  32
ENDBRANCH  30  31
ENDBRANCH  29  30
ENDBRANCH  27  29
ENDBRANCH  24  25
ENDBRANCH  23  24
ENDBRANCH  21  23
ENDBRANCH  10  21
BRANCH   1  38
HETATM   38  O1  UNL     1     -10.860  15.154  33.416  1.00  0.00    -0.390 OA
HETATM   39  C1  UNL     1      -9.589  15.632  33.680  1.00  0.00     0.202 C 
ENDBRANCH   1  38
BRANCH  18  40
HETATM   40  C33 UNL     1     -13.284  14.278  29.895  1.00  0.00     0.182 C 
HETATM   41  O4  UNL     1     -13.392  15.444  29.377  1.00  0.00    -0.647 OA
HETATM   42  O5  UNL     1     -14.468  13.641  30.133  1.00  0.00    -0.647 OA
ENDBRANCH  18  40
BRANCH  20  43
HETATM   43  C35 UNL     1     -12.765  13.410  32.514  1.00  0.00     0.172 C 
BRANCH  43  44
HETATM   44  O6  UNL     1     -12.389  12.591  33.572  1.00  0.00    -0.400 OA
ATOM     45  H6  UNL     1     -11.569  12.129  33.444  1.00  0.00     0.209 HD
ENDBRANCH  43  44
ENDBRANCH  20  43
TORSDOF 12
ENDMDL
MODEL 4
REMARK VINA RESULT: -8.630173431      4.329     10.649
REMARK  12 active torsions:
REMARK  status: ('A' for Active; 'I' for Inactive)
REMARK    1  A    between atoms: O1_2  and  C2_3 
REMARK    2  A    between atoms: C11_12  and  C12_13 
REMARK    3  A    between atoms: C12_13  and  C14_15 
REMARK    4  A    between atoms: C14_15  and  C15_16 
REMARK    5  A    between atoms: C15_16  and  C16_17 
REMARK       I    between atoms: C16_17  and  N1_19 
REMARK    6  A    between atoms: N1_19  and  C17_21 
REMARK    7  A    between atoms: C17_21  and  C18_22 
REMARK    8  A    between atoms: C18_22  and  C19_23 
REMARK    9  A    between atoms: C19_23  and  N2_24 
REMARK   10  A    between atoms: C31_37  and  C33_39 
REMARK   11  A    between atoms: C34_42  and  C35_43 
REMARK   12  A    between atoms: C35_43  and  O6_44 
ROOT
HETATM    1  C2  UNL     1     -11.137  15.400  31.232  1.00  0.00     0.129 C 
HETATM    2  C3  UNL     1      -9.899  15.926  30.572  1.00  0.00     0.042 C 
HETATM    3  C4  UNL     1      -9.411  15.114  29.400  1.00  0.00    -0.033 C 
HETATM    4  C5  UNL     1      -8.460  14.077  29.886  1.00  0.00     0.016 C 
HETATM    5  C6  UNL     1      -8.667  16.135  28.511  1.00  0.00    -0.001 C 
HETATM    6  C7  UNL     1      -7.655  16.926  29.256  1.00  0.00     0.006 C 
HETATM    7  C8  UNL     1      -7.042  17.881  28.284  1.00  0.00     0.010 C 
HETATM    8  C9  UNL     1      -6.311  17.165  27.135  1.00  0.00    -0.036 C 
HETATM    9  C10 UNL     1      -5.203  16.418  27.809  1.00  0.00     0.016 C 
HETATM   10  C11 UNL     1      -5.968  18.214  26.175  1.00  0.00    -0.002 C 
HETATM   11  C24 UNL     1      -7.202  18.217  25.243  1.00  0.00     0.006 C 
HETATM   12  C25 UNL     1      -7.724  16.828  25.247  1.00  0.00     0.006 C 
HETATM   13  C26 UNL     1      -7.197  16.151  26.465  1.00  0.00    -0.002 C 
HETATM   14  C27 UNL     1      -8.181  15.439  27.303  1.00  0.00    -0.005 C 
HETATM   15  C28 UNL     1      -9.433  15.070  26.489  1.00  0.00     0.006 C 
HETATM   16  C29 UNL     1     -10.122  13.957  27.301  1.00  0.00     0.007 C 
HETATM   17  C30 UNL     1     -10.560  14.625  28.585  1.00  0.00     0.013 C 
HETATM   18  C31 UNL     1     -11.612  13.844  29.337  1.00  0.00     0.057 C 
HETATM   19  C32 UNL     1     -11.552  12.347  29.029  1.00  0.00     0.028 C 
HETATM   20  C34 UNL     1     -11.475  13.993  30.818  1.00  0.00     0.057 C 
ENDROOT
BRANCH  10  21
HETATM   21  C12 UNL     1      -4.776  18.260  25.367  1.00  0.00    -0.013 C 
HETATM   22  C13 UNL     1      -4.485  19.405  24.469  1.00  0.00     0.010 C 
BRANCH  21  23
HETATM   23  C14 UNL     1      -4.440  16.977  24.642  1.00  0.00     0.014 C 
BRANCH  23  24
HETATM   24  C15 UNL     1      -2.995  16.587  24.869  1.00  0.00     0.103 C 
BRANCH  24  25
HETATM   25  C16 UNL     1      -2.393  15.964  23.634  1.00  0.00     0.217 C 
HETATM   26  O2  UNL     1      -1.330  15.340  23.773  1.00  0.00    -0.274 OA
HETATM   27  N1  UNL     1      -3.092  16.142  22.424  1.00  0.00    -0.361 N 
ATOM     28  H1  UNL     1      -3.964  16.671  22.423  1.00  0.00     0.162 HD
BRANCH  27  29
HETATM   29  C17 UNL     1      -2.600  15.591  21.185  1.00  0.00     0.124 C 
BRANCH  29  30
HETATM   30  C18 UNL     1      -3.684  15.603  20.149  1.00  0.00     0.050 C 
BRANCH  30  31
HETATM   31  C19 UNL     1      -4.502  16.890  20.383  1.00  0.00     0.274 C 
BRANCH  31  32
HETATM   32  N2  UNL     1      -5.855  16.596  20.680  1.00  0.00     0.092 N 
HETATM   33  C20 UNL     1      -6.515  17.541  21.523  1.00  0.00     0.298 C 
HETATM   34  C21 UNL     1      -7.933  17.023  21.773  1.00  0.00     0.198 C 
HETATM   35  O3  UNL     1      -8.624  16.830  20.585  1.00  0.00    -0.388 OA
HETATM   36  C22 UNL     1      -8.016  15.859  19.828  1.00  0.00     0.198 C 
HETATM   37  C23 UNL     1      -6.595  16.323  19.480  1.00  0.00     0.298 C 
ENDBRANCH  31  32
ENDBRANCH  30  31
ENDBRANCH  29  30
ENDBRANCH  27  29
ENDBRANCH  24  25
ENDBRANCH  23  24
ENDBRANCH  21  23
ENDBRANCH  10  21
BRANCH   1  38
HETATM   38  O1  UNL     1     -10.910  15.403  32.601  1.00  0.00    -0.390 OA
HETATM   39  C1  UNL     1      -9.579  15.559  32.946  1.00  0.00     0.202 C 
ENDBRANCH   1  38
BRANCH  18  40
HETATM   40  C33 UNL     1     -12.954  14.291  28.910  1.00  0.00     0.182 C 
HETATM   41  O4  UNL     1     -13.095  15.525  28.599  1.00  0.00    -0.647 OA
HETATM   42  O5  UNL     1     -14.088  13.537  28.804  1.00  0.00    -0.647 OA
ENDBRANCH  18  40
BRANCH  20  43
HETATM   43  C35 UNL     1     -12.673  13.563  31.607  1.00  0.00     0.172 C 
BRANCH  43  44
HETATM   44  O6  UNL     1     -12.384  12.789  32.724  1.00  0.00    -0.400 OA
ATOM     45  H6  UNL     1     -13.105  12.251  33.031  1.00  0.00     0.209 HD
ENDBRANCH  43  44
ENDBRANCH  20  43
TORSDOF 12
ENDMDL
MODEL 5
REMARK VINA RESULT: -8.512876250      1.994      5.062
REMARK  12 active torsions:
REMARK  status: ('A' for Active; 'I' for Inactive)
REMARK    1  A    between atoms: O1_2  and  C2_3 
REMARK    2  A    between atoms: C11_12  and  C12_13 
REMARK    3  A    between atoms: C12_13  and  C14_15 
REMARK    4  A    between atoms: C14_15  and  C15_16 
REMARK    5  A    between atoms: C15_16  and  C16_17 
REMARK       I    between atoms: C16_17  and  N1_19 
REMARK    6  A    between atoms: N1_19  and  C17_21 
REMARK    7  A    between atoms: C17_21  and  C18_22 
REMARK    8  A    between atoms: C18_22  and  C19_23 
REMARK    9  A    between atoms: C19_23  and  N2_24 
REMARK   10  A    between atoms: C31_37  and  C33_39 
REMARK   11  A    between atoms: C34_42  and  C35_43 
REMARK   12  A    between atoms: C35_43  and  O6_44 
ROOT
HETATM    1  C2  UNL     1      -6.863  16.963  24.668  1.00  0.00     0.129 C 
HETATM    2  C3  UNL     1      -7.048  17.053  26.152  1.00  0.00     0.042 C 
HETATM    3  C4  UNL     1      -8.430  16.701  26.641  1.00  0.00    -0.033 C 
HETATM    4  C5  UNL     1      -9.267  17.932  26.672  1.00  0.00     0.016 C 
HETATM    5  C6  UNL     1      -8.205  16.181  28.079  1.00  0.00    -0.001 C 
HETATM    6  C7  UNL     1      -7.408  17.112  28.915  1.00  0.00     0.006 C 
HETATM    7  C8  UNL     1      -7.249  16.472  30.256  1.00  0.00     0.010 C 
HETATM    8  C9  UNL     1      -8.595  16.253  30.968  1.00  0.00    -0.036 C 
HETATM    9  C10 UNL     1      -9.132  17.635  31.177  1.00  0.00     0.016 C 
HETATM   10  C11 UNL     1      -8.290  15.434  32.140  1.00  0.00    -0.002 C 
HETATM   11  C24 UNL     1      -8.472  14.000  31.590  1.00  0.00     0.006 C 
HETATM   12  C25 UNL     1      -9.502  14.095  30.526  1.00  0.00     0.006 C 
HETATM   13  C26 UNL     1      -9.570  15.518  30.089  1.00  0.00    -0.002 C 
HETATM   14  C27 UNL     1      -9.508  15.767  28.637  1.00  0.00    -0.005 C 
HETATM   15  C28 UNL     1      -9.935  14.518  27.846  1.00  0.00     0.006 C 
HETATM   16  C29 UNL     1     -10.288  15.039  26.440  1.00  0.00     0.007 C 
HETATM   17  C30 UNL     1      -8.982  15.547  25.873  1.00  0.00     0.013 C 
HETATM   18  C31 UNL     1      -9.004  15.711  24.371  1.00  0.00     0.057 C 
HETATM   19  C32 UNL     1     -10.417  15.950  23.836  1.00  0.00     0.028 C 
HETATM   20  C34 UNL     1      -8.162  16.860  23.915  1.00  0.00     0.057 C 
ENDROOT
BRANCH  10  21
HETATM   21  C12 UNL     1      -8.939  15.524  33.424  1.00  0.00    -0.013 C 
HETATM   22  C13 UNL     1      -8.461  16.454  34.477  1.00  0.00     0.010 C 
BRANCH  21  23
HETATM   23  C14 UNL     1      -9.284  14.200  34.065  1.00  0.00     0.014 C 
BRANCH  23  24
HETATM   24  C15 UNL     1     -10.499  14.330  34.958  1.00  0.00     0.103 C 
BRANCH  24  25
HETATM   25  C16 UNL     1     -11.765  13.979  34.218  1.00  0.00     0.217 C 
HETATM   26  O2  UNL     1     -12.326  12.914  34.523  1.00  0.00    -0.274 OA
HETATM   27  N1  UNL     1     -12.208  14.892  33.241  1.00  0.00    -0.361 N 
ATOM     28  H1  UNL     1     -11.672  15.743  33.073  1.00  0.00     0.162 HD
BRANCH  27  29
HETATM   29  C17 UNL     1     -13.404  14.648  32.473  1.00  0.00     0.124 C 
BRANCH  29  30
HETATM   30  C18 UNL     1     -13.141  14.894  31.018  1.00  0.00     0.050 C 
BRANCH  30  31
HETATM   31  C19 UNL     1     -13.897  13.795  30.242  1.00  0.00     0.274 C 
BRANCH  31  32
HETATM   32  N2  UNL     1     -13.037  12.726  29.891  1.00  0.00     0.092 N 
HETATM   33  C20 UNL     1     -13.271  11.500  30.585  1.00  0.00     0.298 C 
HETATM   34  C21 UNL     1     -12.216  10.496  30.116  1.00  0.00     0.198 C 
HETATM   35  O3  UNL     1     -12.254  10.319  28.740  1.00  0.00    -0.388 OA
HETATM   36  C22 UNL     1     -11.946  11.491  28.096  1.00  0.00     0.198 C 
HETATM   37  C23 UNL     1     -12.994  12.549  28.467  1.00  0.00     0.298 C 
ENDBRANCH  31  32
ENDBRANCH  30  31
ENDBRANCH  29  30
ENDBRANCH  27  29
ENDBRANCH  24  25
ENDBRANCH  23  24
ENDBRANCH  21  23
ENDBRANCH  10  21
BRANCH   1  38
HETATM   38  O1  UNL     1      -6.221  18.123  24.260  1.00  0.00    -0.390 OA
HETATM   39  C1  UNL     1      -5.433  18.700  25.240  1.00  0.00     0.202 C 
ENDBRANCH   1  38
BRANCH  18  40
HETATM   40  C33 UNL     1      -8.537  14.463  23.733  1.00  0.00     0.182 C 
HETATM   41  O4  UNL     1      -7.787  13.690  24.427  1.00  0.00    -0.647 OA
HETATM   42  O5  UNL     1      -8.808  14.020  22.471  1.00  0.00    -0.647 OA
ENDBRANCH  18  40
BRANCH  20  43
HETATM   43  C35 UNL     1      -7.841  16.863  22.452  1.00  0.00     0.172 C 
BRANCH  43  44
HETATM   44  O6  UNL     1      -6.621  16.285  22.126  1.00  0.00    -0.400 OA
ATOM     45  H6  UNL     1      -6.682  15.418  21.744  1.00  0.00     0.209 HD
ENDBRANCH  43  44
ENDBRANCH  20  43
TORSDOF 12
ENDMDL
