MODEL 1
REMARK VINA RESULT: -6.497452001      0.000      0.000
REMARK  10 active torsions:
REMARK  status: ('A' for Active; 'I' for Inactive)
REMARK    1  A    between atoms: C2_2  and  N1_3 
REMARK    2  A    between atoms: N1_3  and  C3_4 
REMARK    3  A    between atoms: C5_6  and  O1_7 
REMARK    4  A    between atoms: C6_9  and  O2_10 
REMARK    5  A    between atoms: C7_12  and  O3_13 
REMARK    6  A    between atoms: C7_12  and  C16_23 
REMARK    7  A    between atoms: O3_13  and  C8_14 
REMARK    8  A    between atoms: C8_14  and  C9_15 
REMARK    9  A    between atoms: C9_15  and  C10_16 
REMARK   10  A    between atoms: C10_16  and  N2_17 
ROOT
HETATM    1  C3  UNL     1      13.589 -14.491  19.195  1.00  0.00     0.241 C 
HETATM    2  C4  UNL     1      14.685 -14.127  18.207  1.00  0.00     0.071 C 
HETATM    3  C5  UNL     1      14.802 -12.603  18.385  1.00  0.00     0.152 C 
HETATM    4  C6  UNL     1      13.873 -12.270  19.504  1.00  0.00     0.194 C 
HETATM    5  C7  UNL     1      13.980 -13.567  20.337  1.00  0.00     0.205 C 
ENDROOT
BRANCH   5   6
HETATM    6  O3  UNL     1      15.240 -13.833  20.710  1.00  0.00    -0.365 OA
BRANCH   6   7
HETATM    7  C8  UNL     1      15.765 -13.378  21.871  1.00  0.00     0.171 C 
BRANCH   7   8
HETATM    8  C9  UNL     1      16.745 -14.384  22.449  1.00  0.00     0.054 C 
BRANCH   8   9
HETATM    9  C10 UNL     1      17.739 -14.959  21.548  1.00  0.00     0.239 C 
BRANCH   9  10
HETATM   10  N2  UNL     1      18.992 -14.428  21.314  1.00  0.00    -0.066 N 
HETATM   11  C11 UNL     1      19.059 -13.505  20.144  1.00  0.00     0.238 C 
HETATM   12  C12 UNL     1      20.531 -13.145  20.204  1.00  0.00     0.036 C 
HETATM   13  C13 UNL     1      20.923 -13.939  21.405  1.00  0.00     0.039 C 
HETATM   14  C14 UNL     1      19.735 -13.709  22.314  1.00  0.00     0.243 C 
HETATM   15  C15 UNL     1      20.164 -15.240  21.117  1.00  0.00     0.243 C 
ENDBRANCH   9  10
ENDBRANCH   8   9
ENDBRANCH   7   8
ENDBRANCH   6   7
ENDBRANCH   5   6
BRANCH   5  16
HETATM   16  C16 UNL     1      12.956 -13.436  21.368  1.00  0.00     0.214 C 
HETATM   17  O4  UNL     1      11.896 -12.751  21.133  1.00  0.00    -0.646 OA
HETATM   18  O5  UNL     1      12.978 -13.985  22.642  1.00  0.00    -0.646 OA
ENDBRANCH   5  16
BRANCH   1  19
HETATM   19  N1  UNL     1      13.467 -15.874  19.468  1.00  0.00    -0.059 N 
HETATM   20  C17 UNL     1      13.632 -16.555  18.164  1.00  0.00     0.238 C 
HETATM   21  C18 UNL     1      12.747 -17.759  18.186  1.00  0.00     0.029 C 
HETATM   22  C19 UNL     1      11.662 -17.429  19.150  1.00  0.00     0.029 C 
HETATM   23  C20 UNL     1      12.123 -16.180  19.876  1.00  0.00     0.238 C 
BRANCH  19  24
HETATM   24  C2  UNL     1      14.446 -16.366  20.386  1.00  0.00     0.233 C 
HETATM   25  C1  UNL     1      13.918 -17.047  21.615  1.00  0.00     0.035 C 
ENDBRANCH  19  24
ENDBRANCH   1  19
BRANCH   4  26
HETATM   26  O2  UNL     1      14.099 -11.133  20.192  1.00  0.00    -0.389 OA
ATOM     27  H2  UNL     1      13.704 -11.049  21.053  1.00  0.00     0.210 HD
ENDBRANCH   4  26
BRANCH   3  28
HETATM   28  O1  UNL     1      14.427 -12.013  17.177  1.00  0.00    -0.393 OA
ATOM     29  H1  UNL     1      13.606 -11.560  17.326  1.00  0.00     0.210 HD
ENDBRANCH   3  28
TORSDOF 10
ENDMDL
MODEL 2
REMARK VINA RESULT: -6.321230909      1.505      1.892
REMARK  10 active torsions:
REMARK  status: ('A' for Active; 'I' for Inactive)
REMARK    1  A    between atoms: C2_2  and  N1_3 
REMARK    2  A    between atoms: N1_3  and  C3_4 
REMARK    3  A    between atoms: C5_6  and  O1_7 
REMARK    4  A    between atoms: C6_9  and  O2_10 
REMARK    5  A    between atoms: C7_12  and  O3_13 
REMARK    6  A    between atoms: C7_12  and  C16_23 
REMARK    7  A    between atoms: O3_13  and  C8_14 
REMARK    8  A    between atoms: C8_14  and  C9_15 
REMARK    9  A    between atoms: C9_15  and  C10_16 
REMARK   10  A    between atoms: C10_16  and  N2_17 
ROOT
HETATM    1  C3  UNL     1      14.633 -14.381  19.319  1.00  0.00     0.241 C 
HETATM    2  C4  UNL     1      15.915 -14.409  18.503  1.00  0.00     0.071 C 
HETATM    3  C5  UNL     1      16.474 -12.991  18.712  1.00  0.00     0.152 C 
HETATM    4  C6  UNL     1      15.547 -12.347  19.688  1.00  0.00     0.194 C 
HETATM    5  C7  UNL     1      15.127 -13.582  20.514  1.00  0.00     0.205 C 
ENDROOT
BRANCH   5   6
HETATM    6  O3  UNL     1      16.175 -14.211  21.063  1.00  0.00    -0.365 OA
BRANCH   6   7
HETATM    7  C8  UNL     1      16.637 -13.911  22.300  1.00  0.00     0.171 C 
BRANCH   7   8
HETATM    8  C9  UNL     1      17.465 -15.057  22.857  1.00  0.00     0.054 C 
BRANCH   8   9
HETATM    9  C10 UNL     1      18.825 -15.220  22.354  1.00  0.00     0.239 C 
BRANCH   9  10
HETATM   10  N2  UNL     1      19.972 -14.959  23.078  1.00  0.00    -0.066 N 
HETATM   11  C11 UNL     1      19.729 -14.299  24.394  1.00  0.00     0.238 C 
HETATM   12  C12 UNL     1      21.164 -14.177  24.871  1.00  0.00     0.036 C 
HETATM   13  C13 UNL     1      21.855 -14.817  23.715  1.00  0.00     0.039 C 
HETATM   14  C14 UNL     1      20.930 -15.977  23.419  1.00  0.00     0.243 C 
HETATM   15  C15 UNL     1      21.069 -14.187  22.558  1.00  0.00     0.243 C 
ENDBRANCH   9  10
ENDBRANCH   8   9
ENDBRANCH   7   8
ENDBRANCH   6   7
ENDBRANCH   5   6
BRANCH   5  16
HETATM   16  C16 UNL     1      14.060 -13.105  21.388  1.00  0.00     0.214 C 
HETATM   17  O4  UNL     1      13.460 -12.002  21.120  1.00  0.00    -0.646 OA
HETATM   18  O5  UNL     1      13.581 -13.720  22.535  1.00  0.00    -0.646 OA
ENDBRANCH   5  16
BRANCH   1  19
HETATM   19  N1  UNL     1      14.049 -15.648  19.557  1.00  0.00    -0.059 N 
HETATM   20  C17 UNL     1      14.039 -16.336  18.248  1.00  0.00     0.238 C 
HETATM   21  C18 UNL     1      12.807 -17.180  18.208  1.00  0.00     0.029 C 
HETATM   22  C19 UNL     1      11.849 -16.517  19.133  1.00  0.00     0.029 C 
HETATM   23  C20 UNL     1      12.662 -15.495  19.904  1.00  0.00     0.238 C 
BRANCH  19  24
HETATM   24  C2  UNL     1      14.768 -16.441  20.504  1.00  0.00     0.233 C 
HETATM   25  C1  UNL     1      13.989 -16.919  21.694  1.00  0.00     0.035 C 
ENDBRANCH  19  24
ENDBRANCH   1  19
BRANCH   4  26
HETATM   26  O2  UNL     1      16.016 -11.311  20.413  1.00  0.00    -0.389 OA
ATOM     27  H2  UNL     1      16.683 -11.491  21.065  1.00  0.00     0.210 HD
ENDBRANCH   4  26
BRANCH   3  28
HETATM   28  O1  UNL     1      16.475 -12.356  17.468  1.00  0.00    -0.393 OA
ATOM     29  H1  UNL     1      17.380 -12.282  17.189  1.00  0.00     0.210 HD
ENDBRANCH   3  28
TORSDOF 10
ENDMDL
MODEL 3
REMARK VINA RESULT: -6.320005124      1.825      2.242
REMARK  10 active torsions:
REMARK  status: ('A' for Active; 'I' for Inactive)
REMARK    1  A    between atoms: C2_2  and  N1_3 
REMARK    2  A    between atoms: N1_3  and  C3_4 
REMARK    3  A    between atoms: C5_6  and  O1_7 
REMARK    4  A    between atoms: C6_9  and  O2_10 
REMARK    5  A    between atoms: C7_12  and  O3_13 
REMARK    6  A    between atoms: C7_12  and  C16_23 
REMARK    7  A    between atoms: O3_13  and  C8_14 
REMARK    8  A    between atoms: C8_14  and  C9_15 
REMARK    9  A    between atoms: C9_15  and  C10_16 
REMARK   10  A    between atoms: C10_16  and  N2_17 
ROOT
HETATM    1  C3  UNL     1      14.495 -14.540  19.316  1.00  0.00     0.241 C 
HETATM    2  C4  UNL     1      15.799 -14.744  18.563  1.00  0.00     0.071 C 
HETATM    3  C5  UNL     1      16.469 -13.364  18.675  1.00  0.00     0.152 C 
HETATM    4  C6  UNL     1      15.565 -12.563  19.551  1.00  0.00     0.194 C 
HETATM    5  C7  UNL     1      15.011 -13.682  20.460  1.00  0.00     0.205 C 
ENDROOT
BRANCH   5   6
HETATM    6  O3  UNL     1      15.982 -14.344  21.106  1.00  0.00    -0.365 OA
BRANCH   6   7
HETATM    7  C8  UNL     1      16.597 -13.843  22.202  1.00  0.00     0.171 C 
BRANCH   7   8
HETATM    8  C9  UNL     1      18.107 -13.900  22.045  1.00  0.00     0.054 C 
BRANCH   8   9
HETATM    9  C10 UNL     1      18.809 -15.038  22.629  1.00  0.00     0.239 C 
BRANCH   9  10
HETATM   10  N2  UNL     1      19.335 -15.069  23.906  1.00  0.00    -0.066 N 
HETATM   11  C11 UNL     1      20.195 -13.898  24.245  1.00  0.00     0.238 C 
HETATM   12  C12 UNL     1      20.573 -14.279  25.664  1.00  0.00     0.036 C 
HETATM   13  C13 UNL     1      19.815 -15.558  25.778  1.00  0.00     0.039 C 
HETATM   14  C14 UNL     1      18.519 -15.200  25.084  1.00  0.00     0.243 C 
HETATM   15  C15 UNL     1      20.121 -16.167  24.404  1.00  0.00     0.243 C 
ENDBRANCH   9  10
ENDBRANCH   8   9
ENDBRANCH   7   8
ENDBRANCH   6   7
ENDBRANCH   5   6
BRANCH   5  16
HETATM   16  C16 UNL     1      13.958 -13.044  21.242  1.00  0.00     0.214 C 
HETATM   17  O4  UNL     1      13.308 -12.052  20.750  1.00  0.00    -0.646 OA
HETATM   18  O5  UNL     1      13.542 -13.386  22.521  1.00  0.00    -0.646 OA
ENDBRANCH   5  16
BRANCH   1  19
HETATM   19  N1  UNL     1      13.797 -15.729  19.635  1.00  0.00    -0.059 N 
HETATM   20  C17 UNL     1      13.803 -16.540  18.398  1.00  0.00     0.238 C 
HETATM   21  C18 UNL     1      12.509 -17.288  18.361  1.00  0.00     0.029 C 
HETATM   22  C19 UNL     1      11.560 -16.465  19.158  1.00  0.00     0.029 C 
HETATM   23  C20 UNL     1      12.410 -15.437  19.879  1.00  0.00     0.238 C 
BRANCH  19  24
HETATM   24  C2  UNL     1      14.396 -16.478  20.695  1.00  0.00     0.233 C 
HETATM   25  C1  UNL     1      13.522 -16.759  21.883  1.00  0.00     0.035 C 
ENDBRANCH  19  24
ENDBRANCH   1  19
BRANCH   4  26
HETATM   26  O2  UNL     1      16.093 -11.509  20.205  1.00  0.00    -0.389 OA
ATOM     27  H2  UNL     1      15.518 -10.783  20.417  1.00  0.00     0.210 HD
ENDBRANCH   4  26
BRANCH   3  28
HETATM   28  O1  UNL     1      16.570 -12.844  17.383  1.00  0.00    -0.393 OA
ATOM     29  H1  UNL     1      17.356 -12.312  17.352  1.00  0.00     0.210 HD
ENDBRANCH   3  28
TORSDOF 10
ENDMDL
MODEL 4
REMARK VINA RESULT: -6.230100964      0.713      1.276
REMARK  10 active torsions:
REMARK  status: ('A' for Active; 'I' for Inactive)
REMARK    1  A    between atoms: C2_2  and  N1_3 
REMARK    2  A    between atoms: N1_3  and  C3_4 
REMARK    3  A    between atoms: C5_6  and  O1_7 
REMARK    4  A    between atoms: C6_9  and  O2_10 
REMARK    5  A    between atoms: C7_12  and  O3_13 
REMARK    6  A    between atoms: C7_12  and  C16_23 
REMARK    7  A    between atoms: O3_13  and  C8_14 
REMARK    8  A    between atoms: C8_14  and  C9_15 
REMARK    9  A    between atoms: C9_15  and  C10_16 
REMARK   10  A    between atoms: C10_16  and  N2_17 
ROOT
HETATM    1  C3  UNL     1      13.666 -14.440  19.217  1.00  0.00     0.241 C 
HETATM    2  C4  UNL     1      14.713 -14.079  18.176  1.00  0.00     0.071 C 
HETATM    3  C5  UNL     1      14.837 -12.554  18.342  1.00  0.00     0.152 C 
HETATM    4  C6  UNL     1      13.962 -12.218  19.502  1.00  0.00     0.194 C 
HETATM    5  C7  UNL     1      14.110 -13.510  20.335  1.00  0.00     0.205 C 
ENDROOT
BRANCH   5   6
HETATM    6  O3  UNL     1      15.386 -13.774  20.648  1.00  0.00    -0.365 OA
BRANCH   6   7
HETATM    7  C8  UNL     1      16.042 -13.120  21.635  1.00  0.00     0.171 C 
BRANCH   7   8
HETATM    8  C9  UNL     1      17.405 -12.650  21.156  1.00  0.00     0.054 C 
BRANCH   8   9
HETATM    9  C10 UNL     1      18.356 -13.665  20.712  1.00  0.00     0.239 C 
BRANCH   9  10
HETATM   10  N2  UNL     1      19.332 -14.234  21.506  1.00  0.00    -0.066 N 
HETATM   11  C11 UNL     1      19.363 -15.725  21.468  1.00  0.00     0.238 C 
HETATM   12  C12 UNL     1      20.512 -15.967  22.427  1.00  0.00     0.036 C 
HETATM   13  C13 UNL     1      20.856 -14.553  22.751  1.00  0.00     0.039 C 
HETATM   14  C14 UNL     1      20.726 -13.896  21.394  1.00  0.00     0.243 C 
HETATM   15  C15 UNL     1      19.446 -13.972  22.917  1.00  0.00     0.243 C 
ENDBRANCH   9  10
ENDBRANCH   8   9
ENDBRANCH   7   8
ENDBRANCH   6   7
ENDBRANCH   5   6
BRANCH   5  16
HETATM   16  C16 UNL     1      13.137 -13.376  21.414  1.00  0.00     0.214 C 
HETATM   17  O4  UNL     1      12.190 -12.514  21.317  1.00  0.00    -0.646 OA
HETATM   18  O5  UNL     1      13.096 -14.098  22.597  1.00  0.00    -0.646 OA
ENDBRANCH   5  16
BRANCH   1  19
HETATM   19  N1  UNL     1      13.558 -15.822  19.501  1.00  0.00    -0.059 N 
HETATM   20  C17 UNL     1      13.769 -16.513  18.210  1.00  0.00     0.238 C 
HETATM   21  C18 UNL     1      12.903 -17.731  18.220  1.00  0.00     0.029 C 
HETATM   22  C19 UNL     1      11.787 -17.408  19.151  1.00  0.00     0.029 C 
HETATM   23  C20 UNL     1      12.208 -16.145  19.876  1.00  0.00     0.238 C 
BRANCH  19  24
HETATM   24  C2  UNL     1      14.519 -16.288  20.451  1.00  0.00     0.233 C 
HETATM   25  C1  UNL     1      15.698 -17.030  19.890  1.00  0.00     0.035 C 
ENDBRANCH  19  24
ENDBRANCH   1  19
BRANCH   4  26
HETATM   26  O2  UNL     1      14.219 -11.077  20.175  1.00  0.00    -0.389 OA
ATOM     27  H2  UNL     1      14.862 -11.108  20.874  1.00  0.00     0.210 HD
ENDBRANCH   4  26
BRANCH   3  28
HETATM   28  O1  UNL     1      14.404 -11.969  17.151  1.00  0.00    -0.393 OA
ATOM     29  H1  UNL     1      14.538 -11.032  17.231  1.00  0.00     0.210 HD
ENDBRANCH   3  28
TORSDOF 10
ENDMDL
MODEL 5
REMARK VINA RESULT: -6.196834002      1.881      2.598
REMARK  10 active torsions:
REMARK  status: ('A' for Active; 'I' for Inactive)
REMARK    1  A    between atoms: C2_2  and  N1_3 
REMARK    2  A    between atoms: N1_3  and  C3_4 
REMARK    3  A    between atoms: C5_6  and  O1_7 
REMARK    4  A    between atoms: C6_9  and  O2_10 
REMARK    5  A    between atoms: C7_12  and  O3_13 
REMARK    6  A    between atoms: C7_12  and  C16_23 
REMARK    7  A    between atoms: O3_13  and  C8_14 
REMARK    8  A    between atoms: C8_14  and  C9_15 
REMARK    9  A    between atoms: C9_15  and  C10_16 
REMARK   10  A    between atoms: C10_16  and  N2_17 
ROOT
HETATM    1  C3  UNL     1      15.123 -14.695  19.699  1.00  0.00     0.241 C 
HETATM    2  C4  UNL     1      15.601 -14.389  18.289  1.00  0.00     0.071 C 
HETATM    3  C5  UNL     1      15.947 -12.892  18.372  1.00  0.00     0.152 C 
HETATM    4  C6  UNL     1      15.749 -12.526  19.804  1.00  0.00     0.194 C 
HETATM    5  C7  UNL     1      16.128 -13.862  20.479  1.00  0.00     0.205 C 
ENDROOT
BRANCH   5   6
HETATM    6  O3  UNL     1      17.369 -14.260  20.164  1.00  0.00    -0.365 OA
BRANCH   6   7
HETATM    7  C8  UNL     1      18.472 -13.723  20.738  1.00  0.00     0.171 C 
BRANCH   7   8
HETATM    8  C9  UNL     1      19.573 -14.762  20.864  1.00  0.00     0.054 C 
BRANCH   8   9
HETATM    9  C10 UNL     1      19.693 -15.475  22.133  1.00  0.00     0.239 C 
BRANCH   9  10
HETATM   10  N2  UNL     1      20.476 -15.068  23.195  1.00  0.00    -0.066 N 
HETATM   11  C11 UNL     1      19.745 -14.283  24.232  1.00  0.00     0.238 C 
HETATM   12  C12 UNL     1      20.890 -14.025  25.192  1.00  0.00     0.036 C 
HETATM   13  C13 UNL     1      21.977 -14.746  24.467  1.00  0.00     0.039 C 
HETATM   14  C14 UNL     1      21.248 -15.984  23.992  1.00  0.00     0.243 C 
HETATM   15  C15 UNL     1      21.678 -14.294  23.032  1.00  0.00     0.243 C 
ENDBRANCH   9  10
ENDBRANCH   8   9
ENDBRANCH   7   8
ENDBRANCH   6   7
ENDBRANCH   5   6
BRANCH   5  16
HETATM   16  C16 UNL     1      15.785 -13.684  21.885  1.00  0.00     0.214 C 
HETATM   17  O4  UNL     1      14.735 -13.020  22.207  1.00  0.00    -0.646 OA
HETATM   18  O5  UNL     1      16.482 -14.165  22.983  1.00  0.00    -0.646 OA
ENDBRANCH   5  16
BRANCH   1  19
HETATM   19  N1  UNL     1      15.014 -16.072  20.007  1.00  0.00    -0.059 N 
HETATM   20  C17 UNL     1      14.347 -16.691  18.842  1.00  0.00     0.238 C 
HETATM   21  C18 UNL     1      13.491 -17.798  19.366  1.00  0.00     0.029 C 
HETATM   22  C19 UNL     1      13.173 -17.415  20.768  1.00  0.00     0.029 C 
HETATM   23  C20 UNL     1      14.100 -16.262  21.101  1.00  0.00     0.238 C 
BRANCH  19  24
HETATM   24  C2  UNL     1      16.274 -16.711  20.226  1.00  0.00     0.233 C 
HETATM   25  C1  UNL     1      16.464 -17.358  21.568  1.00  0.00     0.035 C 
ENDBRANCH  19  24
ENDBRANCH   1  19
BRANCH   4  26
HETATM   26  O2  UNL     1      16.406 -11.446  20.274  1.00  0.00    -0.389 OA
ATOM     27  H2  UNL     1      16.609 -10.747  19.662  1.00  0.00     0.210 HD
ENDBRANCH   4  26
BRANCH   3  28
HETATM   28  O1  UNL     1      15.077 -12.216  17.515  1.00  0.00    -0.393 OA
ATOM     29  H1  UNL     1      14.542 -11.641  18.050  1.00  0.00     0.210 HD
ENDBRANCH   3  28
TORSDOF 10
ENDMDL
