MODEL 1
REMARK VINA RESULT: -7.232573178      0.000      0.000
REMARK  11 active torsions:
REMARK  status: ('A' for Active; 'I' for Inactive)
REMARK    1  A    between atoms: C2_2  and  N1_3 
REMARK    2  A    between atoms: N1_3  and  C3_5 
REMARK    3  A    between atoms: C5_7  and  C6_8 
REMARK       I    between atoms: C6_8  and  N2_10 
REMARK    4  A    between atoms: N2_10  and  C7_12 
REMARK    5  A    between atoms: C7_12  and  C8_13 
REMARK    6  A    between atoms: C8_13  and  N3_14 
REMARK    7  A    between atoms: C12_20  and  N5_21 
REMARK    8  A    between atoms: N5_21  and  C13_23 
REMARK    9  A    between atoms: C13_23  and  C14_24 
REMARK   10  A    between atoms: C14_24  and  C15_25 
REMARK   11  A    between atoms: N6_28  and  O2_30 
ROOT
HETATM    1  C3  UNL     1      12.729 -11.364  22.073  1.00  0.00     0.119 A 
HETATM    2  C4  UNL     1      12.198 -12.632  21.806  1.00  0.00     0.084 A 
HETATM    3  C5  UNL     1      12.996 -13.582  21.198  1.00  0.00     0.120 A 
HETATM    4  N4  UNL     1      14.255 -13.246  20.889  1.00  0.00    -0.186 N 
ATOM      5  H4  UNL     1      14.845 -13.947  20.441  1.00  0.00     0.184 HD
HETATM    6  C12 UNL     1      14.788 -12.021  21.141  1.00  0.00     0.685 A 
HETATM    7  N7  UNL     1      13.997 -11.125  21.726  1.00  0.00    -0.177 N 
ATOM      8  H7  UNL     1      14.382 -10.201  21.921  1.00  0.00     0.186 HD
ENDROOT
BRANCH   6   9
HETATM    9  N5  UNL     1      16.012 -11.783  20.809  1.00  0.00    -0.179 N 
ATOM     10  H5  UNL     1      16.554 -11.090  21.326  1.00  0.00     0.185 HD
BRANCH   9  11
HETATM   11  C13 UNL     1      16.607 -12.482  19.727  1.00  0.00     0.117 C 
HETATM   12  N6  UNL     1      16.261 -12.193  18.524  1.00  0.00    -0.254 N 
ATOM     13  H6  UNL     1      15.563 -11.467  18.365  1.00  0.00     0.195 HD
BRANCH  11  14
HETATM   14  C14 UNL     1      17.621 -13.538  19.944  1.00  0.00     0.082 C 
BRANCH  14  15
HETATM   15  C15 UNL     1      18.863 -12.991  20.632  1.00  0.00    -0.016 C 
HETATM   16  C16 UNL     1      19.059 -13.568  21.999  1.00  0.00     0.010 C 
HETATM   17  C17 UNL     1      20.103 -13.279  19.815  1.00  0.00     0.010 C 
ENDBRANCH  14  15
ENDBRANCH  11  14
BRANCH  12  18
HETATM   18  O2  UNL     1      16.804 -12.836  17.462  1.00  0.00    -0.284 OA
HETATM   19  C18 UNL     1      17.091 -12.123  16.290  1.00  0.00     0.237 C 
ENDBRANCH  12  18
ENDBRANCH   9  11
ENDBRANCH   6   9
BRANCH   3  20
HETATM   20  C6  UNL     1      12.510 -14.914  20.892  1.00  0.00     0.268 C 
HETATM   21  O1  UNL     1      11.859 -15.076  19.809  1.00  0.00    -0.266 OA
HETATM   22  N2  UNL     1      12.732 -16.021  21.742  1.00  0.00    -0.354 N 
ATOM     23  H2  UNL     1      13.252 -15.913  22.613  1.00  0.00     0.162 HD
BRANCH  22  24
HETATM   24  C7  UNL     1      12.208 -17.309  21.350  1.00  0.00     0.151 C 
BRANCH  24  25
HETATM   25  C8  UNL     1      13.241 -18.153  20.641  1.00  0.00     0.255 C 
BRANCH  25  26
HETATM   26  N3  UNL     1      12.635 -18.641  19.414  1.00  0.00    -0.077 N 
HETATM   27  C9  UNL     1      11.204 -18.558  19.448  1.00  0.00     0.271 C 
HETATM   28  C10 UNL     1      13.223 -17.922  18.301  1.00  0.00     0.271 C 
HETATM   29  C11 UNL     1      12.984 -20.051  19.221  1.00  0.00     0.271 C 
ENDBRANCH  25  26
ENDBRANCH  24  25
ENDBRANCH  22  24
ENDBRANCH   3  20
BRANCH   1  30
HETATM   30  N1  UNL     1      11.970 -10.486  22.642  1.00  0.00    -0.376 N 
ATOM     31  H1  UNL     1      11.548  -9.749  22.077  1.00  0.00     0.161 HD
BRANCH  30  32
HETATM   32  C2  UNL     1      11.707 -10.528  24.049  1.00  0.00     0.116 C 
HETATM   33  C1  UNL     1      11.954  -9.154  24.661  1.00  0.00     0.026 C 
ENDBRANCH  30  32
ENDBRANCH   1  30
TORSDOF 11
ENDMDL
MODEL 2
REMARK VINA RESULT: -7.081031103      0.940      1.004
REMARK  11 active torsions:
REMARK  status: ('A' for Active; 'I' for Inactive)
REMARK    1  A    between atoms: C2_2  and  N1_3 
REMARK    2  A    between atoms: N1_3  and  C3_5 
REMARK    3  A    between atoms: C5_7  and  C6_8 
REMARK       I    between atoms: C6_8  and  N2_10 
REMARK    4  A    between atoms: N2_10  and  C7_12 
REMARK    5  A    between atoms: C7_12  and  C8_13 
REMARK    6  A    between atoms: C8_13  and  N3_14 
REMARK    7  A    between atoms: C12_20  and  N5_21 
REMARK    8  A    between atoms: N5_21  and  C13_23 
REMARK    9  A    between atoms: C13_23  and  C14_24 
REMARK   10  A    between atoms: C14_24  and  C15_25 
REMARK   11  A    between atoms: N6_28  and  O2_30 
ROOT
HETATM    1  C3  UNL     1      12.849 -11.720  22.143  1.00  0.00     0.119 A 
HETATM    2  C4  UNL     1      12.574 -13.091  22.236  1.00  0.00     0.084 A 
HETATM    3  C5  UNL     1      13.528 -13.999  21.820  1.00  0.00     0.120 A 
HETATM    4  N4  UNL     1      14.685 -13.526  21.342  1.00  0.00    -0.186 N 
ATOM      5  H4  UNL     1      15.391 -14.195  21.035  1.00  0.00     0.184 HD
HETATM    6  C12 UNL     1      14.971 -12.199  21.244  1.00  0.00     0.685 A 
HETATM    7  N7  UNL     1      14.034 -11.347  21.651  1.00  0.00    -0.177 N 
ATOM      8  H7  UNL     1      14.233 -10.349  21.584  1.00  0.00     0.186 HD
ENDROOT
BRANCH   6   9
HETATM    9  N5  UNL     1      16.113 -11.832  20.771  1.00  0.00    -0.179 N 
ATOM     10  H5  UNL     1      16.616 -11.055  21.201  1.00  0.00     0.185 HD
BRANCH   9  11
HETATM   11  C13 UNL     1      16.673 -12.503  19.653  1.00  0.00     0.117 C 
HETATM   12  N6  UNL     1      16.230 -12.243  18.475  1.00  0.00    -0.254 N 
ATOM     13  H6  UNL     1      15.483 -11.558  18.362  1.00  0.00     0.195 HD
BRANCH  11  14
HETATM   14  C14 UNL     1      17.758 -13.498  19.804  1.00  0.00     0.082 C 
BRANCH  14  15
HETATM   15  C15 UNL     1      18.923 -12.941  20.608  1.00  0.00    -0.016 C 
HETATM   16  C16 UNL     1      19.031 -13.563  21.964  1.00  0.00     0.010 C 
HETATM   17  C17 UNL     1      20.232 -13.159  19.882  1.00  0.00     0.010 C 
ENDBRANCH  14  15
ENDBRANCH  11  14
BRANCH  12  18
HETATM   18  O2  UNL     1      16.736 -12.860  17.381  1.00  0.00    -0.284 OA
HETATM   19  C18 UNL     1      17.107 -12.101  16.263  1.00  0.00     0.237 C 
ENDBRANCH  12  18
ENDBRANCH   9  11
ENDBRANCH   6   9
BRANCH   3  20
HETATM   20  C6  UNL     1      13.308 -15.432  21.887  1.00  0.00     0.268 C 
HETATM   21  O1  UNL     1      12.120 -15.860  21.717  1.00  0.00    -0.266 OA
HETATM   22  N2  UNL     1      14.352 -16.352  22.131  1.00  0.00    -0.354 N 
ATOM     23  H2  UNL     1      15.310 -16.030  22.270  1.00  0.00     0.162 HD
BRANCH  22  24
HETATM   24  C7  UNL     1      14.033 -17.761  22.181  1.00  0.00     0.151 C 
BRANCH  24  25
HETATM   25  C8  UNL     1      14.416 -18.476  20.906  1.00  0.00     0.255 C 
BRANCH  25  26
HETATM   26  N3  UNL     1      13.223 -19.136  20.403  1.00  0.00    -0.077 N 
HETATM   27  C9  UNL     1      12.251 -19.355  21.434  1.00  0.00     0.271 C 
HETATM   28  C10 UNL     1      12.712 -18.360  19.291  1.00  0.00     0.271 C 
HETATM   29  C11 UNL     1      13.580 -20.448  19.857  1.00  0.00     0.271 C 
ENDBRANCH  25  26
ENDBRANCH  24  25
ENDBRANCH  22  24
ENDBRANCH   3  20
BRANCH   1  30
HETATM   30  N1  UNL     1      11.946 -10.884  22.536  1.00  0.00    -0.376 N 
ATOM     31  H1  UNL     1      11.547 -10.227  21.865  1.00  0.00     0.161 HD
BRANCH  30  32
HETATM   32  C2  UNL     1      11.495 -10.859  23.895  1.00  0.00     0.116 C 
HETATM   33  C1  UNL     1      11.844  -9.518  24.531  1.00  0.00     0.026 C 
ENDBRANCH  30  32
ENDBRANCH   1  30
TORSDOF 11
ENDMDL
MODEL 3
REMARK VINA RESULT: -7.077902577      0.916      1.276
REMARK  11 active torsions:
REMARK  status: ('A' for Active; 'I' for Inactive)
REMARK    1  A    between atoms: C2_2  and  N1_3 
REMARK    2  A    between atoms: N1_3  and  C3_5 
REMARK    3  A    between atoms: C5_7  and  C6_8 
REMARK       I    between atoms: C6_8  and  N2_10 
REMARK    4  A    between atoms: N2_10  and  C7_12 
REMARK    5  A    between atoms: C7_12  and  C8_13 
REMARK    6  A    between atoms: C8_13  and  N3_14 
REMARK    7  A    between atoms: C12_20  and  N5_21 
REMARK    8  A    between atoms: N5_21  and  C13_23 
REMARK    9  A    between atoms: C13_23  and  C14_24 
REMARK   10  A    between atoms: C14_24  and  C15_25 
REMARK   11  A    between atoms: N6_28  and  O2_30 
ROOT
HETATM    1  C3  UNL     1      12.733 -11.485  22.149  1.00  0.00     0.119 A 
HETATM    2  C4  UNL     1      12.286 -12.809  22.046  1.00  0.00     0.084 A 
HETATM    3  C5  UNL     1      13.133 -13.766  21.522  1.00  0.00     0.120 A 
HETATM    4  N4  UNL     1      14.355 -13.384  21.132  1.00  0.00    -0.186 N 
ATOM      5  H4  UNL     1      14.981 -14.090  20.746  1.00  0.00     0.184 HD
HETATM    6  C12 UNL     1      14.807 -12.105  21.224  1.00  0.00     0.685 A 
HETATM    7  N7  UNL     1      13.971 -11.203  21.732  1.00  0.00    -0.177 N 
ATOM      8  H7  UNL     1      14.294 -10.239  21.807  1.00  0.00     0.186 HD
ENDROOT
BRANCH   6   9
HETATM    9  N5  UNL     1      16.001 -11.825  20.824  1.00  0.00    -0.179 N 
ATOM     10  H5  UNL     1      16.536 -11.094  21.293  1.00  0.00     0.185 HD
BRANCH   9  11
HETATM   11  C13 UNL     1      16.572 -12.531  19.734  1.00  0.00     0.117 C 
HETATM   12  N6  UNL     1      16.188 -12.261  18.538  1.00  0.00    -0.254 N 
ATOM     13  H6  UNL     1      15.478 -11.544  18.391  1.00  0.00     0.195 HD
BRANCH  11  14
HETATM   14  C14 UNL     1      17.604 -13.572  19.934  1.00  0.00     0.082 C 
BRANCH  14  15
HETATM   15  C15 UNL     1      18.841 -13.013  20.622  1.00  0.00    -0.016 C 
HETATM   16  C16 UNL     1      19.061 -13.611  21.976  1.00  0.00     0.010 C 
HETATM   17  C17 UNL     1      20.079 -13.259  19.789  1.00  0.00     0.010 C 
ENDBRANCH  14  15
ENDBRANCH  11  14
BRANCH  12  18
HETATM   18  O2  UNL     1      16.707 -12.911  17.468  1.00  0.00    -0.284 OA
HETATM   19  C18 UNL     1      17.095 -12.184  16.335  1.00  0.00     0.237 C 
ENDBRANCH  12  18
ENDBRANCH   9  11
ENDBRANCH   6   9
BRANCH   3  20
HETATM   20  C6  UNL     1      12.734 -15.155  21.386  1.00  0.00     0.268 C 
HETATM   21  O1  UNL     1      12.742 -15.881  22.433  1.00  0.00    -0.266 OA
HETATM   22  N2  UNL     1      12.342 -15.718  20.151  1.00  0.00    -0.354 N 
ATOM     23  H2  UNL     1      12.328 -15.153  19.302  1.00  0.00     0.162 HD
BRANCH  22  24
HETATM   24  C7  UNL     1      11.962 -17.112  20.117  1.00  0.00     0.151 C 
BRANCH  24  25
HETATM   25  C8  UNL     1      13.054 -17.986  19.548  1.00  0.00     0.255 C 
BRANCH  25  26
HETATM   26  N3  UNL     1      13.343 -19.017  20.530  1.00  0.00    -0.077 N 
HETATM   27  C9  UNL     1      14.512 -18.714  21.303  1.00  0.00     0.271 C 
HETATM   28  C10 UNL     1      12.157 -19.215  21.339  1.00  0.00     0.271 C 
HETATM   29  C11 UNL     1      13.591 -20.290  19.848  1.00  0.00     0.271 C 
ENDBRANCH  25  26
ENDBRANCH  24  25
ENDBRANCH  22  24
ENDBRANCH   3  20
BRANCH   1  30
HETATM   30  N1  UNL     1      11.929 -10.601  22.642  1.00  0.00    -0.376 N 
ATOM     31  H1  UNL     1      11.526  -9.894  22.026  1.00  0.00     0.161 HD
BRANCH  30  32
HETATM   32  C2  UNL     1      11.592 -10.594  24.033  1.00  0.00     0.116 C 
HETATM   33  C1  UNL     1      11.949  -9.243  24.644  1.00  0.00     0.026 C 
ENDBRANCH  30  32
ENDBRANCH   1  30
TORSDOF 11
ENDMDL
MODEL 4
REMARK VINA RESULT: -6.945076679      1.473      1.880
REMARK  11 active torsions:
REMARK  status: ('A' for Active; 'I' for Inactive)
REMARK    1  A    between atoms: C2_2  and  N1_3 
REMARK    2  A    between atoms: N1_3  and  C3_5 
REMARK    3  A    between atoms: C5_7  and  C6_8 
REMARK       I    between atoms: C6_8  and  N2_10 
REMARK    4  A    between atoms: N2_10  and  C7_12 
REMARK    5  A    between atoms: C7_12  and  C8_13 
REMARK    6  A    between atoms: C8_13  and  N3_14 
REMARK    7  A    between atoms: C12_20  and  N5_21 
REMARK    8  A    between atoms: N5_21  and  C13_23 
REMARK    9  A    between atoms: C13_23  and  C14_24 
REMARK   10  A    between atoms: C14_24  and  C15_25 
REMARK   11  A    between atoms: N6_28  and  O2_30 
ROOT
HETATM    1  C3  UNL     1      12.888 -12.606  21.939  1.00  0.00     0.119 A 
HETATM    2  C4  UNL     1      12.368 -13.906  21.882  1.00  0.00     0.084 A 
HETATM    3  C5  UNL     1      13.238 -14.977  21.822  1.00  0.00     0.120 A 
HETATM    4  N4  UNL     1      14.553 -14.725  21.821  1.00  0.00    -0.186 N 
ATOM      5  H4  UNL     1      15.195 -15.516  21.778  1.00  0.00     0.184 HD
HETATM    6  C12 UNL     1      15.077 -13.471  21.876  1.00  0.00     0.685 A 
HETATM    7  N7  UNL     1      14.216 -12.458  21.933  1.00  0.00    -0.177 N 
ATOM      8  H7  UNL     1      14.594 -11.511  21.974  1.00  0.00     0.186 HD
ENDROOT
BRANCH   6   9
HETATM    9  N5  UNL     1      16.358 -13.321  21.871  1.00  0.00    -0.179 N 
ATOM     10  H5  UNL     1      16.907 -13.611  22.681  1.00  0.00     0.185 HD
BRANCH   9  11
HETATM   11  C13 UNL     1      17.006 -12.753  20.744  1.00  0.00     0.117 C 
HETATM   12  N6  UNL     1      16.323 -12.506  19.683  1.00  0.00    -0.254 N 
ATOM     13  H6  UNL     1      15.327 -12.723  19.668  1.00  0.00     0.195 HD
BRANCH  11  14
HETATM   14  C14 UNL     1      18.450 -12.433  20.754  1.00  0.00     0.082 C 
BRANCH  14  15
HETATM   15  C15 UNL     1      19.293 -13.627  20.332  1.00  0.00    -0.016 C 
HETATM   16  C16 UNL     1      20.420 -13.240  19.427  1.00  0.00     0.010 C 
HETATM   17  C17 UNL     1      19.875 -14.329  21.539  1.00  0.00     0.010 C 
ENDBRANCH  14  15
ENDBRANCH  11  14
BRANCH  12  18
HETATM   18  O2  UNL     1      16.902 -11.965  18.584  1.00  0.00    -0.284 OA
HETATM   19  C18 UNL     1      16.883 -12.666  17.372  1.00  0.00     0.237 C 
ENDBRANCH  12  18
ENDBRANCH   9  11
ENDBRANCH   6   9
BRANCH   3  20
HETATM   20  C6  UNL     1      12.766 -16.348  21.760  1.00  0.00     0.268 C 
HETATM   21  O1  UNL     1      13.207 -17.168  22.629  1.00  0.00    -0.266 OA
HETATM   22  N2  UNL     1      11.848 -16.795  20.784  1.00  0.00    -0.354 N 
ATOM     23  H2  UNL     1      11.482 -16.154  20.080  1.00  0.00     0.162 HD
BRANCH  22  24
HETATM   24  C7  UNL     1      11.438 -18.181  20.805  1.00  0.00     0.151 C 
BRANCH  24  25
HETATM   25  C8  UNL     1      11.967 -18.949  19.616  1.00  0.00     0.255 C 
BRANCH  25  26
HETATM   26  N3  UNL     1      12.801 -20.022  20.128  1.00  0.00    -0.077 N 
HETATM   27  C9  UNL     1      12.412 -20.426  21.449  1.00  0.00     0.271 C 
HETATM   28  C10 UNL     1      12.781 -21.108  19.170  1.00  0.00     0.271 C 
HETATM   29  C11 UNL     1      14.192 -19.569  20.206  1.00  0.00     0.271 C 
ENDBRANCH  25  26
ENDBRANCH  24  25
ENDBRANCH  22  24
ENDBRANCH   3  20
BRANCH   1  30
HETATM   30  N1  UNL     1      12.062 -11.614  21.995  1.00  0.00    -0.376 N 
ATOM     31  H1  UNL     1      11.300 -11.560  21.318  1.00  0.00     0.161 HD
BRANCH  30  32
HETATM   32  C2  UNL     1      12.193 -10.590  22.986  1.00  0.00     0.116 C 
HETATM   33  C1  UNL     1      11.358 -10.947  24.211  1.00  0.00     0.026 C 
ENDBRANCH  30  32
ENDBRANCH   1  30
TORSDOF 11
ENDMDL
MODEL 5
REMARK VINA RESULT: -6.908872651      1.269      2.385
REMARK  11 active torsions:
REMARK  status: ('A' for Active; 'I' for Inactive)
REMARK    1  A    between atoms: C2_2  and  N1_3 
REMARK    2  A    between atoms: N1_3  and  C3_5 
REMARK    3  A    between atoms: C5_7  and  C6_8 
REMARK       I    between atoms: C6_8  and  N2_10 
REMARK    4  A    between atoms: N2_10  and  C7_12 
REMARK    5  A    between atoms: C7_12  and  C8_13 
REMARK    6  A    between atoms: C8_13  and  N3_14 
REMARK    7  A    between atoms: C12_20  and  N5_21 
REMARK    8  A    between atoms: N5_21  and  C13_23 
REMARK    9  A    between atoms: C13_23  and  C14_24 
REMARK   10  A    between atoms: C14_24  and  C15_25 
REMARK   11  A    between atoms: N6_28  and  O2_30 
ROOT
HETATM    1  C3  UNL     1      12.898 -11.038  22.110  1.00  0.00     0.119 A 
HETATM    2  C4  UNL     1      12.344 -12.309  21.914  1.00  0.00     0.084 A 
HETATM    3  C5  UNL     1      13.065 -13.258  21.215  1.00  0.00     0.120 A 
HETATM    4  N4  UNL     1      14.274 -12.918  20.752  1.00  0.00    -0.186 N 
ATOM      5  H4  UNL     1      14.808 -13.618  20.237  1.00  0.00     0.184 HD
HETATM    6  C12 UNL     1      14.829 -11.690  20.932  1.00  0.00     0.685 A 
HETATM    7  N7  UNL     1      14.113 -10.795  21.608  1.00  0.00    -0.177 N 
ATOM      8  H7  UNL     1      14.515  -9.869  21.752  1.00  0.00     0.186 HD
ENDROOT
BRANCH   6   9
HETATM    9  N5  UNL     1      16.001 -11.448  20.451  1.00  0.00    -0.179 N 
ATOM     10  H5  UNL     1      16.199 -10.544  20.022  1.00  0.00     0.185 HD
BRANCH   9  11
HETATM   11  C13 UNL     1      17.017 -12.436  20.516  1.00  0.00     0.117 C 
HETATM   12  N6  UNL     1      17.524 -12.744  21.656  1.00  0.00    -0.254 N 
ATOM     13  H6  UNL     1      17.188 -12.273  22.496  1.00  0.00     0.195 HD
BRANCH  11  14
HETATM   14  C14 UNL     1      17.512 -13.127  19.305  1.00  0.00     0.082 C 
BRANCH  14  15
HETATM   15  C15 UNL     1      16.589 -12.908  18.116  1.00  0.00    -0.016 C 
HETATM   16  C16 UNL     1      17.324 -12.436  16.901  1.00  0.00     0.010 C 
HETATM   17  C17 UNL     1      15.857 -14.183  17.760  1.00  0.00     0.010 C 
ENDBRANCH  14  15
ENDBRANCH  11  14
BRANCH  12  18
HETATM   18  O2  UNL     1      18.496 -13.682  21.764  1.00  0.00    -0.284 OA
HETATM   19  C18 UNL     1      18.493 -14.565  22.852  1.00  0.00     0.237 C 
ENDBRANCH  12  18
ENDBRANCH   9  11
ENDBRANCH   6   9
BRANCH   3  20
HETATM   20  C6  UNL     1      12.550 -14.593  20.975  1.00  0.00     0.268 C 
HETATM   21  O1  UNL     1      11.809 -14.770  19.954  1.00  0.00    -0.266 OA
HETATM   22  N2  UNL     1      12.841 -15.686  21.823  1.00  0.00    -0.354 N 
ATOM     23  H2  UNL     1      13.433 -15.565  22.645  1.00  0.00     0.162 HD
BRANCH  22  24
HETATM   24  C7  UNL     1      12.281 -16.978  21.500  1.00  0.00     0.151 C 
BRANCH  24  25
HETATM   25  C8  UNL     1      13.285 -17.880  20.822  1.00  0.00     0.255 C 
BRANCH  25  26
HETATM   26  N3  UNL     1      12.698 -18.321  19.569  1.00  0.00    -0.077 N 
HETATM   27  C9  UNL     1      11.265 -18.254  19.591  1.00  0.00     0.271 C 
HETATM   28  C10 UNL     1      13.290 -17.549  18.495  1.00  0.00     0.271 C 
HETATM   29  C11 UNL     1      13.063 -19.718  19.319  1.00  0.00     0.271 C 
ENDBRANCH  25  26
ENDBRANCH  24  25
ENDBRANCH  22  24
ENDBRANCH   3  20
BRANCH   1  30
HETATM   30  N1  UNL     1      12.211 -10.162  22.766  1.00  0.00    -0.376 N 
ATOM     31  H1  UNL     1      11.929  -9.298  22.301  1.00  0.00     0.161 HD
BRANCH  30  32
HETATM   32  C2  UNL     1      11.838 -10.378  24.131  1.00  0.00     0.116 C 
HETATM   33  C1  UNL     1      11.792  -9.044  24.871  1.00  0.00     0.026 C 
ENDBRANCH  30  32
ENDBRANCH   1  30
TORSDOF 11
ENDMDL
