MODEL 1
REMARK VINA RESULT: -7.409590493      0.000      0.000
REMARK  8 active torsions:
REMARK  status: ('A' for Active; 'I' for Inactive)
REMARK    1  A    between atoms: C2_2  and  N1_3 
REMARK       I    between atoms: N1_3  and  C3_4 
REMARK    2  A    between atoms: N1_3  and  S1_26 
REMARK    3  A    between atoms: N3_6  and  C4_8 
REMARK    4  A    between atoms: C4_8  and  C5_9 
REMARK    5  A    between atoms: C5_9  and  C6_10 
REMARK    6  A    between atoms: C6_10  and  C7_11 
REMARK    7  A    between atoms: C7_11  and  C10_14 
REMARK       I    between atoms: C10_14  and  N4_16 
REMARK    8  A    between atoms: N4_16  and  C11_18 
ROOT
HETATM    1  C7  UNL     1      18.647 -15.779  22.260  1.00  0.00     0.034 C 
HETATM    2  C8  UNL     1      18.014 -17.074  21.878  1.00  0.00     0.025 C 
HETATM    3  C9  UNL     1      17.810 -15.177  23.390  1.00  0.00     0.025 C 
ENDROOT
BRANCH   1   4
HETATM    4  C6  UNL     1      18.632 -14.765  21.140  1.00  0.00     0.020 C 
BRANCH   4   5
HETATM    5  C5  UNL     1      19.146 -13.422  21.579  1.00  0.00     0.021 C 
BRANCH   5   6
HETATM    6  C4  UNL     1      18.328 -12.352  20.882  1.00  0.00     0.122 C 
BRANCH   6   7
HETATM    7  N3  UNL     1      16.969 -12.342  21.370  1.00  0.00    -0.364 N 
HETATM    8  C3  UNL     1      15.942 -12.260  20.605  1.00  0.00     0.199 C 
HETATM    9  N1  UNL     1      14.648 -12.256  21.169  1.00  0.00    -0.250 N 
HETATM   10  N2  UNL     1      16.104 -12.174  19.211  1.00  0.00    -0.063 NA
ATOM     11  H3  UNL     1      16.817 -12.403  22.376  1.00  0.00     0.162 HD
BRANCH   9  12
HETATM   12  C2  UNL     1      14.123 -11.003  21.663  1.00  0.00     0.140 C 
HETATM   13  C1  UNL     1      13.166 -10.413  20.663  1.00  0.00     0.028 C 
ENDBRANCH   9  12
BRANCH   9  14
HETATM   14  S1  UNL     1      13.667 -13.659  21.299  1.00  0.00     0.231 S 
HETATM   15  C16 UNL     1      14.634 -15.147  21.343  1.00  0.00     0.186 C 
HETATM   16  O3  UNL     1      12.933 -13.571  22.622  1.00  0.00    -0.206 OA
HETATM   17  O4  UNL     1      12.625 -13.722  20.224  1.00  0.00    -0.206 OA
ENDBRANCH   9  14
ENDBRANCH   6   7
ENDBRANCH   5   6
ENDBRANCH   4   5
ENDBRANCH   1   4
BRANCH   1  18
HETATM   18  C10 UNL     1      20.014 -16.052  22.747  1.00  0.00     0.226 C 
HETATM   19  O1  UNL     1      20.893 -16.439  21.949  1.00  0.00    -0.273 OA
HETATM   20  N4  UNL     1      20.348 -15.882  24.110  1.00  0.00    -0.345 N 
ATOM     21  H4  UNL     1      19.614 -15.564  24.743  1.00  0.00     0.163 HD
BRANCH  20  22
HETATM   22  C11 UNL     1      21.648 -16.124  24.665  1.00  0.00     0.204 C 
HETATM   23  C12 UNL     1      21.692 -16.779  25.976  1.00  0.00     0.243 C 
HETATM   24  O2  UNL     1      21.102 -17.673  26.635  1.00  0.00    -0.271 OA
HETATM   25  N5  UNL     1      22.792 -15.941  26.317  1.00  0.00    -0.348 N 
HETATM   26  C13 UNL     1      22.232 -14.941  25.439  1.00  0.00     0.054 C 
ATOM     27  H5  UNL     1      23.614 -16.014  26.916  1.00  0.00     0.163 HD
HETATM   28  C14 UNL     1      23.216 -14.156  24.632  1.00  0.00     0.041 C 
HETATM   29  C15 UNL     1      21.197 -14.105  26.143  1.00  0.00     0.041 C 
ENDBRANCH  20  22
ENDBRANCH   1  18
TORSDOF 8
ENDMDL
MODEL 2
REMARK VINA RESULT: -7.268749445      2.979      3.722
REMARK  8 active torsions:
REMARK  status: ('A' for Active; 'I' for Inactive)
REMARK    1  A    between atoms: C2_2  and  N1_3 
REMARK       I    between atoms: N1_3  and  C3_4 
REMARK    2  A    between atoms: N1_3  and  S1_26 
REMARK    3  A    between atoms: N3_6  and  C4_8 
REMARK    4  A    between atoms: C4_8  and  C5_9 
REMARK    5  A    between atoms: C5_9  and  C6_10 
REMARK    6  A    between atoms: C6_10  and  C7_11 
REMARK    7  A    between atoms: C7_11  and  C10_14 
REMARK       I    between atoms: C10_14  and  N4_16 
REMARK    8  A    between atoms: N4_16  and  C11_18 
ROOT
HETATM    1  C7  UNL     1      20.362 -14.686  22.490  1.00  0.00     0.034 C 
HETATM    2  C8  UNL     1      20.205 -16.020  21.842  1.00  0.00     0.025 C 
HETATM    3  C9  UNL     1      18.982 -14.255  22.989  1.00  0.00     0.025 C 
ENDROOT
BRANCH   1   4
HETATM    4  C6  UNL     1      20.813 -13.613  21.526  1.00  0.00     0.020 C 
BRANCH   4   5
HETATM    5  C5  UNL     1      20.179 -13.760  20.171  1.00  0.00     0.021 C 
BRANCH   5   6
HETATM    6  C4  UNL     1      19.024 -12.782  20.081  1.00  0.00     0.122 C 
BRANCH   6   7
HETATM    7  N3  UNL     1      18.110 -13.159  19.027  1.00  0.00    -0.364 N 
HETATM    8  C3  UNL     1      16.887 -12.775  18.980  1.00  0.00     0.199 C 
HETATM    9  N1  UNL     1      16.064 -13.191  17.912  1.00  0.00    -0.250 N 
HETATM   10  N2  UNL     1      16.368 -11.941  19.986  1.00  0.00    -0.063 NA
ATOM     11  H3  UNL     1      18.455 -13.762  18.282  1.00  0.00     0.162 HD
BRANCH   9  12
HETATM   12  C2  UNL     1      15.436 -14.490  18.001  1.00  0.00     0.140 C 
HETATM   13  C1  UNL     1      14.193 -14.407  18.846  1.00  0.00     0.028 C 
ENDBRANCH   9  12
BRANCH   9  14
HETATM   14  S1  UNL     1      15.769 -12.239  16.514  1.00  0.00     0.231 S 
HETATM   15  C16 UNL     1      15.669 -13.227  15.043  1.00  0.00     0.186 C 
HETATM   16  O3  UNL     1      14.414 -11.583  16.697  1.00  0.00    -0.206 OA
HETATM   17  O4  UNL     1      16.772 -11.136  16.359  1.00  0.00    -0.206 OA
ENDBRANCH   9  14
ENDBRANCH   6   7
ENDBRANCH   5   6
ENDBRANCH   4   5
ENDBRANCH   1   4
BRANCH   1  18
HETATM   18  C10 UNL     1      21.282 -14.828  23.636  1.00  0.00     0.226 C 
HETATM   19  O1  UNL     1      21.059 -14.204  24.695  1.00  0.00    -0.273 OA
HETATM   20  N4  UNL     1      22.419 -15.665  23.557  1.00  0.00    -0.345 N 
ATOM     21  H4  UNL     1      22.579 -16.165  22.683  1.00  0.00     0.163 HD
BRANCH  20  22
HETATM   22  C11 UNL     1      23.360 -15.860  24.621  1.00  0.00     0.204 C 
HETATM   23  C12 UNL     1      24.603 -16.559  24.278  1.00  0.00     0.243 C 
HETATM   24  O2  UNL     1      25.441 -16.648  23.345  1.00  0.00    -0.271 OA
HETATM   25  N5  UNL     1      24.543 -17.209  25.544  1.00  0.00    -0.348 N 
HETATM   26  C13 UNL     1      23.104 -17.109  25.466  1.00  0.00     0.054 C 
ATOM     27  H5  UNL     1      25.217 -17.581  26.212  1.00  0.00     0.163 HD
HETATM   28  C14 UNL     1      22.401 -16.800  26.748  1.00  0.00     0.041 C 
HETATM   29  C15 UNL     1      22.512 -18.256  24.692  1.00  0.00     0.041 C 
ENDBRANCH  20  22
ENDBRANCH   1  18
TORSDOF 8
ENDMDL
MODEL 3
REMARK VINA RESULT: -7.186814011      1.594      2.125
REMARK  8 active torsions:
REMARK  status: ('A' for Active; 'I' for Inactive)
REMARK    1  A    between atoms: C2_2  and  N1_3 
REMARK       I    between atoms: N1_3  and  C3_4 
REMARK    2  A    between atoms: N1_3  and  S1_26 
REMARK    3  A    between atoms: N3_6  and  C4_8 
REMARK    4  A    between atoms: C4_8  and  C5_9 
REMARK    5  A    between atoms: C5_9  and  C6_10 
REMARK    6  A    between atoms: C6_10  and  C7_11 
REMARK    7  A    between atoms: C7_11  and  C10_14 
REMARK       I    between atoms: C10_14  and  N4_16 
REMARK    8  A    between atoms: N4_16  and  C11_18 
ROOT
HETATM    1  C7  UNL     1      20.101 -15.150  22.439  1.00  0.00     0.034 C 
HETATM    2  C8  UNL     1      20.380 -16.376  21.636  1.00  0.00     0.025 C 
HETATM    3  C9  UNL     1      18.690 -15.288  23.010  1.00  0.00     0.025 C 
ENDROOT
BRANCH   1   4
HETATM    4  C6  UNL     1      20.096 -13.890  21.605  1.00  0.00     0.020 C 
BRANCH   4   5
HETATM    5  C5  UNL     1      18.878 -13.790  20.729  1.00  0.00     0.021 C 
BRANCH   5   6
HETATM    6  C4  UNL     1      18.333 -12.380  20.835  1.00  0.00     0.122 C 
BRANCH   6   7
HETATM    7  N3  UNL     1      16.981 -12.385  21.343  1.00  0.00    -0.364 N 
HETATM    8  C3  UNL     1      15.944 -12.275  20.597  1.00  0.00     0.199 C 
HETATM    9  N1  UNL     1      14.658 -12.291  21.180  1.00  0.00    -0.250 N 
HETATM   10  N2  UNL     1      16.085 -12.141  19.205  1.00  0.00    -0.063 NA
ATOM     11  H3  UNL     1      16.844 -12.482  22.349  1.00  0.00     0.162 HD
BRANCH   9  12
HETATM   12  C2  UNL     1      14.142 -11.055  21.726  1.00  0.00     0.140 C 
HETATM   13  C1  UNL     1      13.229 -10.392  20.731  1.00  0.00     0.028 C 
ENDBRANCH   9  12
BRANCH   9  14
HETATM   14  S1  UNL     1      13.676 -13.696  21.274  1.00  0.00     0.231 S 
HETATM   15  C16 UNL     1      14.643 -15.185  21.272  1.00  0.00     0.186 C 
HETATM   16  O3  UNL     1      12.949 -13.645  22.604  1.00  0.00    -0.206 OA
HETATM   17  O4  UNL     1      12.630 -13.728  20.203  1.00  0.00    -0.206 OA
ENDBRANCH   9  14
ENDBRANCH   6   7
ENDBRANCH   5   6
ENDBRANCH   4   5
ENDBRANCH   1   4
BRANCH   1  18
HETATM   18  C10 UNL     1      21.079 -15.083  23.544  1.00  0.00     0.226 C 
HETATM   19  O1  UNL     1      20.961 -14.208  24.428  1.00  0.00    -0.273 OA
HETATM   20  N4  UNL     1      22.154 -15.999  23.621  1.00  0.00    -0.345 N 
ATOM     21  H4  UNL     1      22.229 -16.704  22.888  1.00  0.00     0.163 HD
BRANCH  20  22
HETATM   22  C11 UNL     1      23.145 -16.003  24.657  1.00  0.00     0.204 C 
HETATM   23  C12 UNL     1      24.433 -16.626  24.333  1.00  0.00     0.243 C 
HETATM   24  O2  UNL     1      25.243 -16.737  23.378  1.00  0.00    -0.271 OA
HETATM   25  N5  UNL     1      24.473 -17.147  25.658  1.00  0.00    -0.348 N 
HETATM   26  C13 UNL     1      23.029 -17.177  25.631  1.00  0.00     0.054 C 
ATOM     27  H5  UNL     1      25.200 -17.390  26.329  1.00  0.00     0.163 HD
HETATM   28  C14 UNL     1      22.346 -16.800  26.906  1.00  0.00     0.041 C 
HETATM   29  C15 UNL     1      22.516 -18.443  25.000  1.00  0.00     0.041 C 
ENDBRANCH  20  22
ENDBRANCH   1  18
TORSDOF 8
ENDMDL
MODEL 4
REMARK VINA RESULT: -7.155379112      1.251      1.665
REMARK  8 active torsions:
REMARK  status: ('A' for Active; 'I' for Inactive)
REMARK    1  A    between atoms: C2_2  and  N1_3 
REMARK       I    between atoms: N1_3  and  C3_4 
REMARK    2  A    between atoms: N1_3  and  S1_26 
REMARK    3  A    between atoms: N3_6  and  C4_8 
REMARK    4  A    between atoms: C4_8  and  C5_9 
REMARK    5  A    between atoms: C5_9  and  C6_10 
REMARK    6  A    between atoms: C6_10  and  C7_11 
REMARK    7  A    between atoms: C7_11  and  C10_14 
REMARK       I    between atoms: C10_14  and  N4_16 
REMARK    8  A    between atoms: N4_16  and  C11_18 
ROOT
HETATM    1  C7  UNL     1      19.063 -15.296  22.082  1.00  0.00     0.034 C 
HETATM    2  C8  UNL     1      20.166 -15.259  21.079  1.00  0.00     0.025 C 
HETATM    3  C9  UNL     1      17.985 -16.236  21.541  1.00  0.00     0.025 C 
ENDROOT
BRANCH   1   4
HETATM    4  C6  UNL     1      18.395 -13.953  22.270  1.00  0.00     0.020 C 
BRANCH   4   5
HETATM    5  C5  UNL     1      18.939 -12.909  21.334  1.00  0.00     0.021 C 
BRANCH   5   6
HETATM    6  C4  UNL     1      17.816 -12.463  20.419  1.00  0.00     0.122 C 
BRANCH   6   7
HETATM    7  N3  UNL     1      16.550 -12.468  21.114  1.00  0.00    -0.364 N 
HETATM    8  C3  UNL     1      15.418 -12.344  20.525  1.00  0.00     0.199 C 
HETATM    9  N1  UNL     1      14.228 -12.360  21.285  1.00  0.00    -0.250 N 
HETATM   10  N2  UNL     1      15.360 -12.193  19.128  1.00  0.00    -0.063 NA
ATOM     11  H3  UNL     1      16.557 -12.576  22.128  1.00  0.00     0.162 HD
BRANCH   9  12
HETATM   12  C2  UNL     1      13.803 -11.129  21.912  1.00  0.00     0.140 C 
HETATM   13  C1  UNL     1      12.697 -10.495  21.113  1.00  0.00     0.028 C 
ENDBRANCH   9  12
BRANCH   9  14
HETATM   14  S1  UNL     1      13.260 -13.762  21.502  1.00  0.00     0.231 S 
HETATM   15  C16 UNL     1      14.235 -15.245  21.541  1.00  0.00     0.186 C 
HETATM   16  O3  UNL     1      12.593 -13.638  22.857  1.00  0.00    -0.206 OA
HETATM   17  O4  UNL     1      12.168 -13.858  20.482  1.00  0.00    -0.206 OA
ENDBRANCH   9  14
ENDBRANCH   6   7
ENDBRANCH   5   6
ENDBRANCH   4   5
ENDBRANCH   1   4
BRANCH   1  18
HETATM   18  C10 UNL     1      19.600 -15.834  23.348  1.00  0.00     0.226 C 
HETATM   19  O1  UNL     1      19.434 -17.039  23.633  1.00  0.00    -0.273 OA
HETATM   20  N4  UNL     1      20.305 -15.004  24.250  1.00  0.00    -0.345 N 
ATOM     21  H4  UNL     1      20.428 -14.024  23.995  1.00  0.00     0.163 HD
BRANCH  20  22
HETATM   22  C11 UNL     1      20.857 -15.444  25.498  1.00  0.00     0.204 C 
HETATM   23  C12 UNL     1      21.282 -14.398  26.434  1.00  0.00     0.243 C 
HETATM   24  O2  UNL     1      20.934 -13.261  26.841  1.00  0.00    -0.271 OA
HETATM   25  N5  UNL     1      22.392 -15.218  26.788  1.00  0.00    -0.348 N 
HETATM   26  C13 UNL     1      22.355 -15.752  25.447  1.00  0.00     0.054 C 
ATOM     27  H5  UNL     1      22.962 -15.363  27.621  1.00  0.00     0.163 HD
HETATM   28  C14 UNL     1      22.636 -17.215  25.320  1.00  0.00     0.041 C 
HETATM   29  C15 UNL     1      23.122 -14.886  24.485  1.00  0.00     0.041 C 
ENDBRANCH  20  22
ENDBRANCH   1  18
TORSDOF 8
ENDMDL
MODEL 5
REMARK VINA RESULT: -7.100998541      1.780      2.520
REMARK  8 active torsions:
REMARK  status: ('A' for Active; 'I' for Inactive)
REMARK    1  A    between atoms: C2_2  and  N1_3 
REMARK       I    between atoms: N1_3  and  C3_4 
REMARK    2  A    between atoms: N1_3  and  S1_26 
REMARK    3  A    between atoms: N3_6  and  C4_8 
REMARK    4  A    between atoms: C4_8  and  C5_9 
REMARK    5  A    between atoms: C5_9  and  C6_10 
REMARK    6  A    between atoms: C6_10  and  C7_11 
REMARK    7  A    between atoms: C7_11  and  C10_14 
REMARK       I    between atoms: C10_14  and  N4_16 
REMARK    8  A    between atoms: N4_16  and  C11_18 
ROOT
HETATM    1  C7  UNL     1      20.024 -14.223  21.882  1.00  0.00     0.034 C 
HETATM    2  C8  UNL     1      20.962 -13.613  20.896  1.00  0.00     0.025 C 
HETATM    3  C9  UNL     1      19.622 -15.596  21.342  1.00  0.00     0.025 C 
ENDROOT
BRANCH   1   4
HETATM    4  C6  UNL     1      18.741 -13.440  22.035  1.00  0.00     0.020 C 
BRANCH   4   5
HETATM    5  C5  UNL     1      18.566 -12.413  20.952  1.00  0.00     0.021 C 
BRANCH   5   6
HETATM    6  C4  UNL     1      17.335 -12.778  20.147  1.00  0.00     0.122 C 
BRANCH   6   7
HETATM    7  N3  UNL     1      16.134 -12.592  20.928  1.00  0.00    -0.364 N 
HETATM    8  C3  UNL     1      14.979 -12.381  20.412  1.00  0.00     0.199 C 
HETATM    9  N1  UNL     1      13.857 -12.210  21.253  1.00  0.00    -0.250 N 
HETATM   10  N2  UNL     1      14.829 -12.319  19.015  1.00  0.00    -0.063 NA
ATOM     11  H3  UNL     1      16.208 -12.632  21.944  1.00  0.00     0.162 HD
BRANCH   9  12
HETATM   12  C2  UNL     1      13.619 -10.899  21.813  1.00  0.00     0.140 C 
HETATM   13  C1  UNL     1      12.863 -10.046  20.831  1.00  0.00     0.028 C 
ENDBRANCH   9  12
BRANCH   9  14
HETATM   14  S1  UNL     1      12.764 -13.475  21.644  1.00  0.00     0.231 S 
HETATM   15  C16 UNL     1      11.437 -12.912  22.679  1.00  0.00     0.186 C 
HETATM   16  O3  UNL     1      12.141 -13.945  20.344  1.00  0.00    -0.206 OA
HETATM   17  O4  UNL     1      13.459 -14.656  22.248  1.00  0.00    -0.206 OA
ENDBRANCH   9  14
ENDBRANCH   6   7
ENDBRANCH   5   6
ENDBRANCH   4   5
ENDBRANCH   1   4
BRANCH   1  18
HETATM   18  C10 UNL     1      20.736 -14.384  23.166  1.00  0.00     0.226 C 
HETATM   19  O1  UNL     1      20.278 -13.857  24.202  1.00  0.00    -0.273 OA
HETATM   20  N4  UNL     1      21.934 -15.131  23.245  1.00  0.00    -0.345 N 
ATOM     21  H4  UNL     1      22.288 -15.552  22.386  1.00  0.00     0.163 HD
BRANCH  20  22
HETATM   22  C11 UNL     1      22.686 -15.336  24.448  1.00  0.00     0.204 C 
HETATM   23  C12 UNL     1      23.997 -15.978  24.303  1.00  0.00     0.243 C 
HETATM   24  O2  UNL     1      24.985 -16.000  23.527  1.00  0.00    -0.271 OA
HETATM   25  N5  UNL     1      23.746 -16.680  25.517  1.00  0.00    -0.348 N 
HETATM   26  C13 UNL     1      22.339 -16.626  25.193  1.00  0.00     0.054 C 
ATOM     27  H5  UNL     1      24.310 -17.055  26.278  1.00  0.00     0.163 HD
HETATM   28  C14 UNL     1      21.414 -16.393  26.345  1.00  0.00     0.041 C 
HETATM   29  C15 UNL     1      21.936 -17.760  24.291  1.00  0.00     0.041 C 
ENDBRANCH  20  22
ENDBRANCH   1  18
TORSDOF 8
ENDMDL
