MODEL 1
REMARK VINA RESULT: -7.939755977      0.000      0.000
REMARK  8 active torsions:
REMARK  status: ('A' for Active; 'I' for Inactive)
REMARK    1  A    between atoms: C3_5  and  C4_6 
REMARK    2  A    between atoms: C4_6  and  C5_7 
REMARK    3  A    between atoms: C5_7  and  C6_8 
REMARK    4  A    between atoms: N2_13  and  C9_14 
REMARK    5  A    between atoms: C9_14  and  C10_15 
REMARK    6  A    between atoms: C10_15  and  N3_16 
REMARK    7  A    between atoms: C13_20  and  C14_21 
REMARK    8  A    between atoms: C14_21  and  N4_22 
ROOT
HETATM    1  N3  UNL     1      16.148 -13.366  21.333  1.00  0.00    -0.375 N 
ATOM      2  H3  UNL     1      15.646 -13.956  21.998  1.00  0.00     0.161 HD
HETATM    3  C11 UNL     1      17.423 -13.468  21.270  1.00  0.00     0.103 A 
HETATM    4  C12 UNL     1      18.043 -14.371  22.105  1.00  0.00     0.075 A 
HETATM    5  C13 UNL     1      19.409 -14.564  22.111  1.00  0.00     0.032 A 
HETATM    6  N5  UNL     1      20.150 -13.842  21.272  1.00  0.00    -0.354 N 
ATOM      7  H5  UNL     1      21.164 -13.960  21.250  1.00  0.00     0.166 HD
HETATM    8  C18 UNL     1      19.546 -12.947  20.443  1.00  0.00     0.182 A 
HETATM    9  N6  UNL     1      18.206 -12.761  20.440  1.00  0.00    -0.339 N 
ATOM     10  H6  UNL     1      17.789 -12.081  19.804  1.00  0.00     0.168 HD
ENDROOT
BRANCH   1  11
HETATM   11  C10 UNL     1      15.383 -12.452  20.505  1.00  0.00     0.141 C 
BRANCH  11  12
HETATM   12  C9  UNL     1      14.078 -13.184  20.167  1.00  0.00     0.150 C 
BRANCH  12  13
HETATM   13  N2  UNL     1      13.152 -13.037  21.279  1.00  0.00    -0.338 N 
HETATM   14  C2  UNL     1      12.715 -14.044  22.064  1.00  0.00     0.080 A 
HETATM   15  C1  UNL     1      13.147 -15.463  21.890  1.00  0.00     0.089 C 
HETATM   16  N1  UNL     1      11.877 -13.552  22.978  1.00  0.00    -0.348 N 
HETATM   17  C3  UNL     1      11.755 -12.199  22.799  1.00  0.00     0.033 A 
ATOM     18  H1  UNL     1      11.401 -14.097  23.697  1.00  0.00     0.167 HD
HETATM   19  C7  UNL     1      12.559 -11.899  21.731  1.00  0.00     0.032 A 
HETATM   20  C8  UNL     1      12.795 -10.581  21.055  1.00  0.00     0.070 C 
BRANCH  17  21
HETATM   21  C4  UNL     1      10.962 -11.278  23.638  1.00  0.00     0.069 C 
BRANCH  21  22
HETATM   22  C5  UNL     1      11.691 -10.631  24.757  1.00  0.00     0.119 C 
BRANCH  22  23
HETATM   23  C6  UNL     1      12.058  -9.233  24.630  1.00  0.00     0.172 C 
HETATM   24  O1  UNL     1      11.227  -8.330  24.974  1.00  0.00    -0.648 OA
HETATM   25  O2  UNL     1      13.282  -8.782  24.147  1.00  0.00    -0.648 OA
ENDBRANCH  22  23
ENDBRANCH  21  22
ENDBRANCH  17  21
ENDBRANCH  12  13
ENDBRANCH  11  12
ENDBRANCH   1  11
BRANCH   5  26
HETATM   26  C14 UNL     1      20.053 -15.539  23.019  1.00  0.00     0.185 C 
BRANCH  26  27
HETATM   27  N4  UNL     1      20.681 -14.853  24.177  1.00  0.00    -0.354 N 
HETATM   28  C15 UNL     1      21.977 -14.701  24.254  1.00  0.00     0.098 A 
HETATM   29  C16 UNL     1      22.476 -14.057  25.356  1.00  0.00     0.068 A 
HETATM   30  S1  UNL     1      21.058 -13.699  26.235  1.00  0.00    -0.095 SA
HETATM   31  C17 UNL     1      19.924 -14.380  25.162  1.00  0.00     0.140 A 
ENDBRANCH  26  27
ENDBRANCH   5  26
TORSDOF 8
ENDMDL
MODEL 2
REMARK VINA RESULT: -7.605898327      3.693      8.531
REMARK  8 active torsions:
REMARK  status: ('A' for Active; 'I' for Inactive)
REMARK    1  A    between atoms: C3_5  and  C4_6 
REMARK    2  A    between atoms: C4_6  and  C5_7 
REMARK    3  A    between atoms: C5_7  and  C6_8 
REMARK    4  A    between atoms: N2_13  and  C9_14 
REMARK    5  A    between atoms: C9_14  and  C10_15 
REMARK    6  A    between atoms: C10_15  and  N3_16 
REMARK    7  A    between atoms: C13_20  and  C14_21 
REMARK    8  A    between atoms: C14_21  and  N4_22 
ROOT
HETATM    1  N3  UNL     1      15.984 -14.497  21.970  1.00  0.00    -0.375 N 
ATOM      2  H3  UNL     1      15.736 -14.869  22.887  1.00  0.00     0.161 HD
HETATM    3  C11 UNL     1      15.098 -13.842  21.317  1.00  0.00     0.103 A 
HETATM    4  C12 UNL     1      13.858 -13.680  21.893  1.00  0.00     0.075 A 
HETATM    5  C13 UNL     1      12.836 -12.986  21.279  1.00  0.00     0.032 A 
HETATM    6  N5  UNL     1      13.067 -12.456  20.079  1.00  0.00    -0.354 N 
ATOM      7  H5  UNL     1      12.333 -11.936  19.596  1.00  0.00     0.166 HD
HETATM    8  C18 UNL     1      14.290 -12.612  19.502  1.00  0.00     0.182 A 
HETATM    9  N6  UNL     1      15.290 -13.293  20.108  1.00  0.00    -0.339 N 
ATOM     10  H6  UNL     1      16.194 -13.389  19.643  1.00  0.00     0.168 HD
ENDROOT
BRANCH   1  11
HETATM   11  C10 UNL     1      17.325 -14.733  21.468  1.00  0.00     0.141 C 
BRANCH  11  12
HETATM   12  C9  UNL     1      18.124 -13.464  21.787  1.00  0.00     0.150 C 
BRANCH  12  13
HETATM   13  N2  UNL     1      19.488 -13.838  22.133  1.00  0.00    -0.338 N 
HETATM   14  C2  UNL     1      20.557 -13.713  21.321  1.00  0.00     0.080 A 
HETATM   15  C1  UNL     1      20.474 -13.153  19.939  1.00  0.00     0.089 C 
HETATM   16  N1  UNL     1      21.642 -14.155  21.958  1.00  0.00    -0.348 N 
HETATM   17  C3  UNL     1      21.290 -14.578  23.213  1.00  0.00     0.033 A 
ATOM     18  H1  UNL     1      22.587 -14.174  21.573  1.00  0.00     0.167 HD
HETATM   19  C7  UNL     1      19.939 -14.372  23.300  1.00  0.00     0.032 A 
HETATM   20  C8  UNL     1      18.996 -14.684  24.426  1.00  0.00     0.070 C 
BRANCH  17  21
HETATM   21  C4  UNL     1      22.209 -15.087  24.250  1.00  0.00     0.069 C 
BRANCH  21  22
HETATM   22  C5  UNL     1      22.506 -14.156  25.367  1.00  0.00     0.119 C 
BRANCH  22  23
HETATM   23  C6  UNL     1      21.858 -14.380  26.647  1.00  0.00     0.172 C 
HETATM   24  O1  UNL     1      22.102 -15.448  27.297  1.00  0.00    -0.648 OA
HETATM   25  O2  UNL     1      20.965 -13.494  27.241  1.00  0.00    -0.648 OA
ENDBRANCH  22  23
ENDBRANCH  21  22
ENDBRANCH  17  21
ENDBRANCH  12  13
ENDBRANCH  11  12
ENDBRANCH   1  11
BRANCH   5  26
HETATM   26  C14 UNL     1      11.511 -12.825  21.918  1.00  0.00     0.185 C 
BRANCH  26  27
HETATM   27  N4  UNL     1      11.562 -11.803  22.995  1.00  0.00    -0.354 N 
HETATM   28  C15 UNL     1      11.141 -12.068  24.203  1.00  0.00     0.098 A 
HETATM   29  C16 UNL     1      11.222 -11.070  25.138  1.00  0.00     0.068 A 
HETATM   30  S1  UNL     1      11.900  -9.789  24.237  1.00  0.00    -0.095 SA
HETATM   31  C17 UNL     1      12.041 -10.589  22.739  1.00  0.00     0.140 A 
ENDBRANCH  26  27
ENDBRANCH   5  26
TORSDOF 8
ENDMDL
MODEL 3
REMARK VINA RESULT: -7.467518193      4.203      8.811
REMARK  8 active torsions:
REMARK  status: ('A' for Active; 'I' for Inactive)
REMARK    1  A    between atoms: C3_5  and  C4_6 
REMARK    2  A    between atoms: C4_6  and  C5_7 
REMARK    3  A    between atoms: C5_7  and  C6_8 
REMARK    4  A    between atoms: N2_13  and  C9_14 
REMARK    5  A    between atoms: C9_14  and  C10_15 
REMARK    6  A    between atoms: C10_15  and  N3_16 
REMARK    7  A    between atoms: C13_20  and  C14_21 
REMARK    8  A    between atoms: C14_21  and  N4_22 
ROOT
HETATM    1  N3  UNL     1      16.465 -14.894  22.663  1.00  0.00    -0.375 N 
ATOM      2  H3  UNL     1      15.692 -15.430  23.059  1.00  0.00     0.161 HD
HETATM    3  C11 UNL     1      16.193 -13.866  21.950  1.00  0.00     0.103 A 
HETATM    4  C12 UNL     1      14.867 -13.543  21.759  1.00  0.00     0.075 A 
HETATM    5  C13 UNL     1      14.466 -12.453  21.016  1.00  0.00     0.032 A 
HETATM    6  N5  UNL     1      15.406 -11.687  20.463  1.00  0.00    -0.354 N 
ATOM      7  H5  UNL     1      15.144 -10.872  19.906  1.00  0.00     0.166 HD
HETATM    8  C18 UNL     1      16.718 -11.999  20.646  1.00  0.00     0.182 A 
HETATM    9  N6  UNL     1      17.108 -13.069  21.376  1.00  0.00    -0.339 N 
ATOM     10  H6  UNL     1      18.101 -13.271  21.492  1.00  0.00     0.168 HD
ENDROOT
BRANCH   1  11
HETATM   11  C10 UNL     1      17.821 -15.334  22.935  1.00  0.00     0.141 C 
BRANCH  11  12
HETATM   12  C9  UNL     1      17.808 -15.874  24.371  1.00  0.00     0.150 C 
BRANCH  12  13
HETATM   13  N2  UNL     1      19.127 -16.398  24.691  1.00  0.00    -0.338 N 
HETATM   14  C2  UNL     1      19.504 -17.686  24.555  1.00  0.00     0.080 A 
HETATM   15  C1  UNL     1      18.597 -18.754  24.039  1.00  0.00     0.089 C 
HETATM   16  N1  UNL     1      20.774 -17.811  24.943  1.00  0.00    -0.348 N 
HETATM   17  C3  UNL     1      21.249 -16.589  25.341  1.00  0.00     0.033 A 
ATOM     18  H1  UNL     1      21.309 -18.680  24.944  1.00  0.00     0.167 HD
HETATM   19  C7  UNL     1      20.202 -15.721  25.175  1.00  0.00     0.032 A 
HETATM   20  C8  UNL     1      20.121 -14.255  25.484  1.00  0.00     0.070 C 
BRANCH  17  21
HETATM   21  C4  UNL     1      22.624 -16.293  25.790  1.00  0.00     0.069 C 
BRANCH  21  22
HETATM   22  C5  UNL     1      23.596 -15.953  24.721  1.00  0.00     0.119 C 
BRANCH  22  23
HETATM   23  C6  UNL     1      23.584 -14.609  24.174  1.00  0.00     0.172 C 
HETATM   24  O1  UNL     1      22.820 -14.336  23.191  1.00  0.00    -0.648 OA
HETATM   25  O2  UNL     1      24.364 -13.559  24.650  1.00  0.00    -0.648 OA
ENDBRANCH  22  23
ENDBRANCH  21  22
ENDBRANCH  17  21
ENDBRANCH  12  13
ENDBRANCH  11  12
ENDBRANCH   1  11
BRANCH   5  26
HETATM   26  C14 UNL     1      13.035 -12.125  20.824  1.00  0.00     0.185 C 
BRANCH  26  27
HETATM   27  N4  UNL     1      12.405 -11.727  22.109  1.00  0.00    -0.354 N 
HETATM   28  C15 UNL     1      11.562 -12.513  22.724  1.00  0.00     0.098 A 
HETATM   29  C16 UNL     1      11.025 -12.070  23.904  1.00  0.00     0.068 A 
HETATM   30  S1  UNL     1      11.756 -10.538  24.077  1.00  0.00    -0.095 SA
HETATM   31  C17 UNL     1      12.694 -10.549  22.655  1.00  0.00     0.140 A 
ENDBRANCH  26  27
ENDBRANCH   5  26
TORSDOF 8
ENDMDL
MODEL 4
REMARK VINA RESULT: -7.439893677      4.642      9.235
REMARK  8 active torsions:
REMARK  status: ('A' for Active; 'I' for Inactive)
REMARK    1  A    between atoms: C3_5  and  C4_6 
REMARK    2  A    between atoms: C4_6  and  C5_7 
REMARK    3  A    between atoms: C5_7  and  C6_8 
REMARK    4  A    between atoms: N2_13  and  C9_14 
REMARK    5  A    between atoms: C9_14  and  C10_15 
REMARK    6  A    between atoms: C10_15  and  N3_16 
REMARK    7  A    between atoms: C13_20  and  C14_21 
REMARK    8  A    between atoms: C14_21  and  N4_22 
ROOT
HETATM    1  N3  UNL     1      16.290 -14.667  22.369  1.00  0.00    -0.375 N 
ATOM      2  H3  UNL     1      15.907 -14.954  23.271  1.00  0.00     0.161 HD
HETATM    3  C11 UNL     1      15.510 -14.095  21.529  1.00  0.00     0.103 A 
HETATM    4  C12 UNL     1      14.196 -13.901  21.894  1.00  0.00     0.075 A 
HETATM    5  C13 UNL     1      13.276 -13.289  21.069  1.00  0.00     0.032 A 
HETATM    6  N5  UNL     1      13.684 -12.873  19.870  1.00  0.00    -0.354 N 
ATOM      7  H5  UNL     1      13.030 -12.416  19.234  1.00  0.00     0.166 HD
HETATM    8  C18 UNL     1      14.981 -13.062  19.501  1.00  0.00     0.182 A 
HETATM    9  N6  UNL     1      15.880 -13.662  20.315  1.00  0.00    -0.339 N 
ATOM     10  H6  UNL     1      16.844 -13.785  20.003  1.00  0.00     0.168 HD
ENDROOT
BRANCH   1  11
HETATM   11  C10 UNL     1      17.692 -14.926  22.100  1.00  0.00     0.141 C 
BRANCH  11  12
HETATM   12  C9  UNL     1      18.448 -13.675  22.565  1.00  0.00     0.150 C 
BRANCH  12  13
HETATM   13  N2  UNL     1      19.799 -14.054  22.949  1.00  0.00    -0.338 N 
HETATM   14  C2  UNL     1      20.879 -14.008  22.142  1.00  0.00     0.080 A 
HETATM   15  C1  UNL     1      20.820 -13.542  20.724  1.00  0.00     0.089 C 
HETATM   16  N1  UNL     1      21.948 -14.429  22.819  1.00  0.00    -0.348 N 
HETATM   17  C3  UNL     1      21.574 -14.759  24.095  1.00  0.00     0.033 A 
ATOM     18  H1  UNL     1      22.895 -14.496  22.446  1.00  0.00     0.167 HD
HETATM   19  C7  UNL     1      20.227 -14.517  24.155  1.00  0.00     0.032 A 
HETATM   20  C8  UNL     1      19.268 -14.732  25.289  1.00  0.00     0.070 C 
BRANCH  17  21
HETATM   21  C4  UNL     1      22.473 -15.216  25.175  1.00  0.00     0.069 C 
BRANCH  21  22
HETATM   22  C5  UNL     1      23.009 -16.592  25.032  1.00  0.00     0.119 C 
BRANCH  22  23
HETATM   23  C6  UNL     1      24.360 -16.762  24.528  1.00  0.00     0.172 C 
HETATM   24  O1  UNL     1      24.763 -16.046  23.554  1.00  0.00    -0.648 OA
HETATM   25  O2  UNL     1      25.281 -17.671  25.039  1.00  0.00    -0.648 OA
ENDBRANCH  22  23
ENDBRANCH  21  22
ENDBRANCH  17  21
ENDBRANCH  12  13
ENDBRANCH  11  12
ENDBRANCH   1  11
BRANCH   5  26
HETATM   26  C14 UNL     1      11.869 -13.092  21.482  1.00  0.00     0.185 C 
BRANCH  26  27
HETATM   27  N4  UNL     1      11.771 -12.078  22.564  1.00  0.00    -0.354 N 
HETATM   28  C15 UNL     1      11.191 -12.354  23.702  1.00  0.00     0.098 A 
HETATM   29  C16 UNL     1      11.143 -11.363  24.647  1.00  0.00     0.068 A 
HETATM   30  S1  UNL     1      11.933 -10.075  23.856  1.00  0.00    -0.095 SA
HETATM   31  C17 UNL     1      12.278 -10.861  22.385  1.00  0.00     0.140 A 
ENDBRANCH  26  27
ENDBRANCH   5  26
TORSDOF 8
ENDMDL
MODEL 5
REMARK VINA RESULT: -7.436125855      3.775      8.603
REMARK  8 active torsions:
REMARK  status: ('A' for Active; 'I' for Inactive)
REMARK    1  A    between atoms: C3_5  and  C4_6 
REMARK    2  A    between atoms: C4_6  and  C5_7 
REMARK    3  A    between atoms: C5_7  and  C6_8 
REMARK    4  A    between atoms: N2_13  and  C9_14 
REMARK    5  A    between atoms: C9_14  and  C10_15 
REMARK    6  A    between atoms: C10_15  and  N3_16 
REMARK    7  A    between atoms: C13_20  and  C14_21 
REMARK    8  A    between atoms: C14_21  and  N4_22 
ROOT
HETATM    1  N3  UNL     1      16.695 -14.795  22.443  1.00  0.00    -0.375 N 
ATOM      2  H3  UNL     1      17.080 -13.895  22.730  1.00  0.00     0.161 HD
HETATM    3  C11 UNL     1      15.556 -14.812  21.858  1.00  0.00     0.103 A 
HETATM    4  C12 UNL     1      14.917 -13.610  21.649  1.00  0.00     0.075 A 
HETATM    5  C13 UNL     1      13.692 -13.517  21.021  1.00  0.00     0.032 A 
HETATM    6  N5  UNL     1      13.111 -14.641  20.603  1.00  0.00    -0.354 N 
ATOM      7  H5  UNL     1      12.205 -14.608  20.135  1.00  0.00     0.166 HD
HETATM    8  C18 UNL     1      13.736 -15.833  20.806  1.00  0.00     0.182 A 
HETATM    9  N6  UNL     1      14.937 -15.921  21.422  1.00  0.00    -0.339 N 
ATOM     10  H6  UNL     1      15.375 -16.833  21.555  1.00  0.00     0.168 HD
ENDROOT
BRANCH   1  11
HETATM   11  C10 UNL     1      17.463 -15.995  22.718  1.00  0.00     0.141 C 
BRANCH  11  12
HETATM   12  C9  UNL     1      18.519 -16.081  21.609  1.00  0.00     0.150 C 
BRANCH  12  13
HETATM   13  N2  UNL     1      19.736 -15.423  22.061  1.00  0.00    -0.338 N 
HETATM   14  C2  UNL     1      20.245 -14.288  21.539  1.00  0.00     0.080 A 
HETATM   15  C1  UNL     1      19.603 -13.546  20.414  1.00  0.00     0.089 C 
HETATM   16  N1  UNL     1      21.365 -13.974  22.190  1.00  0.00    -0.348 N 
HETATM   17  C3  UNL     1      21.604 -14.911  23.160  1.00  0.00     0.033 A 
ATOM     18  H1  UNL     1      21.953 -13.162  21.997  1.00  0.00     0.167 HD
HETATM   19  C7  UNL     1      20.574 -15.808  23.061  1.00  0.00     0.032 A 
HETATM   20  C8  UNL     1      20.326 -17.068  23.839  1.00  0.00     0.070 C 
BRANCH  17  21
HETATM   21  C4  UNL     1      22.715 -14.895  24.133  1.00  0.00     0.069 C 
BRANCH  21  22
HETATM   22  C5  UNL     1      22.557 -13.970  25.282  1.00  0.00     0.119 C 
BRANCH  22  23
HETATM   23  C6  UNL     1      21.768 -14.407  26.420  1.00  0.00     0.172 C 
HETATM   24  O1  UNL     1      21.816 -15.626  26.788  1.00  0.00    -0.648 OA
HETATM   25  O2  UNL     1      20.937 -13.577  27.166  1.00  0.00    -0.648 OA
ENDBRANCH  22  23
ENDBRANCH  21  22
ENDBRANCH  17  21
ENDBRANCH  12  13
ENDBRANCH  11  12
ENDBRANCH   1  11
BRANCH   5  26
HETATM   26  C14 UNL     1      13.024 -12.214  20.808  1.00  0.00     0.185 C 
BRANCH  26  27
HETATM   27  N4  UNL     1      12.424 -11.712  22.072  1.00  0.00    -0.354 N 
HETATM   28  C15 UNL     1      11.577 -12.435  22.755  1.00  0.00     0.098 A 
HETATM   29  C16 UNL     1      11.069 -11.898  23.909  1.00  0.00     0.068 A 
HETATM   30  S1  UNL     1      11.833 -10.374  23.961  1.00  0.00    -0.095 SA
HETATM   31  C17 UNL     1      12.746 -10.505  22.529  1.00  0.00     0.140 A 
ENDBRANCH  26  27
ENDBRANCH   5  26
TORSDOF 8
ENDMDL
