MODEL 1
REMARK VINA RESULT: -7.382780138      0.000      0.000
REMARK  9 active torsions:
REMARK  status: ('A' for Active; 'I' for Inactive)
REMARK    1  A    between atoms: C2_2  and  C3_3 
REMARK    2  A    between atoms: C3_3  and  N1_4 
REMARK    3  A    between atoms: N1_4  and  C4_5 
REMARK    4  A    between atoms: C4_5  and  C5_6 
REMARK    5  A    between atoms: C5_6  and  C6_7 
REMARK    6  A    between atoms: C6_7  and  C7_8 
REMARK    7  A    between atoms: C10_13  and  S1_14 
REMARK    8  A    between atoms: S1_14  and  N3_15 
REMARK    9  A    between atoms: C13_22  and  C14_23 
ROOT
HETATM    1  C7  UNL     1      17.031 -13.626  20.755  1.00  0.00    -0.029 A 
HETATM    2  C8  UNL     1      17.110 -12.231  20.627  1.00  0.00     0.096 A 
HETATM    3  N2  UNL     1      15.931 -11.684  20.910  1.00  0.00    -0.363 N 
ATOM      4  H2  UNL     1      15.726 -10.686  20.891  1.00  0.00     0.165 HD
HETATM    5  C9  UNL     1      15.061 -12.641  21.222  1.00  0.00     0.067 A 
HETATM    6  C10 UNL     1      13.743 -12.504  21.596  1.00  0.00     0.106 A 
HETATM    7  C11 UNL     1      13.060 -13.661  21.890  1.00  0.00     0.028 A 
HETATM    8  C12 UNL     1      13.657 -14.888  21.816  1.00  0.00     0.017 A 
HETATM    9  C13 UNL     1      14.995 -15.003  21.433  1.00  0.00     0.015 A 
HETATM   10  C15 UNL     1      15.730 -13.879  21.129  1.00  0.00     0.013 A 
ENDROOT
BRANCH   1  11
HETATM   11  C6  UNL     1      18.129 -14.585  20.591  1.00  0.00     0.042 C 
BRANCH  11  12
HETATM   12  C5  UNL     1      19.278 -14.345  21.518  1.00  0.00     0.033 C 
BRANCH  12  13
HETATM   13  C4  UNL     1      19.506 -15.466  22.445  1.00  0.00     0.240 C 
BRANCH  13  14
HETATM   14  N1  UNL     1      19.434 -15.328  23.838  1.00  0.00    -0.039 N 
HETATM   15  C16 UNL     1      19.724 -16.568  24.507  1.00  0.00     0.267 C 
HETATM   16  C17 UNL     1      18.422 -17.345  24.338  1.00  0.00     0.262 C 
HETATM   17  N4  UNL     1      17.432 -16.330  24.557  1.00  0.00    -0.049 N 
HETATM   18  C18 UNL     1      18.003 -15.103  24.157  1.00  0.00     0.468 C 
ATOM     19  H42 UNL     1      16.545 -16.528  24.094  1.00  0.00     0.279 HD
ATOM     20  H41 UNL     1      17.079 -16.314  25.513  1.00  0.00     0.279 HD
BRANCH  14  21
HETATM   21  C3  UNL     1      20.186 -14.276  24.433  1.00  0.00     0.266 C 
BRANCH  21  22
HETATM   22  C2  UNL     1      20.206 -14.246  25.915  1.00  0.00    -0.009 C 
HETATM   23  C1  UNL     1      21.056 -13.533  26.637  1.00  0.00     0.008 C 
ENDBRANCH  21  22
ENDBRANCH  14  21
ENDBRANCH  13  14
ENDBRANCH  12  13
ENDBRANCH  11  12
ENDBRANCH   1  11
BRANCH   9  24
HETATM   24  C14 UNL     1      15.548 -16.325  21.270  1.00  0.00     0.271 C 
HETATM   25  O3  UNL     1      15.742 -17.110  22.191  1.00  0.00    -0.301 OA
ENDBRANCH   9  24
BRANCH   6  26
HETATM   26  S1  UNL     1      12.963 -10.947  21.692  1.00  0.00     0.259 S 
HETATM   27  O1  UNL     1      11.527 -11.075  22.094  1.00  0.00    -0.201 OA
HETATM   28  O2  UNL     1      13.689  -9.995  22.584  1.00  0.00    -0.201 OA
BRANCH  26  29
HETATM   29  N3  UNL     1      12.976 -10.242  20.096  1.00  0.00    -0.324 N 
ATOM     30  H32 UNL     1      13.807 -10.104  19.520  1.00  0.00     0.169 HD
ATOM     31  H31 UNL     1      12.016  -9.999  19.854  1.00  0.00     0.169 HD
ENDBRANCH  26  29
ENDBRANCH   6  26
TORSDOF 9
ENDMDL
MODEL 2
REMARK VINA RESULT: -7.180266453      1.237      1.951
REMARK  9 active torsions:
REMARK  status: ('A' for Active; 'I' for Inactive)
REMARK    1  A    between atoms: C2_2  and  C3_3 
REMARK    2  A    between atoms: C3_3  and  N1_4 
REMARK    3  A    between atoms: N1_4  and  C4_5 
REMARK    4  A    between atoms: C4_5  and  C5_6 
REMARK    5  A    between atoms: C5_6  and  C6_7 
REMARK    6  A    between atoms: C6_7  and  C7_8 
REMARK    7  A    between atoms: C10_13  and  S1_14 
REMARK    8  A    between atoms: S1_14  and  N3_15 
REMARK    9  A    between atoms: C13_22  and  C14_23 
ROOT
HETATM    1  C7  UNL     1      16.320 -14.559  21.543  1.00  0.00    -0.029 A 
HETATM    2  C8  UNL     1      16.772 -13.236  21.430  1.00  0.00     0.096 A 
HETATM    3  N2  UNL     1      15.734 -12.403  21.433  1.00  0.00    -0.363 N 
ATOM      4  H2  UNL     1      15.795 -11.388  21.363  1.00  0.00     0.165 HD
HETATM    5  C9  UNL     1      14.606 -13.100  21.543  1.00  0.00     0.067 A 
HETATM    6  C10 UNL     1      13.315 -12.624  21.605  1.00  0.00     0.106 A 
HETATM    7  C11 UNL     1      12.318 -13.561  21.742  1.00  0.00     0.028 A 
HETATM    8  C12 UNL     1      12.589 -14.898  21.812  1.00  0.00     0.017 A 
HETATM    9  C13 UNL     1      13.906 -15.357  21.745  1.00  0.00     0.015 A 
HETATM   10  C15 UNL     1      14.947 -14.466  21.612  1.00  0.00     0.013 A 
ENDROOT
BRANCH   1  11
HETATM   11  C6  UNL     1      17.152 -15.764  21.639  1.00  0.00     0.042 C 
BRANCH  11  12
HETATM   12  C5  UNL     1      17.606 -16.070  23.031  1.00  0.00     0.033 C 
BRANCH  12  13
HETATM   13  C4  UNL     1      19.073 -16.096  23.159  1.00  0.00     0.240 C 
BRANCH  13  14
HETATM   14  N1  UNL     1      19.792 -15.127  23.871  1.00  0.00    -0.039 N 
HETATM   15  C16 UNL     1      19.804 -13.865  23.178  1.00  0.00     0.267 C 
HETATM   16  C17 UNL     1      20.849 -14.099  22.091  1.00  0.00     0.262 C 
HETATM   17  N4  UNL     1      21.862 -14.832  22.795  1.00  0.00    -0.049 N 
HETATM   18  C18 UNL     1      21.214 -15.547  23.824  1.00  0.00     0.468 C 
ATOM     19  H42 UNL     1      22.422 -15.426  22.185  1.00  0.00     0.279 HD
ATOM     20  H41 UNL     1      22.620 -14.241  23.134  1.00  0.00     0.279 HD
BRANCH  14  21
HETATM   21  C3  UNL     1      19.442 -14.919  25.235  1.00  0.00     0.266 C 
BRANCH  21  22
HETATM   22  C2  UNL     1      20.571 -14.725  26.176  1.00  0.00    -0.009 C 
HETATM   23  C1  UNL     1      20.862 -13.577  26.766  1.00  0.00     0.008 C 
ENDBRANCH  21  22
ENDBRANCH  14  21
ENDBRANCH  13  14
ENDBRANCH  12  13
ENDBRANCH  11  12
ENDBRANCH   1  11
BRANCH   9  24
HETATM   24  C14 UNL     1      14.133 -16.781  21.719  1.00  0.00     0.271 C 
HETATM   25  O3  UNL     1      13.482 -17.595  22.364  1.00  0.00    -0.301 OA
ENDBRANCH   9  24
BRANCH   6  26
HETATM   26  S1  UNL     1      12.949 -10.921  21.513  1.00  0.00     0.259 S 
HETATM   27  O1  UNL     1      11.527 -10.644  21.893  1.00  0.00    -0.201 OA
HETATM   28  O2  UNL     1      13.893 -10.086  22.312  1.00  0.00    -0.201 OA
BRANCH  26  29
HETATM   29  N3  UNL     1      13.130 -10.424  19.851  1.00  0.00    -0.324 N 
ATOM     30  H32 UNL     1      12.363 -10.203  19.215  1.00  0.00     0.169 HD
ATOM     31  H31 UNL     1      14.127 -10.397  19.639  1.00  0.00     0.169 HD
ENDBRANCH  26  29
ENDBRANCH   6  26
TORSDOF 9
ENDMDL
MODEL 3
REMARK VINA RESULT: -7.166912445      1.377      2.199
REMARK  9 active torsions:
REMARK  status: ('A' for Active; 'I' for Inactive)
REMARK    1  A    between atoms: C2_2  and  C3_3 
REMARK    2  A    between atoms: C3_3  and  N1_4 
REMARK    3  A    between atoms: N1_4  and  C4_5 
REMARK    4  A    between atoms: C4_5  and  C5_6 
REMARK    5  A    between atoms: C5_6  and  C6_7 
REMARK    6  A    between atoms: C6_7  and  C7_8 
REMARK    7  A    between atoms: C10_13  and  S1_14 
REMARK    8  A    between atoms: S1_14  and  N3_15 
REMARK    9  A    between atoms: C13_22  and  C14_23 
ROOT
HETATM    1  C7  UNL     1      16.271 -14.567  21.284  1.00  0.00    -0.029 A 
HETATM    2  C8  UNL     1      16.715 -13.243  21.154  1.00  0.00     0.096 A 
HETATM    3  N2  UNL     1      15.686 -12.408  21.267  1.00  0.00    -0.363 N 
ATOM      4  H2  UNL     1      15.743 -11.392  21.211  1.00  0.00     0.165 HD
HETATM    5  C9  UNL     1      14.570 -13.104  21.465  1.00  0.00     0.067 A 
HETATM    6  C10 UNL     1      13.291 -12.627  21.653  1.00  0.00     0.106 A 
HETATM    7  C11 UNL     1      12.307 -13.564  21.862  1.00  0.00     0.028 A 
HETATM    8  C12 UNL     1      12.578 -14.902  21.882  1.00  0.00     0.017 A 
HETATM    9  C13 UNL     1      13.882 -15.364  21.689  1.00  0.00     0.015 A 
HETATM   10  C15 UNL     1      14.910 -14.472  21.478  1.00  0.00     0.013 A 
ENDROOT
BRANCH   1  11
HETATM   11  C6  UNL     1      17.103 -15.775  21.282  1.00  0.00     0.042 C 
BRANCH  11  12
HETATM   12  C5  UNL     1      17.717 -16.082  22.610  1.00  0.00     0.033 C 
BRANCH  12  13
HETATM   13  C4  UNL     1      19.189 -16.145  22.558  1.00  0.00     0.240 C 
BRANCH  13  14
HETATM   14  N1  UNL     1      20.012 -15.142  23.086  1.00  0.00    -0.039 N 
HETATM   15  C16 UNL     1      21.258 -15.679  23.564  1.00  0.00     0.267 C 
HETATM   16  C17 UNL     1      20.857 -16.301  24.899  1.00  0.00     0.262 C 
HETATM   17  N4  UNL     1      19.952 -15.322  25.430  1.00  0.00    -0.049 N 
HETATM   18  C18 UNL     1      19.350 -14.676  24.329  1.00  0.00     0.468 C 
ATOM     19  H42 UNL     1      19.275 -15.716  26.083  1.00  0.00     0.279 HD
ATOM     20  H41 UNL     1      20.398 -14.675  26.079  1.00  0.00     0.279 HD
BRANCH  14  21
HETATM   21  C3  UNL     1      20.264 -14.003  22.271  1.00  0.00     0.266 C 
BRANCH  21  22
HETATM   22  C2  UNL     1      20.408 -14.258  20.817  1.00  0.00    -0.009 C 
HETATM   23  C1  UNL     1      20.411 -13.314  19.890  1.00  0.00     0.008 C 
ENDBRANCH  21  22
ENDBRANCH  14  21
ENDBRANCH  13  14
ENDBRANCH  12  13
ENDBRANCH  11  12
ENDBRANCH   1  11
BRANCH   9  24
HETATM   24  C14 UNL     1      14.100 -16.788  21.616  1.00  0.00     0.271 C 
HETATM   25  O3  UNL     1      13.663 -17.594  22.428  1.00  0.00    -0.301 OA
ENDBRANCH   9  24
BRANCH   6  26
HETATM   26  S1  UNL     1      12.925 -10.922  21.626  1.00  0.00     0.259 S 
HETATM   27  O1  UNL     1      11.498 -10.661  21.999  1.00  0.00    -0.201 OA
HETATM   28  O2  UNL     1      13.858 -10.120  22.471  1.00  0.00    -0.201 OA
BRANCH  26  29
HETATM   29  N3  UNL     1      13.126 -10.357  19.988  1.00  0.00    -0.324 N 
ATOM     30  H32 UNL     1      13.842  -9.701  19.674  1.00  0.00     0.169 HD
ATOM     31  H31 UNL     1      12.406 -10.798  19.414  1.00  0.00     0.169 HD
ENDBRANCH  26  29
ENDBRANCH   6  26
TORSDOF 9
ENDMDL
MODEL 4
REMARK VINA RESULT: -7.124802609      3.302      7.248
REMARK  9 active torsions:
REMARK  status: ('A' for Active; 'I' for Inactive)
REMARK    1  A    between atoms: C2_2  and  C3_3 
REMARK    2  A    between atoms: C3_3  and  N1_4 
REMARK    3  A    between atoms: N1_4  and  C4_5 
REMARK    4  A    between atoms: C4_5  and  C5_6 
REMARK    5  A    between atoms: C5_6  and  C6_7 
REMARK    6  A    between atoms: C6_7  and  C7_8 
REMARK    7  A    between atoms: C10_13  and  S1_14 
REMARK    8  A    between atoms: S1_14  and  N3_15 
REMARK    9  A    between atoms: C13_22  and  C14_23 
ROOT
HETATM    1  C7  UNL     1      17.063 -15.525  21.271  1.00  0.00    -0.029 A 
HETATM    2  C8  UNL     1      17.317 -16.469  22.277  1.00  0.00     0.096 A 
HETATM    3  N2  UNL     1      18.547 -16.299  22.755  1.00  0.00    -0.363 N 
ATOM      4  H2  UNL     1      18.974 -16.858  23.494  1.00  0.00     0.165 HD
HETATM    5  C9  UNL     1      19.135 -15.289  22.120  1.00  0.00     0.067 A 
HETATM    6  C10 UNL     1      20.396 -14.773  22.323  1.00  0.00     0.106 A 
HETATM    7  C11 UNL     1      20.759 -13.701  21.543  1.00  0.00     0.028 A 
HETATM    8  C12 UNL     1      19.913 -13.171  20.609  1.00  0.00     0.017 A 
HETATM    9  C13 UNL     1      18.639 -13.710  20.420  1.00  0.00     0.015 A 
HETATM   10  C15 UNL     1      18.219 -14.782  21.175  1.00  0.00     0.013 A 
ENDROOT
BRANCH   1  11
HETATM   11  C6  UNL     1      15.804 -15.340  20.541  1.00  0.00     0.042 C 
BRANCH  11  12
HETATM   12  C5  UNL     1      14.636 -15.040  21.427  1.00  0.00     0.033 C 
BRANCH  12  13
HETATM   13  C4  UNL     1      14.583 -13.628  21.842  1.00  0.00     0.240 C 
BRANCH  13  14
HETATM   14  N1  UNL     1      13.463 -12.814  21.626  1.00  0.00    -0.039 N 
HETATM   15  C16 UNL     1      12.893 -13.033  20.323  1.00  0.00     0.267 C 
HETATM   16  C17 UNL     1      13.849 -12.266  19.414  1.00  0.00     0.262 C 
HETATM   17  N4  UNL     1      14.104 -11.077  20.176  1.00  0.00    -0.049 N 
HETATM   18  C18 UNL     1      13.973 -11.423  21.538  1.00  0.00     0.468 C 
ATOM     19  H42 UNL     1      15.002 -10.646  19.957  1.00  0.00     0.279 HD
ATOM     20  H41 UNL     1      13.513 -10.292  19.904  1.00  0.00     0.279 HD
BRANCH  14  21
HETATM   21  C3  UNL     1      12.433 -12.840  22.609  1.00  0.00     0.266 C 
BRANCH  21  22
HETATM   22  C2  UNL     1      11.822 -11.533  22.949  1.00  0.00    -0.009 C 
HETATM   23  C1  UNL     1      11.331 -11.225  24.139  1.00  0.00     0.008 C 
ENDBRANCH  21  22
ENDBRANCH  14  21
ENDBRANCH  13  14
ENDBRANCH  12  13
ENDBRANCH  11  12
ENDBRANCH   1  11
BRANCH   9  24
HETATM   24  C14 UNL     1      17.825 -13.181  19.353  1.00  0.00     0.271 C 
HETATM   25  O3  UNL     1      17.103 -12.198  19.460  1.00  0.00    -0.301 OA
ENDBRANCH   9  24
BRANCH   6  26
HETATM   26  S1  UNL     1      21.490 -15.440  23.506  1.00  0.00     0.259 S 
HETATM   27  O1  UNL     1      20.923 -15.353  24.889  1.00  0.00    -0.201 OA
HETATM   28  O2  UNL     1      21.906 -16.837  23.182  1.00  0.00    -0.201 OA
BRANCH  26  29
HETATM   29  N3  UNL     1      22.942 -14.473  23.498  1.00  0.00    -0.324 N 
ATOM     30  H32 UNL     1      23.204 -13.798  24.216  1.00  0.00     0.169 HD
ATOM     31  H31 UNL     1      23.468 -14.706  22.655  1.00  0.00     0.169 HD
ENDBRANCH  26  29
ENDBRANCH   6  26
TORSDOF 9
ENDMDL
MODEL 5
REMARK VINA RESULT: -7.110950732      2.492      3.703
REMARK  9 active torsions:
REMARK  status: ('A' for Active; 'I' for Inactive)
REMARK    1  A    between atoms: C2_2  and  C3_3 
REMARK    2  A    between atoms: C3_3  and  N1_4 
REMARK    3  A    between atoms: N1_4  and  C4_5 
REMARK    4  A    between atoms: C4_5  and  C5_6 
REMARK    5  A    between atoms: C5_6  and  C6_7 
REMARK    6  A    between atoms: C6_7  and  C7_8 
REMARK    7  A    between atoms: C10_13  and  S1_14 
REMARK    8  A    between atoms: S1_14  and  N3_15 
REMARK    9  A    between atoms: C13_22  and  C14_23 
ROOT
HETATM    1  C7  UNL     1      18.069 -12.861  20.103  1.00  0.00    -0.029 A 
HETATM    2  C8  UNL     1      17.663 -12.713  21.438  1.00  0.00     0.096 A 
HETATM    3  N2  UNL     1      16.343 -12.562  21.493  1.00  0.00    -0.363 N 
ATOM      4  H2  UNL     1      15.800 -12.436  22.347  1.00  0.00     0.165 HD
HETATM    5  C9  UNL     1      15.839 -12.600  20.262  1.00  0.00     0.067 A 
HETATM    6  C10 UNL     1      14.520 -12.503  19.879  1.00  0.00     0.106 A 
HETATM    7  C11 UNL     1      14.259 -12.596  18.532  1.00  0.00     0.028 A 
HETATM    8  C12 UNL     1      15.257 -12.774  17.616  1.00  0.00     0.017 A 
HETATM    9  C13 UNL     1      16.588 -12.869  18.027  1.00  0.00     0.015 A 
HETATM   10  C15 UNL     1      16.909 -12.786  19.364  1.00  0.00     0.013 A 
ENDROOT
BRANCH   1  11
HETATM   11  C6  UNL     1      19.434 -13.113  19.625  1.00  0.00     0.042 C 
BRANCH  11  12
HETATM   12  C5  UNL     1      20.386 -13.504  20.710  1.00  0.00     0.033 C 
BRANCH  12  13
HETATM   13  C4  UNL     1      20.292 -14.931  21.065  1.00  0.00     0.240 C 
BRANCH  13  14
HETATM   14  N1  UNL     1      19.901 -15.375  22.335  1.00  0.00    -0.039 N 
HETATM   15  C16 UNL     1      20.247 -14.423  23.357  1.00  0.00     0.267 C 
HETATM   16  C17 UNL     1      21.743 -14.664  23.536  1.00  0.00     0.262 C 
HETATM   17  N4  UNL     1      21.830 -16.095  23.471  1.00  0.00    -0.049 N 
HETATM   18  C18 UNL     1      20.768 -16.536  22.653  1.00  0.00     0.468 C 
ATOM     19  H42 UNL     1      22.741 -16.427  23.157  1.00  0.00     0.279 HD
ATOM     20  H41 UNL     1      21.838 -16.538  24.389  1.00  0.00     0.279 HD
BRANCH  14  21
HETATM   21  C3  UNL     1      18.546 -15.782  22.501  1.00  0.00     0.266 C 
BRANCH  21  22
HETATM   22  C2  UNL     1      17.924 -16.466  21.342  1.00  0.00    -0.009 C 
HETATM   23  C1  UNL     1      16.675 -16.281  20.948  1.00  0.00     0.008 C 
ENDBRANCH  21  22
ENDBRANCH  14  21
ENDBRANCH  13  14
ENDBRANCH  12  13
ENDBRANCH  11  12
ENDBRANCH   1  11
BRANCH   9  24
HETATM   24  C14 UNL     1      17.612 -12.952  17.015  1.00  0.00     0.271 C 
HETATM   25  O3  UNL     1      17.795 -12.107  16.148  1.00  0.00    -0.301 OA
ENDBRANCH   9  24
BRANCH   6  26
HETATM   26  S1  UNL     1      13.234 -12.271  21.034  1.00  0.00     0.259 S 
HETATM   27  O1  UNL     1      12.092 -13.205  20.780  1.00  0.00    -0.201 OA
HETATM   28  O2  UNL     1      13.705 -12.367  22.447  1.00  0.00    -0.201 OA
BRANCH  26  29
HETATM   29  N3  UNL     1      12.613 -10.653  20.826  1.00  0.00    -0.324 N 
ATOM     30  H32 UNL     1      12.099 -10.125  21.531  1.00  0.00     0.169 HD
ATOM     31  H31 UNL     1      12.856 -10.344  19.885  1.00  0.00     0.169 HD
ENDBRANCH  26  29
ENDBRANCH   6  26
TORSDOF 9
ENDMDL
