MODEL 1
REMARK VINA RESULT: -7.014177238      0.000      0.000
REMARK  9 active torsions:
REMARK  status: ('A' for Active; 'I' for Inactive)
REMARK    1  A    between atoms: C3_3  and  C4_4 
REMARK    2  A    between atoms: C7_7  and  C8_8 
REMARK    3  A    between atoms: C8_8  and  N1_10 
REMARK    4  A    between atoms: N1_10  and  C10_12 
REMARK    5  A    between atoms: C10_12  and  N2_14 
REMARK    6  A    between atoms: N2_14  and  C11_16 
REMARK    7  A    between atoms: C14_19  and  N3_20 
REMARK    8  A    between atoms: N3_20  and  C15_22 
REMARK    9  A    between atoms: C16_25  and  C17_26 
ROOT
HETATM    1  C1  UNL     1       3.866   9.744  12.377  1.00  0.00     0.112 C 
HETATM    2  C2  UNL     1       3.172  10.831  13.074  1.00  0.00    -0.105 C 
HETATM    3  C3  UNL     1       2.619  11.726  13.661  1.00  0.00    -0.067 C 
ENDROOT
BRANCH   3   4
HETATM    4  C4  UNL     1       1.971  12.791  14.386  1.00  0.00     0.017 A 
HETATM    5  C5  UNL     1       2.615  13.465  15.405  1.00  0.00     0.021 A 
HETATM    6  C6  UNL     1       2.027  14.480  16.114  1.00  0.00     0.011 A 
HETATM    7  C7  UNL     1       0.735  14.878  15.831  1.00  0.00    -0.036 A 
HETATM    8  C30 UNL     1       0.072  14.224  14.822  1.00  0.00     0.011 A 
HETATM    9  C31 UNL     1       0.681  13.207  14.121  1.00  0.00     0.021 A 
BRANCH   7  10
HETATM   10  C8  UNL     1       0.120  15.973  16.630  1.00  0.00     0.113 C 
HETATM   11  C9  UNL     1      -1.283  15.660  17.016  1.00  0.00     0.037 C 
BRANCH  10  12
HETATM   12  N1  UNL     1       0.168  17.238  15.954  1.00  0.00    -0.359 N 
ATOM     13  H1  UNL     1      -0.702  17.697  15.687  1.00  0.00     0.162 HD
BRANCH  12  14
HETATM   14  C10 UNL     1       1.414  17.867  15.647  1.00  0.00     0.172 C 
HETATM   15  S1  UNL     1       2.322  18.304  16.927  1.00  0.00    -0.041 SA
BRANCH  14  16
HETATM   16  N2  UNL     1       1.792  18.087  14.308  1.00  0.00    -0.333 N 
ATOM     17  H2  UNL     1       2.137  19.021  14.086  1.00  0.00     0.168 HD
BRANCH  16  18
HETATM   18  C11 UNL     1       1.751  17.174  13.244  1.00  0.00     0.034 A 
HETATM   19  C12 UNL     1       2.713  16.257  12.896  1.00  0.00     0.032 A 
HETATM   20  C13 UNL     1       2.584  15.411  11.785  1.00  0.00     0.032 A 
HETATM   21  C14 UNL     1       1.474  15.457  10.984  1.00  0.00     0.033 A 
HETATM   22  C28 UNL     1       0.495  16.368  11.314  1.00  0.00     0.032 A 
HETATM   23  C29 UNL     1       0.620  17.196  12.398  1.00  0.00     0.032 A 
BRANCH  21  24
HETATM   24  N3  UNL     1       1.313  14.608   9.848  1.00  0.00    -0.342 N 
ATOM     25  H3  UNL     1       1.139  15.049   8.945  1.00  0.00     0.167 HD
BRANCH  24  26
HETATM   26  C15 UNL     1       1.372  13.333   9.885  1.00  0.00     0.119 A 
HETATM   27  N4  UNL     1       0.369  12.611  10.494  1.00  0.00    -0.326 N 
HETATM   28  C16 UNL     1       0.392  11.287  10.555  1.00  0.00     0.134 A 
ATOM     29  H4  UNL     1      -0.416  13.111  10.912  1.00  0.00     0.169 HD
HETATM   30  N6  UNL     1       1.480  10.686   9.974  1.00  0.00    -0.340 N 
HETATM   31  C22 UNL     1       2.473  11.333   9.376  1.00  0.00     0.047 A 
ATOM     32  H6  UNL     1       1.529   9.668  10.004  1.00  0.00     0.167 HD
HETATM   33  C23 UNL     1       3.549  10.660   8.804  1.00  0.00     0.030 A 
HETATM   34  C27 UNL     1       2.449  12.705   9.313  1.00  0.00     0.035 A 
HETATM   35  C24 UNL     1       4.572  11.338   8.186  1.00  0.00     0.002 A 
HETATM   36  C25 UNL     1       4.552  12.718   8.120  1.00  0.00     0.001 A 
HETATM   37  C26 UNL     1       3.472  13.377   8.695  1.00  0.00     0.017 A 
BRANCH  28  38
HETATM   38  C17 UNL     1      -0.630  10.411  11.128  1.00  0.00     0.078 A 
HETATM   39  C18 UNL     1      -0.853  10.256  12.496  1.00  0.00     0.035 A 
HETATM   40  C19 UNL     1      -1.842   9.351  12.684  1.00  0.00     0.020 A 
HETATM   41  C20 UNL     1      -2.258   8.922  11.446  1.00  0.00     0.091 A 
HETATM   42  N5  UNL     1      -1.489   9.596  10.528  1.00  0.00    -0.358 N 
HETATM   43  C21 UNL     1      -1.676   9.332   9.120  1.00  0.00     0.156 C 
ENDBRANCH  28  38
ENDBRANCH  24  26
ENDBRANCH  21  24
ENDBRANCH  16  18
ENDBRANCH  14  16
ENDBRANCH  12  14
ENDBRANCH  10  12
ENDBRANCH   7  10
ENDBRANCH   3   4
TORSDOF 9
ENDMDL
MODEL 2
REMARK VINA RESULT: -6.999035358      3.430      6.283
REMARK  9 active torsions:
REMARK  status: ('A' for Active; 'I' for Inactive)
REMARK    1  A    between atoms: C3_3  and  C4_4 
REMARK    2  A    between atoms: C7_7  and  C8_8 
REMARK    3  A    between atoms: C8_8  and  N1_10 
REMARK    4  A    between atoms: N1_10  and  C10_12 
REMARK    5  A    between atoms: C10_12  and  N2_14 
REMARK    6  A    between atoms: N2_14  and  C11_16 
REMARK    7  A    between atoms: C14_19  and  N3_20 
REMARK    8  A    between atoms: N3_20  and  C15_22 
REMARK    9  A    between atoms: C16_25  and  C17_26 
ROOT
HETATM    1  C1  UNL     1       4.633  10.007   8.473  1.00  0.00     0.112 C 
HETATM    2  C2  UNL     1       3.816  10.416   9.619  1.00  0.00    -0.105 C 
HETATM    3  C3  UNL     1       3.133  10.767  10.548  1.00  0.00    -0.067 C 
ENDROOT
BRANCH   3   4
HETATM    4  C4  UNL     1       2.311  11.210  11.647  1.00  0.00     0.017 A 
HETATM    5  C5  UNL     1       1.371  12.208  11.486  1.00  0.00     0.021 A 
HETATM    6  C6  UNL     1       0.576  12.654  12.509  1.00  0.00     0.011 A 
HETATM    7  C7  UNL     1       0.686  12.108  13.774  1.00  0.00    -0.036 A 
HETATM    8  C30 UNL     1       1.614  11.112  13.960  1.00  0.00     0.011 A 
HETATM    9  C31 UNL     1       2.402  10.680  12.918  1.00  0.00     0.021 A 
BRANCH   7  10
HETATM   10  C8  UNL     1      -0.181  12.624  14.867  1.00  0.00     0.113 C 
HETATM   11  C9  UNL     1      -0.870  13.887  14.483  1.00  0.00     0.037 C 
BRANCH  10  12
HETATM   12  N1  UNL     1       0.539  12.816  16.094  1.00  0.00    -0.359 N 
ATOM     13  H1  UNL     1       0.523  12.084  16.803  1.00  0.00     0.162 HD
BRANCH  12  14
HETATM   14  C10 UNL     1       1.278  14.014  16.339  1.00  0.00     0.172 C 
HETATM   15  S1  UNL     1       0.525  15.138  17.246  1.00  0.00    -0.041 SA
BRANCH  14  16
HETATM   16  N2  UNL     1       2.570  14.178  15.802  1.00  0.00    -0.333 N 
ATOM     17  H2  UNL     1       3.347  13.991  16.436  1.00  0.00     0.168 HD
BRANCH  16  18
HETATM   18  C11 UNL     1       2.914  14.569  14.500  1.00  0.00     0.034 A 
HETATM   19  C12 UNL     1       3.864  14.003  13.685  1.00  0.00     0.032 A 
HETATM   20  C13 UNL     1       4.153  14.497  12.405  1.00  0.00     0.032 A 
HETATM   21  C14 UNL     1       3.491  15.585  11.898  1.00  0.00     0.033 A 
HETATM   22  C28 UNL     1       2.534  16.169  12.698  1.00  0.00     0.032 A 
HETATM   23  C29 UNL     1       2.251  15.687  13.949  1.00  0.00     0.032 A 
BRANCH  21  24
HETATM   24  N3  UNL     1       3.762  16.110  10.599  1.00  0.00    -0.342 N 
ATOM     25  H3  UNL     1       3.204  16.901  10.280  1.00  0.00     0.167 HD
BRANCH  24  26
HETATM   26  C15 UNL     1       4.658  15.657   9.810  1.00  0.00     0.119 A 
HETATM   27  N4  UNL     1       5.967  16.065   9.941  1.00  0.00    -0.326 N 
HETATM   28  C16 UNL     1       6.927  15.619   9.144  1.00  0.00     0.134 A 
ATOM     29  H4  UNL     1       6.206  16.732  10.676  1.00  0.00     0.169 HD
HETATM   30  N6  UNL     1       6.530  14.728   8.180  1.00  0.00    -0.340 N 
HETATM   31  C22 UNL     1       5.284  14.303   8.008  1.00  0.00     0.047 A 
ATOM     32  H6  UNL     1       7.244  14.366   7.548  1.00  0.00     0.167 HD
HETATM   33  C23 UNL     1       4.948  13.395   7.009  1.00  0.00     0.030 A 
HETATM   34  C27 UNL     1       4.289  14.765   8.836  1.00  0.00     0.035 A 
HETATM   35  C24 UNL     1       3.656  12.959   6.840  1.00  0.00     0.002 A 
HETATM   36  C25 UNL     1       2.652  13.420   7.669  1.00  0.00     0.001 A 
HETATM   37  C26 UNL     1       3.001  14.327   8.663  1.00  0.00     0.017 A 
BRANCH  28  38
HETATM   38  C17 UNL     1       8.353  15.939   9.213  1.00  0.00     0.078 A 
HETATM   39  C18 UNL     1       9.187  15.580  10.272  1.00  0.00     0.035 A 
HETATM   40  C19 UNL     1      10.432  16.058  10.038  1.00  0.00     0.020 A 
HETATM   41  C20 UNL     1      10.404  16.724   8.835  1.00  0.00     0.091 A 
HETATM   42  N5  UNL     1       9.116  16.625   8.370  1.00  0.00    -0.358 N 
HETATM   43  C21 UNL     1       8.764  17.261   7.121  1.00  0.00     0.156 C 
ENDBRANCH  28  38
ENDBRANCH  24  26
ENDBRANCH  21  24
ENDBRANCH  16  18
ENDBRANCH  14  16
ENDBRANCH  12  14
ENDBRANCH  10  12
ENDBRANCH   7  10
ENDBRANCH   3   4
TORSDOF 9
ENDMDL
MODEL 3
REMARK VINA RESULT: -6.988426087      5.008      8.579
REMARK  9 active torsions:
REMARK  status: ('A' for Active; 'I' for Inactive)
REMARK    1  A    between atoms: C3_3  and  C4_4 
REMARK    2  A    between atoms: C7_7  and  C8_8 
REMARK    3  A    between atoms: C8_8  and  N1_10 
REMARK    4  A    between atoms: N1_10  and  C10_12 
REMARK    5  A    between atoms: C10_12  and  N2_14 
REMARK    6  A    between atoms: N2_14  and  C11_16 
REMARK    7  A    between atoms: C14_19  and  N3_20 
REMARK    8  A    between atoms: N3_20  and  C15_22 
REMARK    9  A    between atoms: C16_25  and  C17_26 
ROOT
HETATM    1  C1  UNL     1       1.968  17.719  16.983  1.00  0.00     0.112 C 
HETATM    2  C2  UNL     1       2.132  16.479  16.220  1.00  0.00    -0.105 C 
HETATM    3  C3  UNL     1       2.268  15.446  15.613  1.00  0.00    -0.067 C 
ENDROOT
BRANCH   3   4
HETATM    4  C4  UNL     1       2.439  14.201  14.907  1.00  0.00     0.017 A 
HETATM    5  C5  UNL     1       1.583  13.136  15.108  1.00  0.00     0.021 A 
HETATM    6  C6  UNL     1       1.718  11.938  14.456  1.00  0.00     0.011 A 
HETATM    7  C7  UNL     1       2.743  11.743  13.550  1.00  0.00    -0.036 A 
HETATM    8  C30 UNL     1       3.609  12.787  13.332  1.00  0.00     0.011 A 
HETATM    9  C31 UNL     1       3.454  13.982  13.997  1.00  0.00     0.021 A 
BRANCH   7  10
HETATM   10  C8  UNL     1       2.872  10.427  12.870  1.00  0.00     0.113 C 
HETATM   11  C9  UNL     1       3.671   9.460  13.674  1.00  0.00     0.037 C 
BRANCH  10  12
HETATM   12  N1  UNL     1       3.431  10.542  11.553  1.00  0.00    -0.359 N 
ATOM     13  H1  UNL     1       4.424  10.359  11.412  1.00  0.00     0.162 HD
BRANCH  12  14
HETATM   14  C10 UNL     1       2.621  10.910  10.434  1.00  0.00     0.172 C 
HETATM   15  S1  UNL     1       1.016  10.963  10.708  1.00  0.00    -0.041 SA
BRANCH  14  16
HETATM   16  N2  UNL     1       3.212  11.190   9.187  1.00  0.00    -0.333 N 
ATOM     17  H2  UNL     1       3.088  10.482   8.462  1.00  0.00     0.168 HD
BRANCH  16  18
HETATM   18  C11 UNL     1       3.949  12.326   8.822  1.00  0.00     0.034 A 
HETATM   19  C12 UNL     1       4.757  12.475   7.721  1.00  0.00     0.032 A 
HETATM   20  C13 UNL     1       5.480  13.650   7.469  1.00  0.00     0.032 A 
HETATM   21  C14 UNL     1       5.413  14.721   8.321  1.00  0.00     0.033 A 
HETATM   22  C28 UNL     1       4.609  14.594   9.432  1.00  0.00     0.032 A 
HETATM   23  C29 UNL     1       3.902  13.446   9.680  1.00  0.00     0.032 A 
BRANCH  21  24
HETATM   24  N3  UNL     1       6.137  15.930   8.091  1.00  0.00    -0.342 N 
ATOM     25  H3  UNL     1       5.711  16.632   7.488  1.00  0.00     0.167 HD
BRANCH  24  26
HETATM   26  C15 UNL     1       7.283  16.191   8.590  1.00  0.00     0.119 A 
HETATM   27  N4  UNL     1       8.305  15.272   8.497  1.00  0.00    -0.326 N 
HETATM   28  C16 UNL     1       9.509  15.503   9.001  1.00  0.00     0.134 A 
ATOM     29  H4  UNL     1       8.129  14.384   8.026  1.00  0.00     0.169 HD
HETATM   30  N6  UNL     1       9.668  16.716   9.621  1.00  0.00    -0.340 N 
HETATM   31  C22 UNL     1       8.718  17.637   9.740  1.00  0.00     0.047 A 
ATOM     32  H6  UNL     1      10.582  16.926  10.021  1.00  0.00     0.167 HD
HETATM   33  C23 UNL     1       8.947  18.850  10.381  1.00  0.00     0.030 A 
HETATM   34  C27 UNL     1       7.470  17.396   9.216  1.00  0.00     0.035 A 
HETATM   35  C24 UNL     1       7.959  19.797  10.498  1.00  0.00     0.002 A 
HETATM   36  C25 UNL     1       6.703  19.561   9.974  1.00  0.00     0.001 A 
HETATM   37  C26 UNL     1       6.487  18.345   9.336  1.00  0.00     0.017 A 
BRANCH  28  38
HETATM   38  C17 UNL     1      10.680  14.631   8.925  1.00  0.00     0.078 A 
HETATM   39  C18 UNL     1      11.365  14.137  10.035  1.00  0.00     0.035 A 
HETATM   40  C19 UNL     1      12.416  13.395   9.614  1.00  0.00     0.020 A 
HETATM   41  C20 UNL     1      12.413  13.408   8.239  1.00  0.00     0.091 A 
HETATM   42  N5  UNL     1      11.338  14.176   7.864  1.00  0.00    -0.358 N 
HETATM   43  C21 UNL     1      11.086  14.402   6.459  1.00  0.00     0.156 C 
ENDBRANCH  28  38
ENDBRANCH  24  26
ENDBRANCH  21  24
ENDBRANCH  16  18
ENDBRANCH  14  16
ENDBRANCH  12  14
ENDBRANCH  10  12
ENDBRANCH   7  10
ENDBRANCH   3   4
TORSDOF 9
ENDMDL
MODEL 4
REMARK VINA RESULT: -6.910986698      3.844      7.130
REMARK  9 active torsions:
REMARK  status: ('A' for Active; 'I' for Inactive)
REMARK    1  A    between atoms: C3_3  and  C4_4 
REMARK    2  A    between atoms: C7_7  and  C8_8 
REMARK    3  A    between atoms: C8_8  and  N1_10 
REMARK    4  A    between atoms: N1_10  and  C10_12 
REMARK    5  A    between atoms: C10_12  and  N2_14 
REMARK    6  A    between atoms: N2_14  and  C11_16 
REMARK    7  A    between atoms: C14_19  and  N3_20 
REMARK    8  A    between atoms: N3_20  and  C15_22 
REMARK    9  A    between atoms: C16_25  and  C17_26 
ROOT
HETATM    1  C1  UNL     1       4.620  10.371   8.031  1.00  0.00     0.112 C 
HETATM    2  C2  UNL     1       3.869  10.722   9.240  1.00  0.00    -0.105 C 
HETATM    3  C3  UNL     1       3.234  10.997  10.226  1.00  0.00    -0.067 C 
ENDROOT
BRANCH   3   4
HETATM    4  C4  UNL     1       2.452  11.322  11.393  1.00  0.00     0.017 A 
HETATM    5  C5  UNL     1       1.422  12.240  11.338  1.00  0.00     0.021 A 
HETATM    6  C6  UNL     1       0.661  12.572  12.428  1.00  0.00     0.011 A 
HETATM    7  C7  UNL     1       0.901  11.988  13.657  1.00  0.00    -0.036 A 
HETATM    8  C30 UNL     1       1.920  11.071  13.740  1.00  0.00     0.011 A 
HETATM    9  C31 UNL     1       2.672  10.751  12.631  1.00  0.00     0.021 A 
BRANCH   7  10
HETATM   10  C8  UNL     1       0.068  12.381  14.825  1.00  0.00     0.113 C 
HETATM   11  C9  UNL     1      -0.832  13.525  14.508  1.00  0.00     0.037 C 
BRANCH  10  12
HETATM   12  N1  UNL     1       0.857  12.690  15.983  1.00  0.00    -0.359 N 
ATOM     13  H1  UNL     1       0.978  11.985  16.709  1.00  0.00     0.162 HD
BRANCH  12  14
HETATM   14  C10 UNL     1       1.478  13.968  16.137  1.00  0.00     0.172 C 
HETATM   15  S1  UNL     1       0.625  15.074  16.976  1.00  0.00    -0.041 SA
BRANCH  14  16
HETATM   16  N2  UNL     1       2.744  14.219  15.574  1.00  0.00    -0.333 N 
ATOM     17  H2  UNL     1       3.545  14.093  16.194  1.00  0.00     0.168 HD
BRANCH  16  18
HETATM   18  C11 UNL     1       3.035  14.622  14.262  1.00  0.00     0.034 A 
HETATM   19  C12 UNL     1       3.990  14.100  13.424  1.00  0.00     0.032 A 
HETATM   20  C13 UNL     1       4.221  14.604  12.136  1.00  0.00     0.032 A 
HETATM   21  C14 UNL     1       3.493  15.655  11.645  1.00  0.00     0.033 A 
HETATM   22  C28 UNL     1       2.529  16.194  12.467  1.00  0.00     0.032 A 
HETATM   23  C29 UNL     1       2.303  15.704  13.726  1.00  0.00     0.032 A 
BRANCH  21  24
HETATM   24  N3  UNL     1       3.705  16.189  10.338  1.00  0.00    -0.342 N 
ATOM     25  H3  UNL     1       3.171  15.788   9.567  1.00  0.00     0.167 HD
BRANCH  24  26
HETATM   26  C15 UNL     1       4.518  17.136  10.068  1.00  0.00     0.119 A 
HETATM   27  N4  UNL     1       4.170  18.443  10.329  1.00  0.00    -0.326 N 
HETATM   28  C16 UNL     1       4.984  19.455  10.064  1.00  0.00     0.134 A 
ATOM     29  H4  UNL     1       3.256  18.639  10.739  1.00  0.00     0.169 HD
HETATM   30  N6  UNL     1       6.192  19.114   9.512  1.00  0.00    -0.340 N 
HETATM   31  C22 UNL     1       6.578  17.873   9.239  1.00  0.00     0.047 A 
ATOM     32  H6  UNL     1       6.842  19.869   9.296  1.00  0.00     0.167 HD
HETATM   33  C23 UNL     1       7.821  17.596   8.680  1.00  0.00     0.030 A 
HETATM   34  C27 UNL     1       5.734  16.824   9.515  1.00  0.00     0.035 A 
HETATM   35  C24 UNL     1       8.212  16.309   8.402  1.00  0.00     0.002 A 
HETATM   36  C25 UNL     1       7.368  15.250   8.677  1.00  0.00     0.001 A 
HETATM   37  C26 UNL     1       6.128  15.541   9.236  1.00  0.00     0.017 A 
BRANCH  28  38
HETATM   38  C17 UNL     1       4.749  20.872  10.339  1.00  0.00     0.078 A 
HETATM   39  C18 UNL     1       3.869  21.677   9.614  1.00  0.00     0.035 A 
HETATM   40  C19 UNL     1       3.916  22.938  10.104  1.00  0.00     0.020 A 
HETATM   41  C20 UNL     1       4.821  22.951  11.139  1.00  0.00     0.091 A 
HETATM   42  N5  UNL     1       5.304  21.670  11.244  1.00  0.00    -0.358 N 
HETATM   43  C21 UNL     1       6.308  21.372  12.240  1.00  0.00     0.156 C 
ENDBRANCH  28  38
ENDBRANCH  24  26
ENDBRANCH  21  24
ENDBRANCH  16  18
ENDBRANCH  14  16
ENDBRANCH  12  14
ENDBRANCH  10  12
ENDBRANCH   7  10
ENDBRANCH   3   4
TORSDOF 9
ENDMDL
MODEL 5
REMARK VINA RESULT: -6.889926312      4.417      7.559
REMARK  9 active torsions:
REMARK  status: ('A' for Active; 'I' for Inactive)
REMARK    1  A    between atoms: C3_3  and  C4_4 
REMARK    2  A    between atoms: C7_7  and  C8_8 
REMARK    3  A    between atoms: C8_8  and  N1_10 
REMARK    4  A    between atoms: N1_10  and  C10_12 
REMARK    5  A    between atoms: C10_12  and  N2_14 
REMARK    6  A    between atoms: N2_14  and  C11_16 
REMARK    7  A    between atoms: C14_19  and  N3_20 
REMARK    8  A    between atoms: N3_20  and  C15_22 
REMARK    9  A    between atoms: C16_25  and  C17_26 
ROOT
HETATM    1  C1  UNL     1       5.734  10.375   6.238  1.00  0.00     0.112 C 
HETATM    2  C2  UNL     1       4.996  10.594   7.484  1.00  0.00    -0.105 C 
HETATM    3  C3  UNL     1       4.376  10.756   8.505  1.00  0.00    -0.067 C 
ENDROOT
BRANCH   3   4
HETATM    4  C4  UNL     1       3.614  10.936   9.716  1.00  0.00     0.017 A 
HETATM    5  C5  UNL     1       2.565  11.831   9.781  1.00  0.00     0.021 A 
HETATM    6  C6  UNL     1       1.823  12.028  10.917  1.00  0.00     0.011 A 
HETATM    7  C7  UNL     1       2.103  11.321  12.070  1.00  0.00    -0.036 A 
HETATM    8  C30 UNL     1       3.142  10.423  12.032  1.00  0.00     0.011 A 
HETATM    9  C31 UNL     1       3.874  10.241  10.881  1.00  0.00     0.021 A 
BRANCH   7  10
HETATM   10  C8  UNL     1       1.289  11.569  13.290  1.00  0.00     0.113 C 
HETATM   11  C9  UNL     1       0.100  10.675  13.358  1.00  0.00     0.037 C 
BRANCH  10  12
HETATM   12  N1  UNL     1       0.875  12.938  13.405  1.00  0.00    -0.359 N 
ATOM     13  H1  UNL     1       0.207  13.317  12.735  1.00  0.00     0.162 HD
BRANCH  12  14
HETATM   14  C10 UNL     1       1.383  13.781  14.441  1.00  0.00     0.172 C 
HETATM   15  S1  UNL     1       1.080  13.292  15.965  1.00  0.00    -0.041 SA
BRANCH  14  16
HETATM   16  N2  UNL     1       2.086  14.959  14.123  1.00  0.00    -0.333 N 
ATOM     17  H2  UNL     1       2.045  15.708  14.814  1.00  0.00     0.168 HD
BRANCH  16  18
HETATM   18  C11 UNL     1       2.836  15.225  12.967  1.00  0.00     0.034 A 
HETATM   19  C12 UNL     1       3.897  14.501  12.480  1.00  0.00     0.032 A 
HETATM   20  C13 UNL     1       4.602  14.877  11.327  1.00  0.00     0.032 A 
HETATM   21  C14 UNL     1       4.259  16.001  10.621  1.00  0.00     0.033 A 
HETATM   22  C28 UNL     1       3.198  16.741  11.091  1.00  0.00     0.032 A 
HETATM   23  C29 UNL     1       2.509  16.376  12.218  1.00  0.00     0.032 A 
BRANCH  21  24
HETATM   24  N3  UNL     1       4.957  16.409   9.444  1.00  0.00    -0.342 N 
ATOM     25  H3  UNL     1       4.418  16.518   8.586  1.00  0.00     0.167 HD
BRANCH  24  26
HETATM   26  C15 UNL     1       6.210  16.646   9.394  1.00  0.00     0.119 A 
HETATM   27  N4  UNL     1       7.104  15.615   9.202  1.00  0.00    -0.326 N 
HETATM   28  C16 UNL     1       8.412  15.817   9.143  1.00  0.00     0.134 A 
ATOM     29  H4  UNL     1       6.746  14.664   9.101  1.00  0.00     0.169 HD
HETATM   30  N6  UNL     1       8.816  17.120   9.289  1.00  0.00    -0.340 N 
HETATM   31  C22 UNL     1       8.000  18.150   9.477  1.00  0.00     0.047 A 
ATOM     32  H6  UNL     1       9.817  17.311   9.249  1.00  0.00     0.167 HD
HETATM   33  C23 UNL     1       8.477  19.450   9.615  1.00  0.00     0.030 A 
HETATM   34  C27 UNL     1       6.643  17.939   9.537  1.00  0.00     0.035 A 
HETATM   35  C24 UNL     1       7.625  20.510   9.809  1.00  0.00     0.002 A 
HETATM   36  C25 UNL     1       6.260  20.304   9.870  1.00  0.00     0.001 A 
HETATM   37  C26 UNL     1       5.797  19.001   9.730  1.00  0.00     0.017 A 
BRANCH  28  38
HETATM   38  C17 UNL     1       9.451  14.818   8.897  1.00  0.00     0.078 A 
HETATM   39  C18 UNL     1      10.393  14.416   9.843  1.00  0.00     0.035 A 
HETATM   40  C19 UNL     1      11.225  13.507   9.283  1.00  0.00     0.020 A 
HETATM   41  C20 UNL     1      10.824  13.321   7.981  1.00  0.00     0.091 A 
HETATM   42  N5  UNL     1       9.740  14.141   7.791  1.00  0.00    -0.358 N 
HETATM   43  C21 UNL     1       9.106  14.188   6.493  1.00  0.00     0.156 C 
ENDBRANCH  28  38
ENDBRANCH  24  26
ENDBRANCH  21  24
ENDBRANCH  16  18
ENDBRANCH  14  16
ENDBRANCH  12  14
ENDBRANCH  10  12
ENDBRANCH   7  10
ENDBRANCH   3   4
TORSDOF 9
ENDMDL
