MODEL 1
REMARK VINA RESULT: -10.065397848      0.000      0.000
REMARK  6 active torsions:
REMARK  status: ('A' for Active; 'I' for Inactive)
REMARK    1  A    between atoms: C6_7  and  N2_8 
REMARK       I    between atoms: N2_8  and  C7_10 
REMARK    2  A    between atoms: C7_10  and  C8_12 
REMARK    3  A    between atoms: C12_16  and  N3_17 
REMARK       I    between atoms: C13_19  and  N4_20 
REMARK       I    between atoms: C13_19  and  N6_34 
REMARK    4  A    between atoms: N4_20  and  C14_22 
REMARK    5  A    between atoms: C15_25  and  C16_26 
REMARK    6  A    between atoms: N6_34  and  C23_36 
ROOT
HETATM    1  N1  UNL     1      -4.076  19.920  22.830  1.00  0.00    -0.191 NA
HETATM    2  C1  UNL     1      -4.381  19.035  22.170  1.00  0.00     0.099 C 
HETATM    3  C2  UNL     1      -4.744  17.940  21.332  1.00  0.00     0.046 A 
HETATM    4  C3  UNL     1      -6.046  17.509  21.265  1.00  0.00     0.023 A 
HETATM    5  C4  UNL     1      -6.391  16.451  20.458  1.00  0.00     0.004 A 
HETATM    6  C5  UNL     1      -5.444  15.822  19.719  1.00  0.00     0.029 A 
HETATM    7  C6  UNL     1      -4.108  16.206  19.740  1.00  0.00     0.036 A 
HETATM    8  C29 UNL     1      -3.791  17.264  20.553  1.00  0.00     0.052 A 
ENDROOT
BRANCH   7   9
HETATM    9  N2  UNL     1      -3.157  15.519  18.964  1.00  0.00    -0.323 N 
HETATM   10  C7  UNL     1      -2.591  14.266  19.144  1.00  0.00     0.256 C 
HETATM   11  O1  UNL     1      -2.863  13.511  20.093  1.00  0.00    -0.267 OA
ATOM     12  H2  UNL     1      -2.833  16.022  18.139  1.00  0.00     0.169 HD
BRANCH  10  13
HETATM   13  C8  UNL     1      -1.591  13.727  18.189  1.00  0.00     0.034 A 
HETATM   14  C9  UNL     1      -0.297  13.503  18.571  1.00  0.00     0.017 A 
HETATM   15  C10 UNL     1       0.647  12.979  17.696  1.00  0.00     0.003 A 
HETATM   16  C11 UNL     1       0.239  12.686  16.416  1.00  0.00     0.030 A 
HETATM   17  C12 UNL     1      -1.066  12.894  15.979  1.00  0.00     0.050 A 
HETATM   18  C28 UNL     1      -1.967  13.423  16.902  1.00  0.00     0.047 A 
BRANCH  17  19
HETATM   19  N3  UNL     1      -1.547  12.617  14.694  1.00  0.00    -0.192 N 
HETATM   20  C13 UNL     1      -0.974  12.849  13.624  1.00  0.00     0.685 C 
HETATM   21  N4  UNL     1       0.297  13.453  13.547  1.00  0.00    -0.170 N 
HETATM   22  N6  UNL     1      -1.599  12.539  12.385  1.00  0.00    -0.190 N 
ATOM     23  H4  UNL     1       0.448  14.347  14.014  1.00  0.00     0.186 HD
ATOM     24  H6  UNL     1      -1.579  13.267  11.672  1.00  0.00     0.184 HD
ATOM     25  H3  UNL     1      -2.465  12.177  14.635  1.00  0.00     0.184 HD
BRANCH  21  26
HETATM   26  C14 UNL     1       1.289  12.904  12.895  1.00  0.00     0.164 A 
HETATM   27  N5  UNL     1       1.851  11.714  13.063  1.00  0.00    -0.335 N 
HETATM   28  C15 UNL     1       2.837  11.364  12.279  1.00  0.00     0.051 A 
ATOM     29  H5  UNL     1       1.519  11.082  13.792  1.00  0.00     0.168 HD
HETATM   30  C22 UNL     1       3.230  12.267  11.320  1.00  0.00     0.083 A 
HETATM   31  S1  UNL     1       2.157  13.569  11.601  1.00  0.00    -0.063 SA
BRANCH  28  32
HETATM   32  C16 UNL     1       3.534  10.053  12.393  1.00  0.00    -0.009 A 
HETATM   33  C17 UNL     1       3.727   9.492  13.627  1.00  0.00     0.014 A 
HETATM   34  C18 UNL     1       4.374   8.259  13.766  1.00  0.00     0.001 A 
HETATM   35  C19 UNL     1       4.830   7.580  12.666  1.00  0.00     0.000 A 
HETATM   36  C20 UNL     1       4.641   8.135  11.418  1.00  0.00     0.001 A 
HETATM   37  C21 UNL     1       3.998   9.358  11.310  1.00  0.00     0.014 A 
ENDBRANCH  28  32
ENDBRANCH  21  26
BRANCH  22  38
HETATM   38  C23 UNL     1      -2.242  11.342  12.037  1.00  0.00     0.064 A 
HETATM   39  C24 UNL     1      -1.650  10.101  11.956  1.00  0.00     0.033 A 
HETATM   40  C25 UNL     1      -2.319   8.940  11.613  1.00  0.00     0.019 A 
HETATM   41  C26 UNL     1      -3.669   9.054  11.337  1.00  0.00     0.088 A 
HETATM   42  N7  UNL     1      -4.276  10.251  11.408  1.00  0.00    -0.373 N 
HETATM   43  C27 UNL     1      -3.609  11.368  11.744  1.00  0.00     0.117 A 
ATOM     44  H7  UNL     1      -5.272  10.314  11.201  1.00  0.00     0.164 HD
ENDBRANCH  22  38
ENDBRANCH  17  19
ENDBRANCH  10  13
ENDBRANCH   7   9
TORSDOF 6
ENDMDL
MODEL 2
REMARK VINA RESULT: -9.611462095      6.912     11.546
REMARK  6 active torsions:
REMARK  status: ('A' for Active; 'I' for Inactive)
REMARK    1  A    between atoms: C6_7  and  N2_8 
REMARK       I    between atoms: N2_8  and  C7_10 
REMARK    2  A    between atoms: C7_10  and  C8_12 
REMARK    3  A    between atoms: C12_16  and  N3_17 
REMARK       I    between atoms: C13_19  and  N4_20 
REMARK       I    between atoms: C13_19  and  N6_34 
REMARK    4  A    between atoms: N4_20  and  C14_22 
REMARK    5  A    between atoms: C15_25  and  C16_26 
REMARK    6  A    between atoms: N6_34  and  C23_36 
ROOT
HETATM    1  N1  UNL     1       4.165   8.140  14.716  1.00  0.00    -0.191 NA
HETATM    2  C1  UNL     1       3.682   8.891  13.999  1.00  0.00     0.099 C 
HETATM    3  C2  UNL     1       3.102   9.834  13.101  1.00  0.00     0.046 A 
HETATM    4  C3  UNL     1       1.867  10.380  13.357  1.00  0.00     0.023 A 
HETATM    5  C4  UNL     1       1.311  11.288  12.487  1.00  0.00     0.004 A 
HETATM    6  C5  UNL     1       1.980  11.653  11.365  1.00  0.00     0.029 A 
HETATM    7  C6  UNL     1       3.231  11.140  11.045  1.00  0.00     0.036 A 
HETATM    8  C29 UNL     1       3.764  10.236  11.929  1.00  0.00     0.052 A 
ENDROOT
BRANCH   7   9
HETATM    9  N2  UNL     1       3.885  11.540   9.866  1.00  0.00    -0.323 N 
HETATM   10  C7  UNL     1       3.680  11.148   8.551  1.00  0.00     0.256 C 
HETATM   11  O1  UNL     1       2.823  10.320   8.199  1.00  0.00    -0.267 OA
ATOM     12  H2  UNL     1       4.626  12.226   9.998  1.00  0.00     0.169 HD
BRANCH  10  13
HETATM   13  C8  UNL     1       4.496  11.705   7.444  1.00  0.00     0.034 A 
HETATM   14  C9  UNL     1       4.471  11.146   6.196  1.00  0.00     0.017 A 
HETATM   15  C10 UNL     1       5.212  11.666   5.143  1.00  0.00     0.003 A 
HETATM   16  C11 UNL     1       5.984  12.777   5.392  1.00  0.00     0.030 A 
HETATM   17  C12 UNL     1       6.044  13.382   6.643  1.00  0.00     0.050 A 
HETATM   18  C28 UNL     1       5.279  12.814   7.660  1.00  0.00     0.047 A 
BRANCH  17  19
HETATM   19  N3  UNL     1       6.805  14.513   6.963  1.00  0.00    -0.192 N 
HETATM   20  C13 UNL     1       6.380  15.599   7.374  1.00  0.00     0.685 C 
HETATM   21  N4  UNL     1       5.011  15.859   7.585  1.00  0.00    -0.170 N 
HETATM   22  N6  UNL     1       7.272  16.675   7.631  1.00  0.00    -0.190 N 
ATOM     23  H4  UNL     1       4.355  15.702   6.820  1.00  0.00     0.186 HD
ATOM     24  H6  UNL     1       7.007  17.584   7.253  1.00  0.00     0.184 HD
ATOM     25  H3  UNL     1       7.815  14.432   6.846  1.00  0.00     0.184 HD
BRANCH  21  26
HETATM   26  C14 UNL     1       4.555  16.296   8.729  1.00  0.00     0.164 A 
HETATM   27  N5  UNL     1       4.279  15.622   9.839  1.00  0.00    -0.335 N 
HETATM   28  C15 UNL     1       3.837  16.274  10.882  1.00  0.00     0.051 A 
ATOM     29  H5  UNL     1       4.412  14.611   9.877  1.00  0.00     0.168 HD
HETATM   30  C22 UNL     1       3.683  17.635  10.755  1.00  0.00     0.083 A 
HETATM   31  S1  UNL     1       4.187  17.898   9.142  1.00  0.00    -0.063 SA
BRANCH  28  32
HETATM   32  C16 UNL     1       3.495  15.606  12.168  1.00  0.00    -0.009 A 
HETATM   33  C17 UNL     1       4.177  14.483  12.551  1.00  0.00     0.014 A 
HETATM   34  C18 UNL     1       3.883  13.836  13.757  1.00  0.00     0.001 A 
HETATM   35  C19 UNL     1       2.902  14.314  14.587  1.00  0.00     0.000 A 
HETATM   36  C20 UNL     1       2.209  15.445  14.212  1.00  0.00     0.001 A 
HETATM   37  C21 UNL     1       2.520  16.065  13.011  1.00  0.00     0.014 A 
ENDBRANCH  28  32
ENDBRANCH  21  26
BRANCH  22  38
HETATM   38  C23 UNL     1       8.478  16.624   8.346  1.00  0.00     0.064 A 
HETATM   39  C24 UNL     1       8.655  16.064   9.591  1.00  0.00     0.033 A 
HETATM   40  C25 UNL     1       9.863  16.028  10.265  1.00  0.00     0.019 A 
HETATM   41  C26 UNL     1      10.951  16.599   9.629  1.00  0.00     0.088 A 
HETATM   42  N7  UNL     1      10.809  17.154   8.413  1.00  0.00    -0.373 N 
HETATM   43  C27 UNL     1       9.628  17.178   7.775  1.00  0.00     0.117 A 
ATOM     44  H7  UNL     1      11.624  17.569   7.962  1.00  0.00     0.164 HD
ENDBRANCH  22  38
ENDBRANCH  17  19
ENDBRANCH  10  13
ENDBRANCH   7   9
TORSDOF 6
ENDMDL
MODEL 3
REMARK VINA RESULT: -9.429761694      6.219     11.863
REMARK  6 active torsions:
REMARK  status: ('A' for Active; 'I' for Inactive)
REMARK    1  A    between atoms: C6_7  and  N2_8 
REMARK       I    between atoms: N2_8  and  C7_10 
REMARK    2  A    between atoms: C7_10  and  C8_12 
REMARK    3  A    between atoms: C12_16  and  N3_17 
REMARK       I    between atoms: C13_19  and  N4_20 
REMARK       I    between atoms: C13_19  and  N6_34 
REMARK    4  A    between atoms: N4_20  and  C14_22 
REMARK    5  A    between atoms: C15_25  and  C16_26 
REMARK    6  A    between atoms: N6_34  and  C23_36 
ROOT
HETATM    1  N1  UNL     1      12.869  13.377   6.611  1.00  0.00    -0.191 NA
HETATM    2  C1  UNL     1      12.267  13.905   7.429  1.00  0.00     0.099 C 
HETATM    3  C2  UNL     1      11.504  14.575   8.430  1.00  0.00     0.046 A 
HETATM    4  C3  UNL     1      12.084  14.958   9.615  1.00  0.00     0.023 A 
HETATM    5  C4  UNL     1      11.345  15.601  10.579  1.00  0.00     0.004 A 
HETATM    6  C5  UNL     1      10.032  15.863  10.367  1.00  0.00     0.029 A 
HETATM    7  C6  UNL     1       9.382  15.503   9.192  1.00  0.00     0.036 A 
HETATM    8  C29 UNL     1      10.142  14.863   8.247  1.00  0.00     0.052 A 
ENDROOT
BRANCH   7   9
HETATM    9  N2  UNL     1       8.015  15.787   9.018  1.00  0.00    -0.323 N 
HETATM   10  C7  UNL     1       7.352  17.003   8.973  1.00  0.00     0.256 C 
HETATM   11  O1  UNL     1       7.914  18.105   9.090  1.00  0.00    -0.267 OA
ATOM     12  H2  UNL     1       7.418  14.968   8.909  1.00  0.00     0.169 HD
BRANCH  10  13
HETATM   13  C8  UNL     1       5.882  17.074   8.779  1.00  0.00     0.034 A 
HETATM   14  C9  UNL     1       5.342  17.713   7.696  1.00  0.00     0.017 A 
HETATM   15  C10 UNL     1       3.970  17.772   7.488  1.00  0.00     0.003 A 
HETATM   16  C11 UNL     1       3.156  17.159   8.412  1.00  0.00     0.030 A 
HETATM   17  C12 UNL     1       3.657  16.497   9.529  1.00  0.00     0.050 A 
HETATM   18  C28 UNL     1       5.041  16.473   9.685  1.00  0.00     0.047 A 
BRANCH  17  19
HETATM   19  N3  UNL     1       2.886  15.853  10.505  1.00  0.00    -0.192 N 
HETATM   20  C13 UNL     1       2.412  14.713  10.439  1.00  0.00     0.685 C 
HETATM   21  N4  UNL     1       2.589  13.869   9.324  1.00  0.00    -0.170 N 
HETATM   22  N6  UNL     1       1.619  14.197  11.500  1.00  0.00    -0.190 N 
ATOM     23  H4  UNL     1       2.328  14.211   8.400  1.00  0.00     0.186 HD
ATOM     24  H6  UNL     1       0.743  13.748  11.235  1.00  0.00     0.184 HD
ATOM     25  H3  UNL     1       2.697  16.379  11.358  1.00  0.00     0.184 HD
BRANCH  21  26
HETATM   26  C14 UNL     1       3.076  12.661   9.438  1.00  0.00     0.164 A 
HETATM   27  N5  UNL     1       3.199  11.901  10.518  1.00  0.00    -0.335 N 
HETATM   28  C15 UNL     1       3.713  10.705  10.394  1.00  0.00     0.051 A 
ATOM     29  H5  UNL     1       2.898  12.244  11.431  1.00  0.00     0.168 HD
HETATM   30  C22 UNL     1       4.097  10.311   9.134  1.00  0.00     0.083 A 
HETATM   31  S1  UNL     1       3.695  11.685   8.199  1.00  0.00    -0.063 SA
BRANCH  28  32
HETATM   32  C16 UNL     1       3.897   9.781  11.548  1.00  0.00    -0.009 A 
HETATM   33  C17 UNL     1       4.477   8.556  11.351  1.00  0.00     0.014 A 
HETATM   34  C18 UNL     1       4.669   7.670  12.417  1.00  0.00     0.001 A 
HETATM   35  C19 UNL     1       4.281   8.007  13.687  1.00  0.00     0.000 A 
HETATM   36  C20 UNL     1       3.696   9.237  13.898  1.00  0.00     0.001 A 
HETATM   37  C21 UNL     1       3.517  10.096  12.824  1.00  0.00     0.014 A 
ENDBRANCH  28  32
ENDBRANCH  21  26
BRANCH  22  38
HETATM   38  C23 UNL     1       1.909  14.238  12.872  1.00  0.00     0.064 A 
HETATM   39  C24 UNL     1       3.034  13.724  13.476  1.00  0.00     0.033 A 
HETATM   40  C25 UNL     1       3.287  13.788  14.834  1.00  0.00     0.019 A 
HETATM   41  C26 UNL     1       2.336  14.413  15.620  1.00  0.00     0.088 A 
HETATM   42  N7  UNL     1       1.226  14.924  15.059  1.00  0.00    -0.373 N 
HETATM   43  C27 UNL     1       0.998  14.853  13.738  1.00  0.00     0.117 A 
ATOM     44  H7  UNL     1       0.537  15.381  15.656  1.00  0.00     0.164 HD
ENDBRANCH  22  38
ENDBRANCH  17  19
ENDBRANCH  10  13
ENDBRANCH   7   9
TORSDOF 6
ENDMDL
MODEL 4
REMARK VINA RESULT: -9.330798587      7.043      9.505
REMARK  6 active torsions:
REMARK  status: ('A' for Active; 'I' for Inactive)
REMARK    1  A    between atoms: C6_7  and  N2_8 
REMARK       I    between atoms: N2_8  and  C7_10 
REMARK    2  A    between atoms: C7_10  and  C8_12 
REMARK    3  A    between atoms: C12_16  and  N3_17 
REMARK       I    between atoms: C13_19  and  N4_20 
REMARK       I    between atoms: C13_19  and  N6_34 
REMARK    4  A    between atoms: N4_20  and  C14_22 
REMARK    5  A    between atoms: C15_25  and  C16_26 
REMARK    6  A    between atoms: N6_34  and  C23_36 
ROOT
HETATM    1  N1  UNL     1       8.257  25.979  11.884  1.00  0.00    -0.191 NA
HETATM    2  C1  UNL     1       7.291  25.371  11.976  1.00  0.00     0.099 C 
HETATM    3  C2  UNL     1       6.095  24.601  12.071  1.00  0.00     0.046 A 
HETATM    4  C3  UNL     1       4.923  25.175  12.498  1.00  0.00     0.023 A 
HETATM    5  C4  UNL     1       3.773  24.427  12.591  1.00  0.00     0.004 A 
HETATM    6  C5  UNL     1       3.787  23.113  12.260  1.00  0.00     0.029 A 
HETATM    7  C6  UNL     1       4.938  22.469  11.822  1.00  0.00     0.036 A 
HETATM    8  C29 UNL     1       6.072  23.237  11.738  1.00  0.00     0.052 A 
ENDROOT
BRANCH   7   9
HETATM    9  N2  UNL     1       4.910  21.100  11.498  1.00  0.00    -0.323 N 
HETATM   10  C7  UNL     1       4.337  20.447  10.418  1.00  0.00     0.256 C 
HETATM   11  O1  UNL     1       3.716  21.023   9.508  1.00  0.00    -0.267 OA
ATOM     12  H2  UNL     1       5.385  20.492  12.165  1.00  0.00     0.169 HD
BRANCH  10  13
HETATM   13  C8  UNL     1       4.427  18.973  10.271  1.00  0.00     0.034 A 
HETATM   14  C9  UNL     1       5.426  18.395   9.536  1.00  0.00     0.017 A 
HETATM   15  C10 UNL     1       5.537  17.016   9.405  1.00  0.00     0.003 A 
HETATM   16  C11 UNL     1       4.601  16.236  10.044  1.00  0.00     0.030 A 
HETATM   17  C12 UNL     1       3.567  16.776  10.802  1.00  0.00     0.050 A 
HETATM   18  C28 UNL     1       3.507  18.164  10.896  1.00  0.00     0.047 A 
BRANCH  17  19
HETATM   19  N3  UNL     1       2.586  16.041  11.478  1.00  0.00    -0.192 N 
HETATM   20  C13 UNL     1       2.043  15.000  11.089  1.00  0.00     0.685 C 
HETATM   21  N4  UNL     1       2.351  14.384   9.859  1.00  0.00    -0.170 N 
HETATM   22  N6  UNL     1       1.034  14.375  11.871  1.00  0.00    -0.190 N 
ATOM     23  H4  UNL     1       2.288  14.934   9.003  1.00  0.00     0.186 HD
ATOM     24  H6  UNL     1       0.187  14.092  11.378  1.00  0.00     0.184 HD
ATOM     25  H3  UNL     1       2.288  16.401  12.384  1.00  0.00     0.184 HD
BRANCH  21  26
HETATM   26  C14 UNL     1       2.713  13.130   9.782  1.00  0.00     0.164 A 
HETATM   27  N5  UNL     1       3.025  12.282  10.753  1.00  0.00    -0.335 N 
HETATM   28  C15 UNL     1       3.353  11.055  10.441  1.00  0.00     0.051 A 
ATOM     29  H5  UNL     1       3.008  12.582  11.729  1.00  0.00     0.168 HD
HETATM   30  C22 UNL     1       3.354  10.724   9.106  1.00  0.00     0.083 A 
HETATM   31  S1  UNL     1       2.880  12.197   8.377  1.00  0.00    -0.063 SA
BRANCH  28  32
HETATM   32  C16 UNL     1       3.724  10.033  11.459  1.00  0.00    -0.009 A 
HETATM   33  C17 UNL     1       4.306   8.860  11.062  1.00  0.00     0.014 A 
HETATM   34  C18 UNL     1       4.671   7.884  11.995  1.00  0.00     0.001 A 
HETATM   35  C19 UNL     1       4.454   8.080  13.334  1.00  0.00     0.000 A 
HETATM   36  C20 UNL     1       3.868   9.258  13.746  1.00  0.00     0.001 A 
HETATM   37  C21 UNL     1       3.516  10.208  12.800  1.00  0.00     0.014 A 
ENDBRANCH  28  32
ENDBRANCH  21  26
BRANCH  22  38
HETATM   38  C23 UNL     1       1.074  14.104  13.247  1.00  0.00     0.064 A 
HETATM   39  C24 UNL     1       1.917  13.212  13.871  1.00  0.00     0.033 A 
HETATM   40  C25 UNL     1       1.931  12.975  15.233  1.00  0.00     0.019 A 
HETATM   41  C26 UNL     1       1.030  13.690  16.002  1.00  0.00     0.088 A 
HETATM   42  N7  UNL     1       0.193  14.568  15.422  1.00  0.00    -0.373 N 
HETATM   43  C27 UNL     1       0.196  14.785  14.097  1.00  0.00     0.117 A 
ATOM     44  H7  UNL     1      -0.463  15.084  16.007  1.00  0.00     0.164 HD
ENDBRANCH  22  38
ENDBRANCH  17  19
ENDBRANCH  10  13
ENDBRANCH   7   9
TORSDOF 6
ENDMDL
MODEL 5
REMARK VINA RESULT: -9.314405307      6.139     11.314
REMARK  6 active torsions:
REMARK  status: ('A' for Active; 'I' for Inactive)
REMARK    1  A    between atoms: C6_7  and  N2_8 
REMARK       I    between atoms: N2_8  and  C7_10 
REMARK    2  A    between atoms: C7_10  and  C8_12 
REMARK    3  A    between atoms: C12_16  and  N3_17 
REMARK       I    between atoms: C13_19  and  N4_20 
REMARK       I    between atoms: C13_19  and  N6_34 
REMARK    4  A    between atoms: N4_20  and  C14_22 
REMARK    5  A    between atoms: C15_25  and  C16_26 
REMARK    6  A    between atoms: N6_34  and  C23_36 
ROOT
HETATM    1  N1  UNL     1      -1.412  11.827  12.669  1.00  0.00    -0.191 NA
HETATM    2  C1  UNL     1      -0.313  11.523  12.570  1.00  0.00     0.099 C 
HETATM    3  C2  UNL     1       1.053  11.143  12.422  1.00  0.00     0.046 A 
HETATM    4  C3  UNL     1       1.693  10.427  13.405  1.00  0.00     0.023 A 
HETATM    5  C4  UNL     1       3.010  10.064  13.259  1.00  0.00     0.004 A 
HETATM    6  C5  UNL     1       3.692  10.412  12.140  1.00  0.00     0.029 A 
HETATM    7  C6  UNL     1       3.107  11.136  11.108  1.00  0.00     0.036 A 
HETATM    8  C29 UNL     1       1.792  11.485  11.278  1.00  0.00     0.052 A 
ENDROOT
BRANCH   7   9
HETATM    9  N2  UNL     1       3.855  11.483   9.969  1.00  0.00    -0.323 N 
HETATM   10  C7  UNL     1       3.716  11.082   8.649  1.00  0.00     0.256 C 
HETATM   11  O1  UNL     1       2.840  10.294   8.252  1.00  0.00    -0.267 OA
ATOM     12  H2  UNL     1       4.622  12.133  10.141  1.00  0.00     0.169 HD
BRANCH  10  13
HETATM   13  C8  UNL     1       4.630  11.579   7.590  1.00  0.00     0.034 A 
HETATM   14  C9  UNL     1       4.711  10.954   6.376  1.00  0.00     0.017 A 
HETATM   15  C10 UNL     1       5.545  11.418   5.366  1.00  0.00     0.003 A 
HETATM   16  C11 UNL     1       6.299  12.539   5.624  1.00  0.00     0.030 A 
HETATM   17  C12 UNL     1       6.252  13.209   6.843  1.00  0.00     0.050 A 
HETATM   18  C28 UNL     1       5.397  12.697   7.816  1.00  0.00     0.047 A 
BRANCH  17  19
HETATM   19  N3  UNL     1       6.989  14.354   7.169  1.00  0.00    -0.192 N 
HETATM   20  C13 UNL     1       6.537  15.445   7.534  1.00  0.00     0.685 C 
HETATM   21  N4  UNL     1       5.158  15.698   7.676  1.00  0.00    -0.170 N 
HETATM   22  N6  UNL     1       7.408  16.536   7.804  1.00  0.00    -0.190 N 
ATOM     23  H4  UNL     1       4.539  15.517   6.887  1.00  0.00     0.186 HD
ATOM     24  H6  UNL     1       7.154  17.433   7.393  1.00  0.00     0.184 HD
ATOM     25  H3  UNL     1       8.004  14.279   7.099  1.00  0.00     0.184 HD
BRANCH  21  26
HETATM   26  C14 UNL     1       4.647  16.158   8.789  1.00  0.00     0.164 A 
HETATM   27  N5  UNL     1       4.355  15.513   9.911  1.00  0.00    -0.335 N 
HETATM   28  C15 UNL     1       3.854  16.186  10.914  1.00  0.00     0.051 A 
ATOM     29  H5  UNL     1       4.520  14.510   9.990  1.00  0.00     0.168 HD
HETATM   30  C22 UNL     1       3.660  17.535  10.734  1.00  0.00     0.083 A 
HETATM   31  S1  UNL     1       4.212  17.759   9.131  1.00  0.00    -0.063 SA
BRANCH  28  32
HETATM   32  C16 UNL     1       3.490  15.551  12.212  1.00  0.00    -0.009 A 
HETATM   33  C17 UNL     1       4.132  14.411  12.613  1.00  0.00     0.014 A 
HETATM   34  C18 UNL     1       3.816  13.795  13.829  1.00  0.00     0.001 A 
HETATM   35  C19 UNL     1       2.853  14.320  14.650  1.00  0.00     0.000 A 
HETATM   36  C20 UNL     1       2.199  15.468  14.256  1.00  0.00     0.001 A 
HETATM   37  C21 UNL     1       2.532  16.057  13.046  1.00  0.00     0.014 A 
ENDBRANCH  28  32
ENDBRANCH  21  26
BRANCH  22  38
HETATM   38  C23 UNL     1       8.581  16.513   8.574  1.00  0.00     0.064 A 
HETATM   39  C24 UNL     1       8.680  16.096   9.883  1.00  0.00     0.033 A 
HETATM   40  C25 UNL     1       9.856  16.084  10.609  1.00  0.00     0.019 A 
HETATM   41  C26 UNL     1      10.997  16.522   9.962  1.00  0.00     0.088 A 
HETATM   42  N7  UNL     1      10.933  16.935   8.684  1.00  0.00    -0.373 N 
HETATM   43  C27 UNL     1       9.780  16.939   7.994  1.00  0.00     0.117 A 
ATOM     44  H7  UNL     1      11.785  17.254   8.224  1.00  0.00     0.164 HD
ENDBRANCH  22  38
ENDBRANCH  17  19
ENDBRANCH  10  13
ENDBRANCH   7   9
TORSDOF 6
ENDMDL
