MODEL 1
REMARK VINA RESULT: -10.297246101      0.000      0.000
REMARK  5 active torsions:
REMARK  status: ('A' for Active; 'I' for Inactive)
REMARK    1  A    between atoms: C6_8  and  C7_9 
REMARK    2  A    between atoms: C17_23  and  C18_24 
REMARK    3  A    between atoms: N5_30  and  C22_32 
REMARK    4  A    between atoms: C25_35  and  N6_36 
REMARK    5  A    between atoms: N6_36  and  S1_38 
ROOT
HETATM    1  C1  UNL     1       4.430   9.986   8.083  1.00  0.00     0.049 C 
HETATM    2  C2  UNL     1       4.127  10.307   9.490  1.00  0.00    -0.049 A 
HETATM    3  C3  UNL     1       4.082   9.344  10.512  1.00  0.00     0.010 A 
HETATM    4  C4  UNL     1       3.797   9.686  11.818  1.00  0.00     0.032 A 
HETATM    5  C5  UNL     1       3.550  11.008  12.143  1.00  0.00     0.061 A 
HETATM    6  N1  UNL     1       3.231  11.695  13.258  1.00  0.00    -0.339 N 
ATOM      7  H1  UNL     1       3.120  11.269  14.178  1.00  0.00     0.167 HD
HETATM    8  C6  UNL     1       3.076  13.008  13.011  1.00  0.00     0.133 A 
HETATM    9  N3  UNL     1       3.308  13.144  11.687  1.00  0.00    -0.338 N 
ATOM     10  H3  UNL     1       3.271  14.026  11.177  1.00  0.00     0.167 HD
HETATM   11  C16 UNL     1       3.595  11.958  11.140  1.00  0.00     0.072 A 
HETATM   12  C17 UNL     1       3.880  11.612   9.826  1.00  0.00     0.009 A 
ENDROOT
BRANCH  12  13
HETATM   13  C18 UNL     1       3.834  12.665   8.828  1.00  0.00    -0.018 A 
HETATM   14  C19 UNL     1       2.616  12.959   8.191  1.00  0.00     0.029 A 
HETATM   15  C20 UNL     1       2.573  13.946   7.239  1.00  0.00     0.090 A 
HETATM   16  N4  UNL     1       3.662  14.640   6.897  1.00  0.00    -0.352 N 
HETATM   17  C21 UNL     1       4.891  14.407   7.478  1.00  0.00     0.106 A 
ATOM     18  H4  UNL     1       3.582  15.366   6.184  1.00  0.00     0.166 HD
HETATM   19  N5  UNL     1       5.887  15.104   7.088  1.00  0.00    -0.342 N 
HETATM   20  C29 UNL     1       4.919  13.416   8.431  1.00  0.00     0.060 A 
ATOM     21  H5  UNL     1       5.680  15.791   6.363  1.00  0.00     0.167 HD
BRANCH  19  22
HETATM   22  C22 UNL     1       7.205  15.064   7.504  1.00  0.00     0.033 A 
HETATM   23  C23 UNL     1       7.800  15.779   8.514  1.00  0.00     0.032 A 
HETATM   24  C24 UNL     1       9.126  15.675   8.797  1.00  0.00     0.032 A 
HETATM   25  C25 UNL     1       9.966  14.825   8.067  1.00  0.00     0.042 A 
HETATM   26  C27 UNL     1       9.384  14.111   7.068  1.00  0.00     0.032 A 
HETATM   27  C28 UNL     1       8.050  14.209   6.778  1.00  0.00     0.032 A 
BRANCH  25  28
HETATM   28  N6  UNL     1      11.344  14.730   8.337  1.00  0.00    -0.285 N 
ATOM     29  H6  UNL     1      11.994  15.337   7.838  1.00  0.00     0.178 HD
BRANCH  28  30
HETATM   30  S1  UNL     1      11.950  13.616   9.490  1.00  0.00     0.227 S 
HETATM   31  C26 UNL     1      12.813  14.554  10.753  1.00  0.00     0.186 C 
HETATM   32  O1  UNL     1      10.777  12.932  10.194  1.00  0.00    -0.206 OA
HETATM   33  O2  UNL     1      12.843  12.576   8.880  1.00  0.00    -0.206 OA
ENDBRANCH  28  30
ENDBRANCH  25  28
ENDBRANCH  19  22
ENDBRANCH  12  13
BRANCH   8  34
HETATM   34  C7  UNL     1       2.683  14.077  13.940  1.00  0.00     0.077 A 
HETATM   35  C8  UNL     1       2.638  13.763  15.298  1.00  0.00     0.034 A 
HETATM   36  C9  UNL     1       2.275  14.726  16.211  1.00  0.00     0.016 A 
HETATM   37  C10 UNL     1       1.950  16.016  15.789  1.00  0.00    -0.009 A 
HETATM   38  C11 UNL     1       1.592  17.001  16.679  1.00  0.00     0.013 A 
HETATM   39  C15 UNL     1       2.004  16.296  14.436  1.00  0.00     0.043 A 
HETATM   40  C12 UNL     1       1.280  18.290  16.247  1.00  0.00     0.001 A 
HETATM   41  C13 UNL     1       1.342  18.542  14.910  1.00  0.00     0.002 A 
HETATM   42  C14 UNL     1       1.695  17.574  14.011  1.00  0.00     0.030 A 
HETATM   43  N2  UNL     1       2.368  15.315  13.580  1.00  0.00    -0.353 N 
ATOM     44  H2  UNL     1       2.403  15.543  12.586  1.00  0.00     0.166 HD
ENDBRANCH   8  34
TORSDOF 5
ENDMDL
MODEL 2
REMARK VINA RESULT: -10.264151754      1.135      1.274
REMARK  5 active torsions:
REMARK  status: ('A' for Active; 'I' for Inactive)
REMARK    1  A    between atoms: C6_8  and  C7_9 
REMARK    2  A    between atoms: C17_23  and  C18_24 
REMARK    3  A    between atoms: N5_30  and  C22_32 
REMARK    4  A    between atoms: C25_35  and  N6_36 
REMARK    5  A    between atoms: N6_36  and  S1_38 
ROOT
HETATM    1  C1  UNL     1       4.246   9.503   9.239  1.00  0.00     0.049 C 
HETATM    2  C2  UNL     1       3.877  10.101  10.535  1.00  0.00    -0.049 A 
HETATM    3  C3  UNL     1       3.895   9.394  11.748  1.00  0.00     0.010 A 
HETATM    4  C4  UNL     1       3.545   9.992  12.942  1.00  0.00     0.032 A 
HETATM    5  C5  UNL     1       3.165  11.322  12.957  1.00  0.00     0.061 A 
HETATM    6  N1  UNL     1       2.752  12.207  13.885  1.00  0.00    -0.339 N 
ATOM      7  H1  UNL     1       2.658  11.991  14.878  1.00  0.00     0.167 HD
HETATM    8  C6  UNL     1       2.481  13.409  13.346  1.00  0.00     0.133 A 
HETATM    9  N3  UNL     1       2.734  13.266  12.027  1.00  0.00    -0.338 N 
ATOM     10  H3  UNL     1       2.626  14.002  11.330  1.00  0.00     0.167 HD
HETATM   11  C16 UNL     1       3.146  12.021  11.765  1.00  0.00     0.072 A 
HETATM   12  C17 UNL     1       3.498  11.417  10.565  1.00  0.00     0.009 A 
ENDROOT
BRANCH  12  13
HETATM   13  C18 UNL     1       3.378  12.208   9.354  1.00  0.00    -0.018 A 
HETATM   14  C19 UNL     1       2.104  12.466   8.821  1.00  0.00     0.029 A 
HETATM   15  C20 UNL     1       1.990  13.204   7.669  1.00  0.00     0.090 A 
HETATM   16  N4  UNL     1       3.062  13.687   7.036  1.00  0.00    -0.352 N 
HETATM   17  C21 UNL     1       4.343  13.474   7.499  1.00  0.00     0.106 A 
ATOM     18  H4  UNL     1       2.928  14.231   6.183  1.00  0.00     0.166 HD
HETATM   19  N5  UNL     1       5.317  13.959   6.830  1.00  0.00    -0.342 N 
HETATM   20  C29 UNL     1       4.442  12.735   8.654  1.00  0.00     0.060 A 
ATOM     21  H5  UNL     1       5.054  14.475   5.991  1.00  0.00     0.167 HD
BRANCH  19  22
HETATM   22  C22 UNL     1       6.676  13.886   7.077  1.00  0.00     0.033 A 
HETATM   23  C23 UNL     1       7.470  14.792   7.735  1.00  0.00     0.032 A 
HETATM   24  C24 UNL     1       8.812  14.618   7.874  1.00  0.00     0.032 A 
HETATM   25  C25 UNL     1       9.463  13.494   7.350  1.00  0.00     0.042 A 
HETATM   26  C27 UNL     1       8.683  12.592   6.700  1.00  0.00     0.032 A 
HETATM   27  C28 UNL     1       7.332  12.759   6.556  1.00  0.00     0.032 A 
BRANCH  25  28
HETATM   28  N6  UNL     1      10.854  13.320   7.469  1.00  0.00    -0.285 N 
ATOM     29  H6  UNL     1      11.410  13.146   6.631  1.00  0.00     0.178 HD
BRANCH  28  30
HETATM   30  S1  UNL     1      11.633  13.393   8.994  1.00  0.00     0.227 S 
HETATM   31  C26 UNL     1      12.008  15.116   9.331  1.00  0.00     0.186 C 
HETATM   32  O1  UNL     1      10.653  12.949  10.081  1.00  0.00    -0.206 OA
HETATM   33  O2  UNL     1      12.869  12.546   9.057  1.00  0.00    -0.206 OA
ENDBRANCH  28  30
ENDBRANCH  25  28
ENDBRANCH  19  22
ENDBRANCH  12  13
BRANCH   8  34
HETATM   34  C7  UNL     1       1.962  14.616  14.007  1.00  0.00     0.077 A 
HETATM   35  C8  UNL     1       2.380  14.861  15.315  1.00  0.00     0.034 A 
HETATM   36  C9  UNL     1       1.925  15.977  15.980  1.00  0.00     0.016 A 
HETATM   37  C10 UNL     1       1.047  16.864  15.357  1.00  0.00    -0.009 A 
HETATM   38  C11 UNL     1       0.582  17.991  15.993  1.00  0.00     0.013 A 
HETATM   39  C15 UNL     1       0.652  16.593  14.059  1.00  0.00     0.043 A 
HETATM   40  C12 UNL     1      -0.287  18.877  15.357  1.00  0.00     0.001 A 
HETATM   41  C13 UNL     1      -0.660  18.590  14.080  1.00  0.00     0.002 A 
HETATM   42  C14 UNL     1      -0.209  17.473  13.431  1.00  0.00     0.030 A 
HETATM   43  N2  UNL     1       1.128  15.485  13.449  1.00  0.00    -0.353 N 
ATOM     44  H2  UNL     1       0.825  15.304  12.492  1.00  0.00     0.166 HD
ENDBRANCH   8  34
TORSDOF 5
ENDMDL
MODEL 3
REMARK VINA RESULT: -10.169175764      5.241      8.075
REMARK  5 active torsions:
REMARK  status: ('A' for Active; 'I' for Inactive)
REMARK    1  A    between atoms: C6_8  and  C7_9 
REMARK    2  A    between atoms: C17_23  and  C18_24 
REMARK    3  A    between atoms: N5_30  and  C22_32 
REMARK    4  A    between atoms: C25_35  and  N6_36 
REMARK    5  A    between atoms: N6_36  and  S1_38 
ROOT
HETATM    1  C1  UNL     1       1.367  18.720  13.737  1.00  0.00     0.049 C 
HETATM    2  C2  UNL     1       1.697  17.335  14.119  1.00  0.00    -0.049 A 
HETATM    3  C3  UNL     1       1.728  16.884  15.449  1.00  0.00     0.010 A 
HETATM    4  C4  UNL     1       2.040  15.577  15.765  1.00  0.00     0.032 A 
HETATM    5  C5  UNL     1       2.330  14.678  14.754  1.00  0.00     0.061 A 
HETATM    6  N1  UNL     1       2.683  13.380  14.677  1.00  0.00    -0.339 N 
ATOM      7  H1  UNL     1       2.794  12.769  15.486  1.00  0.00     0.167 HD
HETATM    8  C6  UNL     1       2.873  12.987  13.404  1.00  0.00     0.133 A 
HETATM    9  N3  UNL     1       2.628  14.087  12.659  1.00  0.00    -0.338 N 
ATOM     10  H3  UNL     1       2.685  14.126  11.642  1.00  0.00     0.167 HD
HETATM   11  C16 UNL     1       2.300  15.118  13.445  1.00  0.00     0.072 A 
HETATM   12  C17 UNL     1       1.987  16.434  13.129  1.00  0.00     0.009 A 
ENDROOT
BRANCH  12  13
HETATM   13  C18 UNL     1       2.051  16.824  11.732  1.00  0.00    -0.018 A 
HETATM   14  C19 UNL     1       1.337  16.084  10.775  1.00  0.00     0.029 A 
HETATM   15  C20 UNL     1       1.408  16.444   9.453  1.00  0.00     0.090 A 
HETATM   16  N4  UNL     1       2.139  17.485   9.046  1.00  0.00    -0.352 N 
HETATM   17  C21 UNL     1       2.866  18.256   9.928  1.00  0.00     0.106 A 
ATOM     18  H4  UNL     1       2.161  17.715   8.053  1.00  0.00     0.166 HD
HETATM   19  N5  UNL     1       3.551  19.227   9.459  1.00  0.00    -0.342 N 
HETATM   20  C29 UNL     1       2.786  17.885  11.249  1.00  0.00     0.060 A 
ATOM     21  H5  UNL     1       3.498  19.349   8.448  1.00  0.00     0.167 HD
BRANCH  19  22
HETATM   22  C22 UNL     1       4.356  20.136  10.122  1.00  0.00     0.033 A 
HETATM   23  C23 UNL     1       5.574  19.919  10.717  1.00  0.00     0.032 A 
HETATM   24  C24 UNL     1       6.248  20.899  11.376  1.00  0.00     0.032 A 
HETATM   25  C25 UNL     1       5.731  22.195  11.487  1.00  0.00     0.042 A 
HETATM   26  C27 UNL     1       4.528  22.420  10.899  1.00  0.00     0.032 A 
HETATM   27  C28 UNL     1       3.844  21.439  10.232  1.00  0.00     0.032 A 
BRANCH  25  28
HETATM   28  N6  UNL     1       6.411  23.208  12.189  1.00  0.00    -0.285 N 
ATOM     29  H6  UNL     1       6.672  23.052  13.163  1.00  0.00     0.178 HD
BRANCH  28  30
HETATM   30  S1  UNL     1       6.809  24.697  11.440  1.00  0.00     0.227 S 
HETATM   31  C26 UNL     1       5.385  25.778  11.588  1.00  0.00     0.186 C 
HETATM   32  O1  UNL     1       7.938  25.369  12.224  1.00  0.00    -0.206 OA
HETATM   33  O2  UNL     1       7.222  24.536  10.007  1.00  0.00    -0.206 OA
ENDBRANCH  28  30
ENDBRANCH  25  28
ENDBRANCH  19  22
ENDBRANCH  12  13
BRANCH   8  34
HETATM   34  C7  UNL     1       3.310  11.676  12.903  1.00  0.00     0.077 A 
HETATM   35  C8  UNL     1       3.396  11.513  11.521  1.00  0.00     0.034 A 
HETATM   36  C9  UNL     1       3.800  10.305  10.999  1.00  0.00     0.016 A 
HETATM   37  C10 UNL     1       4.123   9.242  11.842  1.00  0.00    -0.009 A 
HETATM   38  C11 UNL     1       4.538   8.027  11.349  1.00  0.00     0.013 A 
HETATM   39  C15 UNL     1       4.029   9.435  13.208  1.00  0.00     0.043 A 
HETATM   40  C12 UNL     1       4.869   6.973  12.201  1.00  0.00     0.001 A 
HETATM   41  C13 UNL     1       4.770   7.189  13.542  1.00  0.00     0.002 A 
HETATM   42  C14 UNL     1       4.358   8.390  14.050  1.00  0.00     0.030 A 
HETATM   43  N2  UNL     1       3.629  10.640  13.670  1.00  0.00    -0.353 N 
ATOM     44  H2  UNL     1       3.567  10.763  14.681  1.00  0.00     0.166 HD
ENDBRANCH   8  34
TORSDOF 5
ENDMDL
MODEL 4
REMARK VINA RESULT: -9.896715345      0.731      1.278
REMARK  5 active torsions:
REMARK  status: ('A' for Active; 'I' for Inactive)
REMARK    1  A    between atoms: C6_8  and  C7_9 
REMARK    2  A    between atoms: C17_23  and  C18_24 
REMARK    3  A    between atoms: N5_30  and  C22_32 
REMARK    4  A    between atoms: C25_35  and  N6_36 
REMARK    5  A    between atoms: N6_36  and  S1_38 
ROOT
HETATM    1  C1  UNL     1       4.312   9.630   8.675  1.00  0.00     0.049 C 
HETATM    2  C2  UNL     1       4.025  10.223   9.993  1.00  0.00    -0.049 A 
HETATM    3  C3  UNL     1       3.979   9.480  11.184  1.00  0.00     0.010 A 
HETATM    4  C4  UNL     1       3.709  10.075  12.400  1.00  0.00     0.032 A 
HETATM    5  C5  UNL     1       3.476  11.437  12.460  1.00  0.00     0.061 A 
HETATM    6  N1  UNL     1       3.173  12.332  13.421  1.00  0.00    -0.339 N 
ATOM      7  H1  UNL     1       3.066  12.097  14.408  1.00  0.00     0.167 HD
HETATM    8  C6  UNL     1       3.028  13.573  12.923  1.00  0.00     0.133 A 
HETATM    9  N3  UNL     1       3.250  13.445  11.596  1.00  0.00    -0.338 N 
ATOM     10  H3  UNL     1       3.216  14.210  10.923  1.00  0.00     0.167 HD
HETATM   11  C16 UNL     1       3.521  12.171  11.291  1.00  0.00     0.072 A 
HETATM   12  C17 UNL     1       3.792  11.571  10.068  1.00  0.00     0.009 A 
ENDROOT
BRANCH  12  13
HETATM   13  C18 UNL     1       3.747  12.408   8.883  1.00  0.00    -0.018 A 
HETATM   14  C19 UNL     1       2.532  12.562   8.193  1.00  0.00     0.029 A 
HETATM   15  C20 UNL     1       2.491  13.343   7.065  1.00  0.00     0.090 A 
HETATM   16  N4  UNL     1       3.577  13.967   6.602  1.00  0.00    -0.352 N 
HETATM   17  C21 UNL     1       4.802  13.862   7.227  1.00  0.00     0.106 A 
ATOM     18  H4  UNL     1       3.498  14.538   5.761  1.00  0.00     0.166 HD
HETATM   19  N5  UNL     1       5.797  14.479   6.715  1.00  0.00    -0.342 N 
HETATM   20  C29 UNL     1       4.830  13.077   8.355  1.00  0.00     0.060 A 
ATOM     21  H5  UNL     1       5.591  15.009   5.868  1.00  0.00     0.167 HD
BRANCH  19  22
HETATM   22  C22 UNL     1       7.112  14.532   7.140  1.00  0.00     0.033 A 
HETATM   23  C23 UNL     1       7.692  15.435   7.997  1.00  0.00     0.032 A 
HETATM   24  C24 UNL     1       9.016  15.400   8.304  1.00  0.00     0.032 A 
HETATM   25  C25 UNL     1       9.869  14.433   7.758  1.00  0.00     0.042 A 
HETATM   26  C27 UNL     1       9.302  13.535   6.911  1.00  0.00     0.032 A 
HETATM   27  C28 UNL     1       7.970  13.562   6.598  1.00  0.00     0.032 A 
BRANCH  25  28
HETATM   28  N6  UNL     1      11.245  14.407   8.052  1.00  0.00    -0.285 N 
ATOM     29  H6  UNL     1      11.899  14.879   7.427  1.00  0.00     0.178 HD
BRANCH  28  30
HETATM   30  S1  UNL     1      11.844  13.596   9.438  1.00  0.00     0.227 S 
HETATM   31  C26 UNL     1      12.546  14.834  10.531  1.00  0.00     0.186 C 
HETATM   32  O1  UNL     1      10.674  12.970  10.198  1.00  0.00    -0.206 OA
HETATM   33  O2  UNL     1      12.849  12.535   9.103  1.00  0.00    -0.206 OA
ENDBRANCH  28  30
ENDBRANCH  25  28
ENDBRANCH  19  22
ENDBRANCH  12  13
BRANCH   8  34
HETATM   34  C7  UNL     1       2.652  14.808  13.627  1.00  0.00     0.077 A 
HETATM   35  C8  UNL     1       2.335  15.920  12.848  1.00  0.00     0.034 A 
HETATM   36  C9  UNL     1       1.976  17.101  13.456  1.00  0.00     0.016 A 
HETATM   37  C10 UNL     1       1.929  17.196  14.847  1.00  0.00    -0.009 A 
HETATM   38  C11 UNL     1       1.566  18.360  15.482  1.00  0.00     0.013 A 
HETATM   39  C15 UNL     1       2.249  16.075  15.592  1.00  0.00     0.043 A 
HETATM   40  C12 UNL     1       1.512  18.440  16.874  1.00  0.00     0.001 A 
HETATM   41  C13 UNL     1       1.830  17.324  17.585  1.00  0.00     0.002 A 
HETATM   42  C14 UNL     1       2.194  16.158  16.971  1.00  0.00     0.030 A 
HETATM   43  N2  UNL     1       2.594  14.939  14.947  1.00  0.00    -0.353 N 
ATOM     44  H2  UNL     1       2.825  14.123  15.514  1.00  0.00     0.166 HD
ENDBRANCH   8  34
TORSDOF 5
ENDMDL
MODEL 5
REMARK VINA RESULT: -9.852981994      1.398      1.904
REMARK  5 active torsions:
REMARK  status: ('A' for Active; 'I' for Inactive)
REMARK    1  A    between atoms: C6_8  and  C7_9 
REMARK    2  A    between atoms: C17_23  and  C18_24 
REMARK    3  A    between atoms: N5_30  and  C22_32 
REMARK    4  A    between atoms: C25_35  and  N6_36 
REMARK    5  A    between atoms: N6_36  and  S1_38 
ROOT
HETATM    1  C1  UNL     1       4.605  10.079   8.170  1.00  0.00     0.049 C 
HETATM    2  C2  UNL     1       4.220  10.146   9.592  1.00  0.00    -0.049 A 
HETATM    3  C3  UNL     1       4.292   9.049  10.466  1.00  0.00     0.010 A 
HETATM    4  C4  UNL     1       3.924   9.154  11.792  1.00  0.00     0.032 A 
HETATM    5  C5  UNL     1       3.474  10.365  12.285  1.00  0.00     0.061 A 
HETATM    6  N1  UNL     1       3.026  10.829  13.469  1.00  0.00    -0.339 N 
ATOM      7  H1  UNL     1       2.956  10.264  14.314  1.00  0.00     0.167 HD
HETATM    8  C6  UNL     1       2.684  12.129  13.400  1.00  0.00     0.133 A 
HETATM    9  N3  UNL     1       2.928  12.487  12.121  1.00  0.00    -0.338 N 
ATOM     10  H3  UNL     1       2.772  13.419  11.737  1.00  0.00     0.167 HD
HETATM   11  C16 UNL     1       3.403  11.446  11.428  1.00  0.00     0.072 A 
HETATM   12  C17 UNL     1       3.772  11.338  10.093  1.00  0.00     0.009 A 
ENDROOT
BRANCH  12  13
HETATM   13  C18 UNL     1       3.594  12.507   9.250  1.00  0.00    -0.018 A 
HETATM   14  C19 UNL     1       2.344  12.746   8.655  1.00  0.00     0.029 A 
HETATM   15  C20 UNL     1       2.179  13.843   7.849  1.00  0.00     0.090 A 
HETATM   16  N4  UNL     1       3.178  14.697   7.611  1.00  0.00    -0.352 N 
HETATM   17  C21 UNL     1       4.431  14.527   8.160  1.00  0.00     0.106 A 
ATOM     18  H4  UNL     1       3.008  15.500   7.005  1.00  0.00     0.166 HD
HETATM   19  N5  UNL     1       5.338  15.380   7.874  1.00  0.00    -0.342 N 
HETATM   20  C29 UNL     1       4.583  13.424   8.967  1.00  0.00     0.060 A 
ATOM     21  H5  UNL     1       5.046  16.133   7.250  1.00  0.00     0.167 HD
BRANCH  19  22
HETATM   22  C22 UNL     1       6.657  15.434   8.287  1.00  0.00     0.033 A 
HETATM   23  C23 UNL     1       7.169  16.009   9.424  1.00  0.00     0.032 A 
HETATM   24  C24 UNL     1       8.502  16.027   9.693  1.00  0.00     0.032 A 
HETATM   25  C25 UNL     1       9.434  15.456   8.817  1.00  0.00     0.042 A 
HETATM   26  C27 UNL     1       8.934  14.883   7.691  1.00  0.00     0.032 A 
HETATM   27  C28 UNL     1       7.594  14.859   7.414  1.00  0.00     0.032 A 
BRANCH  25  28
HETATM   28  N6  UNL     1      10.816  15.493   9.077  1.00  0.00    -0.285 N 
ATOM     29  H6  UNL     1      11.313  16.382   9.012  1.00  0.00     0.178 HD
BRANCH  28  30
HETATM   30  S1  UNL     1      11.681  14.075   9.500  1.00  0.00     0.227 S 
HETATM   31  C26 UNL     1      12.851  14.515  10.788  1.00  0.00     0.186 C 
HETATM   32  O1  UNL     1      10.717  13.067  10.127  1.00  0.00    -0.206 OA
HETATM   33  O2  UNL     1      12.374  13.445   8.329  1.00  0.00    -0.206 OA
ENDBRANCH  28  30
ENDBRANCH  25  28
ENDBRANCH  19  22
ENDBRANCH  12  13
BRANCH   8  34
HETATM   34  C7  UNL     1       2.110  12.984  14.449  1.00  0.00     0.077 A 
HETATM   35  C8  UNL     1       2.741  14.201  14.701  1.00  0.00     0.034 A 
HETATM   36  C9  UNL     1       2.245  15.040  15.674  1.00  0.00     0.016 A 
HETATM   37  C10 UNL     1       1.116  14.681  16.410  1.00  0.00    -0.009 A 
HETATM   38  C11 UNL     1       0.593  15.502  17.381  1.00  0.00     0.013 A 
HETATM   39  C15 UNL     1       0.513  13.467  16.136  1.00  0.00     0.043 A 
HETATM   40  C12 UNL     1      -0.543  15.138  18.105  1.00  0.00     0.001 A 
HETATM   41  C13 UNL     1      -1.120  13.939  17.816  1.00  0.00     0.002 A 
HETATM   42  C14 UNL     1      -0.613  13.109  16.854  1.00  0.00     0.030 A 
HETATM   43  N2  UNL     1       1.037  12.680  15.171  1.00  0.00    -0.353 N 
ATOM     44  H2  UNL     1       0.577  11.789  14.983  1.00  0.00     0.166 HD
ENDBRANCH   8  34
TORSDOF 5
ENDMDL
