MODEL 1
REMARK VINA RESULT: -10.584385486      0.000      0.000
REMARK  5 active torsions:
REMARK  status: ('A' for Active; 'I' for Inactive)
REMARK    1  A    between atoms: C4_4  and  N1_5 
REMARK    2  A    between atoms: N1_5  and  S1_7 
REMARK    3  A    between atoms: S1_7  and  C5_10 
REMARK    4  A    between atoms: C14_20  and  C15_21 
REMARK    5  A    between atoms: C20_28  and  N4_29 
ROOT
HETATM    1  C5  UNL     1      -4.821  15.181  20.241  1.00  0.00     0.081 A 
HETATM    2  C6  UNL     1      -6.186  15.276  19.945  1.00  0.00     0.025 A 
HETATM    3  C7  UNL     1      -6.933  16.375  20.288  1.00  0.00     0.003 A 
HETATM    4  C8  UNL     1      -6.372  17.445  20.944  1.00  0.00     0.023 A 
HETATM    5  C9  UNL     1      -5.018  17.382  21.254  1.00  0.00     0.046 A 
HETATM    6  C10 UNL     1      -4.453  18.513  21.942  1.00  0.00     0.099 C 
HETATM    7  N2  UNL     1      -3.995  19.414  22.511  1.00  0.00    -0.191 NA
HETATM    8  C11 UNL     1      -4.282  16.270  20.902  1.00  0.00     0.048 A 
ENDROOT
BRANCH   1   9
HETATM    9  S1  UNL     1      -3.876  13.788  19.808  1.00  0.00     0.263 S 
HETATM   10  O1  UNL     1      -4.659  12.572  20.284  1.00  0.00    -0.200 OA
HETATM   11  O2  UNL     1      -2.593  13.744  20.644  1.00  0.00    -0.200 OA
BRANCH   9  12
HETATM   12  N1  UNL     1      -3.543  13.605  18.160  1.00  0.00    -0.281 N 
ATOM     13  H1  UNL     1      -4.061  12.873  17.674  1.00  0.00     0.179 HD
BRANCH  12  14
HETATM   14  C4  UNL     1      -2.625  14.353  17.372  1.00  0.00     0.043 A 
HETATM   15  C3  UNL     1      -1.412  14.821  17.797  1.00  0.00     0.037 A 
HETATM   16  C2  UNL     1      -0.575  15.567  16.958  1.00  0.00    -0.049 A 
HETATM   17  C1  UNL     1       0.732  16.028  17.509  1.00  0.00     0.049 C 
HETATM   18  C14 UNL     1      -0.930  15.869  15.668  1.00  0.00    -0.018 A 
HETATM   19  C13 UNL     1      -2.150  15.407  15.221  1.00  0.00     0.015 A 
HETATM   20  C12 UNL     1      -2.970  14.674  16.046  1.00  0.00     0.031 A 
BRANCH  18  21
HETATM   21  C15 UNL     1      -0.037  16.655  14.822  1.00  0.00     0.003 A 
HETATM   22  C16 UNL     1       0.026  18.027  14.627  1.00  0.00     0.101 A 
HETATM   23  N3  UNL     1       1.004  18.308  13.744  1.00  0.00    -0.364 N 
HETATM   24  C17 UNL     1       1.569  17.140  13.369  1.00  0.00     0.043 A 
ATOM     25  H3  UNL     1       1.270  19.236  13.418  1.00  0.00     0.165 HD
HETATM   26  C18 UNL     1       2.606  16.830  12.494  1.00  0.00     0.033 A 
HETATM   27  C29 UNL     1       0.955  16.085  14.013  1.00  0.00     0.005 A 
HETATM   28  C19 UNL     1       3.005  15.530  12.276  1.00  0.00     0.034 A 
HETATM   29  C20 UNL     1       2.391  14.478  12.919  1.00  0.00     0.061 A 
HETATM   30  C28 UNL     1       1.365  14.782  13.786  1.00  0.00     0.046 A 
BRANCH  29  31
HETATM   31  N4  UNL     1       2.811  13.115  12.683  1.00  0.00    -0.220 N 
HETATM   32  N5  UNL     1       3.139  12.604  11.511  1.00  0.00    -0.290 N 
HETATM   33  C21 UNL     1       3.490  11.309  11.596  1.00  0.00     0.064 A 
ATOM     34  H5  UNL     1       3.126  13.132  10.639  1.00  0.00     0.187 HD
HETATM   35  C22 UNL     1       3.901  10.361  10.673  1.00  0.00     0.032 A 
HETATM   36  C26 UNL     1       3.376  10.976  12.921  1.00  0.00     0.062 A 
HETATM   37  C23 UNL     1       4.206   9.072  11.042  1.00  0.00     0.002 A 
HETATM   38  C24 UNL     1       4.092   8.734  12.374  1.00  0.00     0.001 A 
HETATM   39  C25 UNL     1       3.681   9.689  13.282  1.00  0.00     0.019 A 
HETATM   40  C27 UNL     1       2.953  12.118  13.567  1.00  0.00     0.279 A 
HETATM   41  O3  UNL     1       2.729  12.234  14.795  1.00  0.00    -0.265 OA
ENDBRANCH  29  31
ENDBRANCH  18  21
ENDBRANCH  12  14
ENDBRANCH   9  12
ENDBRANCH   1   9
TORSDOF 5
ENDMDL
MODEL 2
REMARK VINA RESULT: -10.228775265      9.313     13.280
REMARK  5 active torsions:
REMARK  status: ('A' for Active; 'I' for Inactive)
REMARK    1  A    between atoms: C4_4  and  N1_5 
REMARK    2  A    between atoms: N1_5  and  S1_7 
REMARK    3  A    between atoms: S1_7  and  C5_10 
REMARK    4  A    between atoms: C14_20  and  C15_21 
REMARK    5  A    between atoms: C20_28  and  N4_29 
ROOT
HETATM    1  C5  UNL     1      10.671  15.217   8.700  1.00  0.00     0.081 A 
HETATM    2  C6  UNL     1      10.206  15.016  10.004  1.00  0.00     0.025 A 
HETATM    3  C7  UNL     1       9.466  15.960  10.670  1.00  0.00     0.003 A 
HETATM    4  C8  UNL     1       9.141  17.159  10.083  1.00  0.00     0.023 A 
HETATM    5  C9  UNL     1       9.589  17.392   8.786  1.00  0.00     0.046 A 
HETATM    6  C10 UNL     1       9.238  18.655   8.192  1.00  0.00     0.099 C 
HETATM    7  N2  UNL     1       8.974  19.678   7.713  1.00  0.00    -0.191 NA
HETATM    8  C11 UNL     1      10.331  16.431   8.132  1.00  0.00     0.048 A 
ENDROOT
BRANCH   1   9
HETATM    9  S1  UNL     1      11.610  14.020   7.857  1.00  0.00     0.263 S 
HETATM   10  O1  UNL     1      12.211  13.116   8.925  1.00  0.00    -0.200 OA
HETATM   11  O2  UNL     1      12.832  14.675   7.206  1.00  0.00    -0.200 OA
BRANCH   9  12
HETATM   12  N1  UNL     1      10.763  13.061   6.751  1.00  0.00    -0.281 N 
ATOM     13  H1  UNL     1      11.327  12.455   6.156  1.00  0.00     0.179 HD
BRANCH  12  14
HETATM   14  C4  UNL     1       9.355  13.001   6.555  1.00  0.00     0.043 A 
HETATM   15  C3  UNL     1       8.460  13.967   6.928  1.00  0.00     0.037 A 
HETATM   16  C2  UNL     1       7.084  13.818   6.712  1.00  0.00    -0.049 A 
HETATM   17  C1  UNL     1       6.187  14.928   7.146  1.00  0.00     0.049 C 
HETATM   18  C14 UNL     1       6.564  12.697   6.117  1.00  0.00    -0.018 A 
HETATM   19  C13 UNL     1       7.451  11.712   5.734  1.00  0.00     0.015 A 
HETATM   20  C12 UNL     1       8.800  11.860   5.946  1.00  0.00     0.031 A 
BRANCH  18  21
HETATM   21  C15 UNL     1       5.124  12.572   5.913  1.00  0.00     0.003 A 
HETATM   22  C16 UNL     1       4.333  12.996   4.854  1.00  0.00     0.101 A 
HETATM   23  N3  UNL     1       3.049  12.675   5.100  1.00  0.00    -0.364 N 
HETATM   24  C17 UNL     1       3.001  12.053   6.297  1.00  0.00     0.043 A 
ATOM     25  H3  UNL     1       2.255  12.868   4.490  1.00  0.00     0.165 HD
HETATM   26  C18 UNL     1       1.954  11.513   7.040  1.00  0.00     0.033 A 
HETATM   27  C29 UNL     1       4.266  11.965   6.840  1.00  0.00     0.005 A 
HETATM   28  C19 UNL     1       2.168  10.918   8.264  1.00  0.00     0.034 A 
HETATM   29  C20 UNL     1       3.431  10.831   8.805  1.00  0.00     0.061 A 
HETATM   30  C28 UNL     1       4.469  11.364   8.071  1.00  0.00     0.046 A 
BRANCH  29  31
HETATM   31  N4  UNL     1       3.648  10.209  10.091  1.00  0.00    -0.220 N 
HETATM   32  N5  UNL     1       4.232   9.042  10.292  1.00  0.00    -0.290 N 
HETATM   33  C21 UNL     1       4.296   8.717  11.595  1.00  0.00     0.064 A 
ATOM     34  H5  UNL     1       4.594   8.453   9.542  1.00  0.00     0.187 HD
HETATM   35  C22 UNL     1       4.798   7.631  12.292  1.00  0.00     0.032 A 
HETATM   36  C26 UNL     1       3.708   9.757  12.269  1.00  0.00     0.062 A 
HETATM   37  C23 UNL     1       4.730   7.553  13.664  1.00  0.00     0.002 A 
HETATM   38  C24 UNL     1       4.139   8.597  14.345  1.00  0.00     0.001 A 
HETATM   39  C25 UNL     1       3.643   9.673  13.636  1.00  0.00     0.019 A 
HETATM   40  C27 UNL     1       3.318  10.664  11.307  1.00  0.00     0.279 A 
HETATM   41  O3  UNL     1       2.740  11.758  11.512  1.00  0.00    -0.265 OA
ENDBRANCH  29  31
ENDBRANCH  18  21
ENDBRANCH  12  14
ENDBRANCH   9  12
ENDBRANCH   1   9
TORSDOF 5
ENDMDL
MODEL 3
REMARK VINA RESULT: -9.881107854      4.324      9.679
REMARK  5 active torsions:
REMARK  status: ('A' for Active; 'I' for Inactive)
REMARK    1  A    between atoms: C4_4  and  N1_5 
REMARK    2  A    between atoms: N1_5  and  S1_7 
REMARK    3  A    between atoms: S1_7  and  C5_10 
REMARK    4  A    between atoms: C14_20  and  C15_21 
REMARK    5  A    between atoms: C20_28  and  N4_29 
ROOT
HETATM    1  C5  UNL     1       3.589  10.362  11.011  1.00  0.00     0.081 A 
HETATM    2  C6  UNL     1       3.072  11.131  12.060  1.00  0.00     0.025 A 
HETATM    3  C7  UNL     1       3.109  10.706  13.364  1.00  0.00     0.003 A 
HETATM    4  C8  UNL     1       3.661   9.495  13.707  1.00  0.00     0.023 A 
HETATM    5  C9  UNL     1       4.183   8.705  12.687  1.00  0.00     0.046 A 
HETATM    6  C10 UNL     1       4.754   7.441  13.070  1.00  0.00     0.099 C 
HETATM    7  N2  UNL     1       5.200   6.413  13.368  1.00  0.00    -0.191 NA
HETATM    8  C11 UNL     1       4.137   9.148  11.382  1.00  0.00     0.048 A 
ENDROOT
BRANCH   1   9
HETATM    9  S1  UNL     1       3.541  10.901   9.359  1.00  0.00     0.263 S 
HETATM   10  O1  UNL     1       2.097  10.746   8.898  1.00  0.00    -0.200 OA
HETATM   11  O2  UNL     1       4.314   9.925   8.466  1.00  0.00    -0.200 OA
BRANCH   9  12
HETATM   12  N1  UNL     1       4.025  12.498   9.089  1.00  0.00    -0.281 N 
ATOM     13  H1  UNL     1       4.659  12.651   8.304  1.00  0.00     0.179 HD
BRANCH  12  14
HETATM   14  C4  UNL     1       3.651  13.655   9.827  1.00  0.00     0.043 A 
HETATM   15  C3  UNL     1       2.502  14.375   9.646  1.00  0.00     0.037 A 
HETATM   16  C2  UNL     1       2.220  15.516  10.409  1.00  0.00    -0.049 A 
HETATM   17  C1  UNL     1       0.938  16.231  10.144  1.00  0.00     0.049 C 
HETATM   18  C14 UNL     1       3.082  15.970  11.374  1.00  0.00    -0.018 A 
HETATM   19  C13 UNL     1       4.246  15.257  11.571  1.00  0.00     0.015 A 
HETATM   20  C12 UNL     1       4.521  14.138  10.823  1.00  0.00     0.031 A 
BRANCH  18  21
HETATM   21  C15 UNL     1       2.760  17.166  12.146  1.00  0.00     0.003 A 
HETATM   22  C16 UNL     1       3.020  18.501  11.870  1.00  0.00     0.101 A 
HETATM   23  N3  UNL     1       2.550  19.264  12.875  1.00  0.00    -0.364 N 
HETATM   24  C17 UNL     1       1.993  18.443  13.791  1.00  0.00     0.043 A 
ATOM     25  H3  UNL     1       2.604  20.281  12.933  1.00  0.00     0.165 HD
HETATM   26  C18 UNL     1       1.365  18.677  15.011  1.00  0.00     0.033 A 
HETATM   27  C29 UNL     1       2.100  17.130  13.382  1.00  0.00     0.005 A 
HETATM   28  C19 UNL     1       0.870  17.645  15.779  1.00  0.00     0.034 A 
HETATM   29  C20 UNL     1       0.977  16.335  15.369  1.00  0.00     0.061 A 
HETATM   30  C28 UNL     1       1.599  16.101  14.162  1.00  0.00     0.046 A 
BRANCH  29  31
HETATM   31  N4  UNL     1       0.461  15.257  16.181  1.00  0.00    -0.220 N 
HETATM   32  N5  UNL     1      -0.772  14.787  16.141  1.00  0.00    -0.290 N 
HETATM   33  C21 UNL     1      -0.967  13.781  17.010  1.00  0.00     0.064 A 
ATOM     34  H5  UNL     1      -1.496  15.147  15.519  1.00  0.00     0.187 HD
HETATM   35  C22 UNL     1      -2.054  12.985  17.334  1.00  0.00     0.032 A 
HETATM   36  C26 UNL     1       0.233  13.600  17.650  1.00  0.00     0.062 A 
HETATM   37  C23 UNL     1      -1.974  12.000  18.291  1.00  0.00     0.002 A 
HETATM   38  C24 UNL     1      -0.769  11.817  18.935  1.00  0.00     0.001 A 
HETATM   39  C25 UNL     1       0.306  12.618  18.603  1.00  0.00     0.019 A 
HETATM   40  C27 UNL     1       1.095  14.532  17.112  1.00  0.00     0.279 A 
HETATM   41  O3  UNL     1       2.298  14.696  17.428  1.00  0.00    -0.265 OA
ENDBRANCH  29  31
ENDBRANCH  18  21
ENDBRANCH  12  14
ENDBRANCH   9  12
ENDBRANCH   1   9
TORSDOF 5
ENDMDL
MODEL 4
REMARK VINA RESULT: -9.786337915      6.797      9.985
REMARK  5 active torsions:
REMARK  status: ('A' for Active; 'I' for Inactive)
REMARK    1  A    between atoms: C4_4  and  N1_5 
REMARK    2  A    between atoms: N1_5  and  S1_7 
REMARK    3  A    between atoms: S1_7  and  C5_10 
REMARK    4  A    between atoms: C14_20  and  C15_21 
REMARK    5  A    between atoms: C20_28  and  N4_29 
ROOT
HETATM    1  C5  UNL     1       3.107  11.436  12.487  1.00  0.00     0.081 A 
HETATM    2  C6  UNL     1       3.273  11.471  11.098  1.00  0.00     0.025 A 
HETATM    3  C7  UNL     1       3.790  10.410  10.397  1.00  0.00     0.003 A 
HETATM    4  C8  UNL     1       4.172   9.252  11.031  1.00  0.00     0.023 A 
HETATM    5  C9  UNL     1       4.022   9.186  12.412  1.00  0.00     0.046 A 
HETATM    6  C10 UNL     1       4.429   7.964  13.054  1.00  0.00     0.099 C 
HETATM    7  N2  UNL     1       4.772   6.989  13.581  1.00  0.00    -0.191 NA
HETATM    8  C11 UNL     1       3.500  10.261  13.100  1.00  0.00     0.048 A 
ENDROOT
BRANCH   1   9
HETATM    9  S1  UNL     1       2.453  12.781  13.374  1.00  0.00     0.263 S 
HETATM   10  O1  UNL     1       3.628  13.436  14.089  1.00  0.00    -0.200 OA
HETATM   11  O2  UNL     1       1.568  12.275  14.517  1.00  0.00    -0.200 OA
BRANCH   9  12
HETATM   12  N1  UNL     1       1.659  13.957  12.454  1.00  0.00    -0.281 N 
ATOM     13  H1  UNL     1       0.640  13.913  12.450  1.00  0.00     0.179 HD
BRANCH  12  14
HETATM   14  C4  UNL     1       2.246  14.999  11.685  1.00  0.00     0.043 A 
HETATM   15  C3  UNL     1       2.512  14.943  10.344  1.00  0.00     0.037 A 
HETATM   16  C2  UNL     1       3.110  16.013   9.666  1.00  0.00    -0.049 A 
HETATM   17  C1  UNL     1       3.355  15.861   8.203  1.00  0.00     0.049 C 
HETATM   18  C14 UNL     1       3.460  17.171  10.313  1.00  0.00    -0.018 A 
HETATM   19  C13 UNL     1       3.200  17.247  11.665  1.00  0.00     0.015 A 
HETATM   20  C12 UNL     1       2.613  16.197  12.328  1.00  0.00     0.031 A 
BRANCH  18  21
HETATM   21  C15 UNL     1       4.088  18.265   9.577  1.00  0.00     0.003 A 
HETATM   22  C16 UNL     1       3.532  19.425   9.058  1.00  0.00     0.101 A 
HETATM   23  N3  UNL     1       4.490  20.144   8.444  1.00  0.00    -0.364 N 
HETATM   24  C17 UNL     1       5.652  19.465   8.559  1.00  0.00     0.043 A 
ATOM     25  H3  UNL     1       4.362  21.040   7.975  1.00  0.00     0.165 HD
HETATM   26  C18 UNL     1       6.947  19.729   8.121  1.00  0.00     0.033 A 
HETATM   27  C29 UNL     1       5.452  18.291   9.255  1.00  0.00     0.005 A 
HETATM   28  C19 UNL     1       7.986  18.858   8.369  1.00  0.00     0.034 A 
HETATM   29  C20 UNL     1       7.785  17.687   9.065  1.00  0.00     0.061 A 
HETATM   30  C28 UNL     1       6.504  17.424   9.499  1.00  0.00     0.046 A 
BRANCH  29  31
HETATM   31  N4  UNL     1       8.877  16.775   9.318  1.00  0.00    -0.220 N 
HETATM   32  N5  UNL     1       9.971  17.057  10.001  1.00  0.00    -0.290 N 
HETATM   33  C21 UNL     1      10.814  16.013  10.075  1.00  0.00     0.064 A 
ATOM     34  H5  UNL     1      10.156  17.967  10.425  1.00  0.00     0.187 HD
HETATM   35  C22 UNL     1      12.053  15.817  10.663  1.00  0.00     0.032 A 
HETATM   36  C26 UNL     1      10.208  14.993   9.387  1.00  0.00     0.062 A 
HETATM   37  C23 UNL     1      12.712  14.612  10.582  1.00  0.00     0.002 A 
HETATM   38  C24 UNL     1      12.106  13.585   9.891  1.00  0.00     0.001 A 
HETATM   39  C25 UNL     1      10.871  13.796   9.310  1.00  0.00     0.019 A 
HETATM   40  C27 UNL     1       9.009  15.500   8.931  1.00  0.00     0.279 A 
HETATM   41  O3  UNL     1       8.154  14.880   8.255  1.00  0.00    -0.265 OA
ENDBRANCH  29  31
ENDBRANCH  18  21
ENDBRANCH  12  14
ENDBRANCH   9  12
ENDBRANCH   1   9
TORSDOF 5
ENDMDL
MODEL 5
REMARK VINA RESULT: -9.746043943      4.429      7.462
REMARK  5 active torsions:
REMARK  status: ('A' for Active; 'I' for Inactive)
REMARK    1  A    between atoms: C4_4  and  N1_5 
REMARK    2  A    between atoms: N1_5  and  S1_7 
REMARK    3  A    between atoms: S1_7  and  C5_10 
REMARK    4  A    between atoms: C14_20  and  C15_21 
REMARK    5  A    between atoms: C20_28  and  N4_29 
ROOT
HETATM    1  C5  UNL     1       0.596  16.517  16.029  1.00  0.00     0.081 A 
HETATM    2  C6  UNL     1       1.517  17.509  15.674  1.00  0.00     0.025 A 
HETATM    3  C7  UNL     1       1.311  18.349  14.609  1.00  0.00     0.003 A 
HETATM    4  C8  UNL     1       0.180  18.258  13.833  1.00  0.00     0.023 A 
HETATM    5  C9  UNL     1      -0.755  17.281  14.159  1.00  0.00     0.046 A 
HETATM    6  C10 UNL     1      -1.931  17.203  13.332  1.00  0.00     0.099 C 
HETATM    7  N2  UNL     1      -2.872  17.122  12.660  1.00  0.00    -0.191 NA
HETATM    8  C11 UNL     1      -0.532  16.445  15.233  1.00  0.00     0.048 A 
ENDROOT
BRANCH   1   9
HETATM    9  S1  UNL     1       0.859  15.451  17.378  1.00  0.00     0.263 S 
HETATM   10  O1  UNL     1      -0.448  15.417  18.160  1.00  0.00    -0.200 OA
HETATM   11  O2  UNL     1       1.853  16.081  18.358  1.00  0.00    -0.200 OA
BRANCH   9  12
HETATM   12  N1  UNL     1       1.298  13.865  16.990  1.00  0.00    -0.281 N 
ATOM     13  H1  UNL     1       1.250  13.186  17.750  1.00  0.00     0.179 HD
BRANCH  12  14
HETATM   14  C4  UNL     1       1.725  13.366  15.729  1.00  0.00     0.043 A 
HETATM   15  C3  UNL     1       1.046  12.459  14.962  1.00  0.00     0.037 A 
HETATM   16  C2  UNL     1       1.549  12.007  13.736  1.00  0.00    -0.049 A 
HETATM   17  C1  UNL     1       0.733  11.023  12.968  1.00  0.00     0.049 C 
HETATM   18  C14 UNL     1       2.750  12.450  13.242  1.00  0.00    -0.018 A 
HETATM   19  C13 UNL     1       3.450  13.364  14.001  1.00  0.00     0.015 A 
HETATM   20  C12 UNL     1       2.954  13.807  15.203  1.00  0.00     0.031 A 
BRANCH  18  21
HETATM   21  C15 UNL     1       3.249  11.953  11.963  1.00  0.00     0.003 A 
HETATM   22  C16 UNL     1       3.596  10.665  11.582  1.00  0.00     0.101 A 
HETATM   23  N3  UNL     1       4.019  10.677  10.304  1.00  0.00    -0.364 N 
HETATM   24  C17 UNL     1       3.951  11.949   9.858  1.00  0.00     0.043 A 
ATOM     25  H3  UNL     1       4.335   9.868   9.768  1.00  0.00     0.165 HD
HETATM   26  C18 UNL     1       4.259  12.540   8.635  1.00  0.00     0.033 A 
HETATM   27  C29 UNL     1       3.478  12.779  10.854  1.00  0.00     0.005 A 
HETATM   28  C19 UNL     1       4.100  13.892   8.425  1.00  0.00     0.034 A 
HETATM   29  C20 UNL     1       3.628  14.719   9.420  1.00  0.00     0.061 A 
HETATM   30  C28 UNL     1       3.322  14.137  10.631  1.00  0.00     0.046 A 
BRANCH  29  31
HETATM   31  N4  UNL     1       3.468  16.137   9.195  1.00  0.00    -0.220 N 
HETATM   32  N5  UNL     1       4.088  17.096   9.858  1.00  0.00    -0.290 N 
HETATM   33  C21 UNL     1       3.742  18.322   9.430  1.00  0.00     0.064 A 
ATOM     34  H5  UNL     1       4.754  16.924  10.610  1.00  0.00     0.187 HD
HETATM   35  C22 UNL     1       4.107  19.607   9.797  1.00  0.00     0.032 A 
HETATM   36  C26 UNL     1       2.835  18.126   8.420  1.00  0.00     0.062 A 
HETATM   37  C23 UNL     1       3.584  20.717   9.175  1.00  0.00     0.002 A 
HETATM   38  C24 UNL     1       2.672  20.522   8.159  1.00  0.00     0.001 A 
HETATM   39  C25 UNL     1       2.318  19.235   7.804  1.00  0.00     0.019 A 
HETATM   40  C27 UNL     1       2.688  16.760   8.301  1.00  0.00     0.279 A 
HETATM   41  O3  UNL     1       1.944  16.165   7.486  1.00  0.00    -0.265 OA
ENDBRANCH  29  31
ENDBRANCH  18  21
ENDBRANCH  12  14
ENDBRANCH   9  12
ENDBRANCH   1   9
TORSDOF 5
ENDMDL
