MODEL 1
REMARK VINA RESULT: -10.996008473      0.000      0.000
REMARK  10 active torsions:
REMARK  status: ('A' for Active; 'I' for Inactive)
REMARK    1  A    between atoms: O1_1  and  C1_3 
REMARK    2  A    between atoms: C1_3  and  C2_4 
REMARK    3  A    between atoms: C2_4  and  O2_5 
REMARK    4  A    between atoms: C2_4  and  C3_7 
REMARK    5  A    between atoms: C7_11  and  C8_12 
REMARK    6  A    between atoms: C12_16  and  C13_17 
REMARK    7  A    between atoms: C13_17  and  C14_18 
REMARK    8  A    between atoms: C14_18  and  C15_19 
REMARK    9  A    between atoms: C16_22  and  N2_23 
REMARK   10  A    between atoms: N2_23  and  C17_25 
ROOT
HETATM    1  C15 UNL     1       2.457  15.240  13.681  1.00  0.00     0.115 A 
HETATM    2  N1  UNL     1       2.504  13.935  13.418  1.00  0.00    -0.183 N 
ATOM      3  H1  UNL     1       2.699  13.651  12.458  1.00  0.00     0.185 HD
HETATM    4  C16 UNL     1       2.311  12.965  14.329  1.00  0.00     0.684 A 
HETATM    5  N3  UNL     1       2.052  13.345  15.609  1.00  0.00    -0.191 N 
ATOM      6  H3  UNL     1       1.904  12.624  16.316  1.00  0.00     0.184 HD
HETATM    7  C27 UNL     1       1.985  14.627  15.971  1.00  0.00     0.062 A 
HETATM    8  C28 UNL     1       1.723  14.999  17.264  1.00  0.00     0.031 A 
HETATM    9  C29 UNL     1       1.655  16.351  17.630  1.00  0.00     0.002 A 
HETATM   10  C30 UNL     1       1.856  17.315  16.673  1.00  0.00     0.001 A 
HETATM   11  C31 UNL     1       2.120  16.918  15.377  1.00  0.00     0.017 A 
HETATM   12  C32 UNL     1       2.186  15.589  15.011  1.00  0.00     0.027 A 
ENDROOT
BRANCH   1  13
HETATM   13  C14 UNL     1       2.671  16.227  12.661  1.00  0.00    -0.042 C 
BRANCH  13  14
HETATM   14  C13 UNL     1       2.859  17.071  11.818  1.00  0.00    -0.060 C 
BRANCH  14  15
HETATM   15  C12 UNL     1       3.096  18.089  10.830  1.00  0.00     0.019 A 
HETATM   16  C11 UNL     1       2.647  17.951   9.511  1.00  0.00     0.020 A 
HETATM   17  C10 UNL     1       2.873  18.921   8.569  1.00  0.00     0.002 A 
HETATM   18  C9  UNL     1       3.560  20.060   8.928  1.00  0.00     0.014 A 
HETATM   19  C8  UNL     1       4.027  20.257  10.205  1.00  0.00    -0.008 A 
HETATM   20  C33 UNL     1       3.777  19.245  11.139  1.00  0.00     0.034 A 
BRANCH  19  21
HETATM   21  C7  UNL     1       4.757  21.427  10.661  1.00  0.00     0.042 A 
HETATM   22  C6  UNL     1       6.060  21.668  10.294  1.00  0.00     0.030 A 
HETATM   23  C5  UNL     1       6.753  22.784  10.730  1.00  0.00     0.004 A 
HETATM   24  C4  UNL     1       6.124  23.681  11.558  1.00  0.00     0.028 A 
HETATM   25  C3  UNL     1       4.826  23.429  11.917  1.00  0.00     0.040 A 
HETATM   26  N4  UNL     1       4.186  22.340  11.477  1.00  0.00    -0.357 N 
ATOM     27  H4  UNL     1       3.220  22.192  11.771  1.00  0.00     0.166 HD
BRANCH  25  28
HETATM   28  C2  UNL     1       4.138  24.394  12.814  1.00  0.00     0.191 C 
BRANCH  28  29
HETATM   29  C1  UNL     1       3.602  25.560  12.022  1.00  0.00     0.202 C 
BRANCH  29  30
HETATM   30  O1  UNL     1       2.568  26.125  12.787  1.00  0.00    -0.398 OA
ATOM     31  H1  UNL     1       2.645  27.068  12.695  1.00  0.00     0.209 HD
ENDBRANCH  29  30
ENDBRANCH  28  29
BRANCH  28  32
HETATM   32  O2  UNL     1       3.073  23.680  13.408  1.00  0.00    -0.387 OA
ATOM     33  H2  UNL     1       3.153  23.702  14.354  1.00  0.00     0.210 HD
ENDBRANCH  28  32
ENDBRANCH  25  28
ENDBRANCH  19  21
ENDBRANCH  14  15
ENDBRANCH  13  14
ENDBRANCH   1  13
BRANCH   4  34
HETATM   34  N2  UNL     1       2.361  11.705  14.058  1.00  0.00    -0.191 N 
ATOM     35  H2  UNL     1       2.026  11.034  14.749  1.00  0.00     0.184 HD
BRANCH  34  36
HETATM   36  C17 UNL     1       2.864  11.237  12.833  1.00  0.00     0.060 A 
HETATM   37  C18 UNL     1       2.734  12.011  11.687  1.00  0.00     0.031 A 
HETATM   38  C19 UNL     1       3.213  11.586  10.474  1.00  0.00     0.003 A 
HETATM   39  C20 UNL     1       3.840  10.366  10.371  1.00  0.00     0.012 A 
HETATM   40  C21 UNL     1       3.977   9.591  11.492  1.00  0.00    -0.024 A 
HETATM   41  C22 UNL     1       4.609   8.369  11.378  1.00  0.00     0.012 A 
HETATM   42  C26 UNL     1       3.495  10.023  12.703  1.00  0.00     0.001 A 
HETATM   43  C23 UNL     1       4.745   7.597  12.495  1.00  0.00     0.001 A 
HETATM   44  C24 UNL     1       4.256   8.034  13.727  1.00  0.00     0.001 A 
HETATM   45  C25 UNL     1       3.625   9.253  13.843  1.00  0.00     0.014 A 
ENDBRANCH  34  36
ENDBRANCH   4  34
TORSDOF 10
ENDMDL
MODEL 2
REMARK VINA RESULT: -10.550080498      5.577      9.398
REMARK  10 active torsions:
REMARK  status: ('A' for Active; 'I' for Inactive)
REMARK    1  A    between atoms: O1_1  and  C1_3 
REMARK    2  A    between atoms: C1_3  and  C2_4 
REMARK    3  A    between atoms: C2_4  and  O2_5 
REMARK    4  A    between atoms: C2_4  and  C3_7 
REMARK    5  A    between atoms: C7_11  and  C8_12 
REMARK    6  A    between atoms: C12_16  and  C13_17 
REMARK    7  A    between atoms: C13_17  and  C14_18 
REMARK    8  A    between atoms: C14_18  and  C15_19 
REMARK    9  A    between atoms: C16_22  and  N2_23 
REMARK   10  A    between atoms: N2_23  and  C17_25 
ROOT
HETATM    1  C15 UNL     1       0.031  13.782  15.561  1.00  0.00     0.115 A 
HETATM    2  N1  UNL     1       0.778  12.704  15.325  1.00  0.00    -0.183 N 
ATOM      3  H1  UNL     1       0.402  11.797  15.599  1.00  0.00     0.185 HD
HETATM    4  C16 UNL     1       1.994  12.729  14.751  1.00  0.00     0.684 A 
HETATM    5  N3  UNL     1       2.494  13.939  14.385  1.00  0.00    -0.191 N 
ATOM      6  H3  UNL     1       3.415  13.979  13.948  1.00  0.00     0.184 HD
HETATM    7  C27 UNL     1       1.822  15.075  14.579  1.00  0.00     0.062 A 
HETATM    8  C28 UNL     1       2.336  16.290  14.208  1.00  0.00     0.031 A 
HETATM    9  C29 UNL     1       1.619  17.476  14.418  1.00  0.00     0.002 A 
HETATM   10  C30 UNL     1       0.380  17.414  15.007  1.00  0.00     0.001 A 
HETATM   11  C31 UNL     1      -0.119  16.179  15.374  1.00  0.00     0.017 A 
HETATM   12  C32 UNL     1       0.584  15.009  15.170  1.00  0.00     0.027 A 
ENDROOT
BRANCH   1  13
HETATM   13  C14 UNL     1      -1.261  13.689  16.179  1.00  0.00    -0.042 C 
BRANCH  13  14
HETATM   14  C13 UNL     1      -2.349  13.589  16.695  1.00  0.00    -0.060 C 
BRANCH  14  15
HETATM   15  C12 UNL     1      -3.638  13.490  17.324  1.00  0.00     0.019 A 
HETATM   16  C11 UNL     1      -4.466  12.378  17.128  1.00  0.00     0.020 A 
HETATM   17  C10 UNL     1      -5.695  12.284  17.727  1.00  0.00     0.002 A 
HETATM   18  C9  UNL     1      -6.127  13.308  18.543  1.00  0.00     0.014 A 
HETATM   19  C8  UNL     1      -5.363  14.424  18.775  1.00  0.00    -0.008 A 
HETATM   20  C33 UNL     1      -4.114  14.486  18.147  1.00  0.00     0.034 A 
BRANCH  19  21
HETATM   21  C7  UNL     1      -5.745  15.543  19.620  1.00  0.00     0.042 A 
HETATM   22  C6  UNL     1      -7.056  15.799  19.949  1.00  0.00     0.030 A 
HETATM   23  C5  UNL     1      -7.418  16.865  20.754  1.00  0.00     0.004 A 
HETATM   24  C4  UNL     1      -6.440  17.698  21.240  1.00  0.00     0.028 A 
HETATM   25  C3  UNL     1      -5.139  17.433  20.904  1.00  0.00     0.040 A 
HETATM   26  N4  UNL     1      -4.824  16.393  20.124  1.00  0.00    -0.357 N 
ATOM     27  H4  UNL     1      -3.842  16.234  19.899  1.00  0.00     0.166 HD
BRANCH  25  28
HETATM   28  C2  UNL     1      -4.075  18.330  21.426  1.00  0.00     0.191 C 
BRANCH  28  29
HETATM   29  C1  UNL     1      -4.633  19.257  22.476  1.00  0.00     0.202 C 
BRANCH  29  30
HETATM   30  O1  UNL     1      -3.640  20.216  22.736  1.00  0.00    -0.398 OA
ATOM     31  H1  UNL     1      -4.091  21.035  22.906  1.00  0.00     0.209 HD
ENDBRANCH  29  30
ENDBRANCH  28  29
BRANCH  28  32
HETATM   32  O2  UNL     1      -3.098  17.483  21.996  1.00  0.00    -0.387 OA
ATOM     33  H2  UNL     1      -3.346  17.251  22.883  1.00  0.00     0.210 HD
ENDBRANCH  28  32
ENDBRANCH  25  28
ENDBRANCH  19  21
ENDBRANCH  14  15
ENDBRANCH  13  14
ENDBRANCH   1  13
BRANCH   4  34
HETATM   34  N2  UNL     1       2.704  11.676  14.529  1.00  0.00    -0.191 N 
ATOM     35  H2  UNL     1       3.041  11.126  15.320  1.00  0.00     0.184 HD
BRANCH  34  36
HETATM   36  C17 UNL     1       3.025  11.269  13.224  1.00  0.00     0.060 A 
HETATM   37  C18 UNL     1       2.792  12.122  12.152  1.00  0.00     0.031 A 
HETATM   38  C19 UNL     1       3.093  11.758  10.864  1.00  0.00     0.003 A 
HETATM   39  C20 UNL     1       3.638  10.521  10.608  1.00  0.00     0.012 A 
HETATM   40  C21 UNL     1       3.874   9.668  11.653  1.00  0.00    -0.024 A 
HETATM   41  C22 UNL     1       4.422   8.430  11.385  1.00  0.00     0.012 A 
HETATM   42  C26 UNL     1       3.571  10.039  12.940  1.00  0.00     0.001 A 
HETATM   43  C23 UNL     1       4.657   7.581  12.427  1.00  0.00     0.001 A 
HETATM   44  C24 UNL     1       4.350   7.955  13.735  1.00  0.00     0.001 A 
HETATM   45  C25 UNL     1       3.803   9.190  14.006  1.00  0.00     0.014 A 
ENDBRANCH  34  36
ENDBRANCH   4  34
TORSDOF 10
ENDMDL
MODEL 3
REMARK VINA RESULT: -10.443113174      1.756      5.005
REMARK  10 active torsions:
REMARK  status: ('A' for Active; 'I' for Inactive)
REMARK    1  A    between atoms: O1_1  and  C1_3 
REMARK    2  A    between atoms: C1_3  and  C2_4 
REMARK    3  A    between atoms: C2_4  and  O2_5 
REMARK    4  A    between atoms: C2_4  and  C3_7 
REMARK    5  A    between atoms: C7_11  and  C8_12 
REMARK    6  A    between atoms: C12_16  and  C13_17 
REMARK    7  A    between atoms: C13_17  and  C14_18 
REMARK    8  A    between atoms: C14_18  and  C15_19 
REMARK    9  A    between atoms: C16_22  and  N2_23 
REMARK   10  A    between atoms: N2_23  and  C17_25 
ROOT
HETATM    1  C15 UNL     1       2.898  15.040  12.946  1.00  0.00     0.115 A 
HETATM    2  N1  UNL     1       2.561  15.213  14.224  1.00  0.00    -0.183 N 
ATOM      3  H1  UNL     1       2.389  16.165  14.545  1.00  0.00     0.185 HD
HETATM    4  C16 UNL     1       2.430  14.218  15.120  1.00  0.00     0.684 A 
HETATM    5  N3  UNL     1       2.658  12.949  14.690  1.00  0.00    -0.191 N 
ATOM      6  H3  UNL     1       2.564  12.180  15.354  1.00  0.00     0.184 HD
HETATM    7  C27 UNL     1       3.000  12.674  13.430  1.00  0.00     0.062 A 
HETATM    8  C28 UNL     1       3.228  11.391  13.007  1.00  0.00     0.031 A 
HETATM    9  C29 UNL     1       3.587  11.117  11.680  1.00  0.00     0.002 A 
HETATM   10  C30 UNL     1       3.711  12.157  10.792  1.00  0.00     0.001 A 
HETATM   11  C31 UNL     1       3.477  13.443  11.239  1.00  0.00     0.017 A 
HETATM   12  C32 UNL     1       3.124  13.717  12.545  1.00  0.00     0.027 A 
ENDROOT
BRANCH   1  13
HETATM   13  C14 UNL     1       3.021  16.146  12.039  1.00  0.00    -0.042 C 
BRANCH  13  14
HETATM   14  C13 UNL     1       3.117  17.089  11.290  1.00  0.00    -0.060 C 
BRANCH  14  15
HETATM   15  C12 UNL     1       3.235  18.225  10.418  1.00  0.00     0.019 A 
HETATM   16  C11 UNL     1       2.678  18.226   9.133  1.00  0.00     0.020 A 
HETATM   17  C10 UNL     1       2.791  19.310   8.301  1.00  0.00     0.002 A 
HETATM   18  C9  UNL     1       3.469  20.427   8.739  1.00  0.00     0.014 A 
HETATM   19  C8  UNL     1       4.038  20.490   9.988  1.00  0.00    -0.008 A 
HETATM   20  C33 UNL     1       3.902  19.365  10.809  1.00  0.00     0.034 A 
BRANCH  19  21
HETATM   21  C7  UNL     1       4.766  21.627  10.523  1.00  0.00     0.042 A 
HETATM   22  C6  UNL     1       6.079  21.875  10.199  1.00  0.00     0.030 A 
HETATM   23  C5  UNL     1       6.771  22.960  10.710  1.00  0.00     0.004 A 
HETATM   24  C4  UNL     1       6.129  23.818  11.569  1.00  0.00     0.028 A 
HETATM   25  C3  UNL     1       4.821  23.560  11.884  1.00  0.00     0.040 A 
HETATM   26  N4  UNL     1       4.183  22.502  11.371  1.00  0.00    -0.357 N 
ATOM     27  H4  UNL     1       3.209  22.348  11.634  1.00  0.00     0.166 HD
BRANCH  25  28
HETATM   28  C2  UNL     1       4.119  24.483  12.813  1.00  0.00     0.191 C 
BRANCH  28  29
HETATM   29  C1  UNL     1       3.500  25.629  12.052  1.00  0.00     0.202 C 
BRANCH  29  30
HETATM   30  O1  UNL     1       2.508  26.175  12.883  1.00  0.00    -0.398 OA
ATOM     31  H1  UNL     1       2.545  27.117  12.768  1.00  0.00     0.209 HD
ENDBRANCH  29  30
ENDBRANCH  28  29
BRANCH  28  32
HETATM   32  O2  UNL     1       3.111  23.714  13.437  1.00  0.00    -0.387 OA
ATOM     33  H2  UNL     1       3.504  23.059  14.002  1.00  0.00     0.210 HD
ENDBRANCH  28  32
ENDBRANCH  25  28
ENDBRANCH  19  21
ENDBRANCH  14  15
ENDBRANCH  13  14
ENDBRANCH   1  13
BRANCH   4  34
HETATM   34  N2  UNL     1       2.103  14.402  16.353  1.00  0.00    -0.191 N 
ATOM     35  H2  UNL     1       2.811  14.290  17.079  1.00  0.00     0.184 HD
BRANCH  34  36
HETATM   36  C17 UNL     1       0.793  14.753  16.721  1.00  0.00     0.060 A 
HETATM   37  C18 UNL     1       0.216  15.911  16.214  1.00  0.00     0.031 A 
HETATM   38  C19 UNL     1      -1.061  16.284  16.551  1.00  0.00     0.003 A 
HETATM   39  C20 UNL     1      -1.802  15.506  17.409  1.00  0.00     0.012 A 
HETATM   40  C21 UNL     1      -1.247  14.362  17.917  1.00  0.00    -0.024 A 
HETATM   41  C22 UNL     1      -2.000  13.588  18.777  1.00  0.00     0.012 A 
HETATM   42  C26 UNL     1       0.030  13.993  17.576  1.00  0.00     0.001 A 
HETATM   43  C23 UNL     1      -1.448  12.447  19.282  1.00  0.00     0.001 A 
HETATM   44  C24 UNL     1      -0.150  12.070  18.937  1.00  0.00     0.001 A 
HETATM   45  C25 UNL     1       0.604  12.841  18.079  1.00  0.00     0.014 A 
ENDBRANCH  34  36
ENDBRANCH   4  34
TORSDOF 10
ENDMDL
MODEL 4
REMARK VINA RESULT: -10.362503412      1.803      2.338
REMARK  10 active torsions:
REMARK  status: ('A' for Active; 'I' for Inactive)
REMARK    1  A    between atoms: O1_1  and  C1_3 
REMARK    2  A    between atoms: C1_3  and  C2_4 
REMARK    3  A    between atoms: C2_4  and  O2_5 
REMARK    4  A    between atoms: C2_4  and  C3_7 
REMARK    5  A    between atoms: C7_11  and  C8_12 
REMARK    6  A    between atoms: C12_16  and  C13_17 
REMARK    7  A    between atoms: C13_17  and  C14_18 
REMARK    8  A    between atoms: C14_18  and  C15_19 
REMARK    9  A    between atoms: C16_22  and  N2_23 
REMARK   10  A    between atoms: N2_23  and  C17_25 
ROOT
HETATM    1  C15 UNL     1       2.439  15.128  13.712  1.00  0.00     0.115 A 
HETATM    2  N1  UNL     1       2.497  13.821  13.458  1.00  0.00    -0.183 N 
ATOM      3  H1  UNL     1       2.677  13.532  12.497  1.00  0.00     0.185 HD
HETATM    4  C16 UNL     1       2.335  12.857  14.380  1.00  0.00     0.684 A 
HETATM    5  N3  UNL     1       2.097  13.243  15.662  1.00  0.00    -0.191 N 
ATOM      6  H3  UNL     1       1.971  12.526  16.377  1.00  0.00     0.184 HD
HETATM    7  C27 UNL     1       2.021  14.527  16.016  1.00  0.00     0.062 A 
HETATM    8  C28 UNL     1       1.779  14.906  17.311  1.00  0.00     0.031 A 
HETATM    9  C29 UNL     1       1.702  16.259  17.668  1.00  0.00     0.002 A 
HETATM   10  C30 UNL     1       1.872  17.219  16.700  1.00  0.00     0.001 A 
HETATM   11  C31 UNL     1       2.114  16.814  15.401  1.00  0.00     0.017 A 
HETATM   12  C32 UNL     1       2.190  15.484  15.044  1.00  0.00     0.027 A 
ENDROOT
BRANCH   1  13
HETATM   13  C14 UNL     1       2.620  16.110  12.681  1.00  0.00    -0.042 C 
BRANCH  13  14
HETATM   14  C13 UNL     1       2.791  16.927  11.808  1.00  0.00    -0.060 C 
BRANCH  14  15
HETATM   15  C12 UNL     1       2.976  17.892  10.758  1.00  0.00     0.019 A 
HETATM   16  C11 UNL     1       2.384  17.729   9.499  1.00  0.00     0.020 A 
HETATM   17  C10 UNL     1       2.561  18.648   8.498  1.00  0.00     0.002 A 
HETATM   18  C9  UNL     1       3.338  19.761   8.735  1.00  0.00     0.014 A 
HETATM   19  C8  UNL     1       3.945  19.980   9.947  1.00  0.00    -0.008 A 
HETATM   20  C33 UNL     1       3.743  19.020  10.946  1.00  0.00     0.034 A 
BRANCH  19  21
HETATM   21  C7  UNL     1       4.777  21.124  10.276  1.00  0.00     0.042 A 
HETATM   22  C6  UNL     1       4.836  21.648  11.546  1.00  0.00     0.030 A 
HETATM   23  C5  UNL     1       5.629  22.739  11.857  1.00  0.00     0.004 A 
HETATM   24  C4  UNL     1       6.383  23.321  10.868  1.00  0.00     0.028 A 
HETATM   25  C3  UNL     1       6.316  22.790   9.606  1.00  0.00     0.040 A 
HETATM   26  N4  UNL     1       5.538  21.735   9.341  1.00  0.00    -0.357 N 
ATOM     27  H4  UNL     1       5.518  21.373   8.387  1.00  0.00     0.166 HD
BRANCH  25  28
HETATM   28  C2  UNL     1       7.128  23.415   8.529  1.00  0.00     0.191 C 
BRANCH  28  29
HETATM   29  C1  UNL     1       7.705  22.357   7.623  1.00  0.00     0.202 C 
BRANCH  29  30
HETATM   30  O1  UNL     1       8.340  21.418   8.452  1.00  0.00    -0.398 OA
ATOM     31  H1  UNL     1       7.779  21.299   9.210  1.00  0.00     0.209 HD
ENDBRANCH  29  30
ENDBRANCH  28  29
BRANCH  28  32
HETATM   32  O2  UNL     1       6.241  24.243   7.805  1.00  0.00    -0.387 OA
ATOM     33  H2  UNL     1       5.884  24.914   8.375  1.00  0.00     0.210 HD
ENDBRANCH  28  32
ENDBRANCH  25  28
ENDBRANCH  19  21
ENDBRANCH  14  15
ENDBRANCH  13  14
ENDBRANCH   1  13
BRANCH   4  34
HETATM   34  N2  UNL     1       2.395  11.595  14.118  1.00  0.00    -0.191 N 
ATOM     35  H2  UNL     1       2.077  10.925  14.819  1.00  0.00     0.184 HD
BRANCH  34  36
HETATM   36  C17 UNL     1       2.886  11.123  12.890  1.00  0.00     0.060 A 
HETATM   37  C18 UNL     1       2.728  11.885  11.739  1.00  0.00     0.031 A 
HETATM   38  C19 UNL     1       3.195  11.456  10.522  1.00  0.00     0.003 A 
HETATM   39  C20 UNL     1       3.837  10.244  10.421  1.00  0.00     0.012 A 
HETATM   40  C21 UNL     1       4.001   9.481  11.546  1.00  0.00    -0.024 A 
HETATM   41  C22 UNL     1       4.648   8.267  11.432  1.00  0.00     0.012 A 
HETATM   42  C26 UNL     1       3.532   9.917  12.760  1.00  0.00     0.001 A 
HETATM   43  C23 UNL     1       4.812   7.507  12.554  1.00  0.00     0.001 A 
HETATM   44  C24 UNL     1       4.336   7.947  13.789  1.00  0.00     0.001 A 
HETATM   45  C25 UNL     1       3.690   9.159  13.905  1.00  0.00     0.014 A 
ENDBRANCH  34  36
ENDBRANCH   4  34
TORSDOF 10
ENDMDL
MODEL 5
REMARK VINA RESULT: -10.334914893      0.728      1.722
REMARK  10 active torsions:
REMARK  status: ('A' for Active; 'I' for Inactive)
REMARK    1  A    between atoms: O1_1  and  C1_3 
REMARK    2  A    between atoms: C1_3  and  C2_4 
REMARK    3  A    between atoms: C2_4  and  O2_5 
REMARK    4  A    between atoms: C2_4  and  C3_7 
REMARK    5  A    between atoms: C7_11  and  C8_12 
REMARK    6  A    between atoms: C12_16  and  C13_17 
REMARK    7  A    between atoms: C13_17  and  C14_18 
REMARK    8  A    between atoms: C14_18  and  C15_19 
REMARK    9  A    between atoms: C16_22  and  N2_23 
REMARK   10  A    between atoms: N2_23  and  C17_25 
ROOT
HETATM    1  C15 UNL     1       2.020  15.294  13.238  1.00  0.00     0.115 A 
HETATM    2  N1  UNL     1       1.764  14.058  12.811  1.00  0.00    -0.183 N 
ATOM      3  H1  UNL     1       1.853  13.872  11.813  1.00  0.00     0.185 HD
HETATM    4  C16 UNL     1       1.396  13.037  13.605  1.00  0.00     0.684 A 
HETATM    5  N3  UNL     1       1.279  13.285  14.937  1.00  0.00    -0.191 N 
ATOM      6  H3  UNL     1       1.001  12.523  15.557  1.00  0.00     0.184 HD
HETATM    7  C27 UNL     1       1.514  14.489  15.461  1.00  0.00     0.062 A 
HETATM    8  C28 UNL     1       1.393  14.728  16.805  1.00  0.00     0.031 A 
HETATM    9  C29 UNL     1       1.643  15.999  17.341  1.00  0.00     0.002 A 
HETATM   10  C30 UNL     1       2.017  17.019  16.500  1.00  0.00     0.001 A 
HETATM   11  C31 UNL     1       2.133  16.756  15.149  1.00  0.00     0.017 A 
HETATM   12  C32 UNL     1       1.887  15.507  14.617  1.00  0.00     0.027 A 
ENDROOT
BRANCH   1  13
HETATM   13  C14 UNL     1       2.409  16.342  12.338  1.00  0.00    -0.042 C 
BRANCH  13  14
HETATM   14  C13 UNL     1       2.718  17.220  11.569  1.00  0.00    -0.060 C 
BRANCH  14  15
HETATM   15  C12 UNL     1       3.094  18.250  10.638  1.00  0.00     0.019 A 
HETATM   16  C11 UNL     1       2.797  18.150   9.273  1.00  0.00     0.020 A 
HETATM   17  C10 UNL     1       3.156  19.131   8.386  1.00  0.00     0.002 A 
HETATM   18  C9  UNL     1       3.826  20.244   8.847  1.00  0.00     0.014 A 
HETATM   19  C8  UNL     1       4.147  20.402  10.173  1.00  0.00    -0.008 A 
HETATM   20  C33 UNL     1       3.764  19.380  11.050  1.00  0.00     0.034 A 
BRANCH  19  21
HETATM   21  C7  UNL     1       4.849  21.542  10.737  1.00  0.00     0.042 A 
HETATM   22  C6  UNL     1       6.185  21.770  10.504  1.00  0.00     0.030 A 
HETATM   23  C5  UNL     1       6.851  22.857  11.042  1.00  0.00     0.004 A 
HETATM   24  C4  UNL     1       6.160  23.739  11.836  1.00  0.00     0.028 A 
HETATM   25  C3  UNL     1       4.830  23.501  12.061  1.00  0.00     0.040 A 
HETATM   26  N4  UNL     1       4.217  22.440  11.525  1.00  0.00    -0.357 N 
ATOM     27  H4  UNL     1       3.225  22.302  11.720  1.00  0.00     0.166 HD
BRANCH  25  28
HETATM   28  C2  UNL     1       4.075  24.450  12.920  1.00  0.00     0.191 C 
BRANCH  28  29
HETATM   29  C1  UNL     1       3.402  25.504  12.078  1.00  0.00     0.202 C 
BRANCH  29  30
HETATM   30  O1  UNL     1       2.488  26.166  12.914  1.00  0.00    -0.398 OA
ATOM     31  H1  UNL     1       2.872  27.010  13.123  1.00  0.00     0.209 HD
ENDBRANCH  29  30
ENDBRANCH  28  29
BRANCH  28  32
HETATM   32  O2  UNL     1       3.104  23.675  13.594  1.00  0.00    -0.387 OA
ATOM     33  H2  UNL     1       3.191  23.788  14.533  1.00  0.00     0.210 HD
ENDBRANCH  28  32
ENDBRANCH  25  28
ENDBRANCH  19  21
ENDBRANCH  14  15
ENDBRANCH  13  14
ENDBRANCH   1  13
BRANCH   4  34
HETATM   34  N2  UNL     1       1.152  11.846  13.176  1.00  0.00    -0.191 N 
ATOM     35  H2  UNL     1       0.185  11.559  13.025  1.00  0.00     0.184 HD
BRANCH  34  36
HETATM   36  C17 UNL     1       2.187  10.934  12.913  1.00  0.00     0.060 A 
HETATM   37  C18 UNL     1       2.733  10.184  13.947  1.00  0.00     0.031 A 
HETATM   38  C19 UNL     1       3.745   9.284  13.726  1.00  0.00     0.003 A 
HETATM   39  C20 UNL     1       4.244   9.107  12.456  1.00  0.00     0.012 A 
HETATM   40  C21 UNL     1       3.716   9.839  11.426  1.00  0.00    -0.024 A 
HETATM   41  C22 UNL     1       4.223   9.652  10.156  1.00  0.00     0.012 A 
HETATM   42  C26 UNL     1       2.704  10.737  11.654  1.00  0.00     0.001 A 
HETATM   43  C23 UNL     1       3.697  10.381   9.129  1.00  0.00     0.001 A 
HETATM   44  C24 UNL     1       2.668  11.295   9.358  1.00  0.00     0.001 A 
HETATM   45  C25 UNL     1       2.160  11.483  10.625  1.00  0.00     0.014 A 
ENDBRANCH  34  36
ENDBRANCH   4  34
TORSDOF 10
ENDMDL
