MODEL 1
REMARK VINA RESULT: -3.574926586      0.000      0.000
REMARK  6 active torsions:
REMARK  status: ('A' for Active; 'I' for Inactive)
REMARK    1  A    between atoms: N1_1  and  C1_5 
REMARK    2  A    between atoms: C1_5  and  C2_6 
REMARK    3  A    between atoms: N2_9  and  C5_10 
REMARK    4  A    between atoms: C5_10  and  C6_11 
REMARK    5  A    between atoms: C6_11  and  N3_12 
REMARK    6  A    between atoms: C6_11  and  N4_16 
ROOT
HETATM    1  C2  UNL     1       8.689  -2.179  18.317  1.00  0.00     0.041 C 
HETATM    2  C3  UNL     1       9.486  -0.969  18.736  1.00  0.00     0.038 C 
HETATM    3  C4  UNL     1       8.573  -0.359  19.782  1.00  0.00     0.273 C 
HETATM    4  N2  UNL     1       7.336  -1.012  19.736  1.00  0.00     0.092 N 
HETATM    5  C7  UNL     1       7.280  -1.634  18.399  1.00  0.00     0.279 C 
ENDROOT
BRANCH   4   6
HETATM    6  C5  UNL     1       6.989  -1.984  20.692  1.00  0.00     0.334 C 
BRANCH   6   7
HETATM    7  C6  UNL     1       6.234  -1.554  21.902  1.00  0.00     0.406 C 
BRANCH   7   8
HETATM    8  N3  UNL     1       6.198  -2.510  22.987  1.00  0.00    -0.049 N 
ATOM      9  H33 UNL     1       6.556  -3.411  22.669  1.00  0.00     0.276 HD
ATOM     10  H32 UNL     1       6.902  -2.271  23.686  1.00  0.00     0.276 HD
ATOM     11  H31 UNL     1       5.290  -2.633  23.434  1.00  0.00     0.276 HD
ENDBRANCH   7   8
BRANCH   7  12
HETATM   12  N4  UNL     1       4.845  -1.331  21.504  1.00  0.00    -0.049 N 
ATOM     13  H43 UNL     1       4.734  -0.525  20.889  1.00  0.00     0.276 HD
ATOM     14  H42 UNL     1       4.498  -2.041  20.860  1.00  0.00     0.276 HD
ATOM     15  H41 UNL     1       4.287  -1.260  22.354  1.00  0.00     0.276 HD
ENDBRANCH   7  12
ENDBRANCH   6   7
ENDBRANCH   4   6
BRANCH   1  16
HETATM   16  C1  UNL     1       8.983  -2.657  16.932  1.00  0.00     0.236 C 
BRANCH  16  17
HETATM   17  N1  UNL     1      10.098  -1.977  16.332  1.00  0.00    -0.079 N 
ATOM     18  H13 UNL     1      10.325  -1.125  16.844  1.00  0.00     0.274 HD
ATOM     19  H12 UNL     1      10.964  -2.496  16.481  1.00  0.00     0.274 HD
ATOM     20  H11 UNL     1       9.956  -1.780  15.341  1.00  0.00     0.274 HD
ENDBRANCH  16  17
ENDBRANCH   1  16
TORSDOF 6
ENDMDL
MODEL 2
REMARK VINA RESULT: -3.519736452      1.844      4.881
REMARK  6 active torsions:
REMARK  status: ('A' for Active; 'I' for Inactive)
REMARK    1  A    between atoms: N1_1  and  C1_5 
REMARK    2  A    between atoms: C1_5  and  C2_6 
REMARK    3  A    between atoms: N2_9  and  C5_10 
REMARK    4  A    between atoms: C5_10  and  C6_11 
REMARK    5  A    between atoms: C6_11  and  N3_12 
REMARK    6  A    between atoms: C6_11  and  N4_16 
ROOT
HETATM    1  C2  UNL     1       7.125  -1.687  20.103  1.00  0.00     0.041 C 
HETATM    2  C3  UNL     1       5.804  -1.607  19.380  1.00  0.00     0.038 C 
HETATM    3  C4  UNL     1       6.241  -1.794  17.940  1.00  0.00     0.273 C 
HETATM    4  N2  UNL     1       7.637  -1.718  17.879  1.00  0.00     0.092 N 
HETATM    5  C7  UNL     1       8.036  -1.002  19.106  1.00  0.00     0.279 C 
ENDROOT
BRANCH   4   6
HETATM    6  C5  UNL     1       8.426  -2.878  17.766  1.00  0.00     0.334 C 
BRANCH   6   7
HETATM    7  C6  UNL     1       9.450  -2.939  16.686  1.00  0.00     0.406 C 
BRANCH   7   8
HETATM    8  N3  UNL     1      10.339  -1.800  16.605  1.00  0.00    -0.049 N 
ATOM      9  H33 UNL     1       9.797  -0.939  16.539  1.00  0.00     0.276 HD
ATOM     10  H32 UNL     1      10.802  -1.654  17.503  1.00  0.00     0.276 HD
ATOM     11  H31 UNL     1      11.032  -1.836  15.858  1.00  0.00     0.276 HD
ENDBRANCH   7   8
BRANCH   7  12
HETATM   12  N4  UNL     1       8.746  -3.003  15.407  1.00  0.00    -0.049 N 
ATOM     13  H43 UNL     1       9.376  -2.974  14.606  1.00  0.00     0.276 HD
ATOM     14  H42 UNL     1       8.338  -3.921  15.225  1.00  0.00     0.276 HD
ATOM     15  H41 UNL     1       8.055  -2.253  15.395  1.00  0.00     0.276 HD
ENDBRANCH   7  12
ENDBRANCH   6   7
ENDBRANCH   4   6
BRANCH   1  16
HETATM   16  C1  UNL     1       7.152  -0.967  21.412  1.00  0.00     0.236 C 
BRANCH  16  17
HETATM   17  N1  UNL     1       8.008   0.188  21.397  1.00  0.00    -0.079 N 
ATOM     18  H13 UNL     1       8.503   0.287  22.283  1.00  0.00     0.274 HD
ATOM     19  H12 UNL     1       8.805   0.043  20.777  1.00  0.00     0.274 HD
ATOM     20  H11 UNL     1       7.511   1.047  21.159  1.00  0.00     0.274 HD
ENDBRANCH  16  17
ENDBRANCH   1  16
TORSDOF 6
ENDMDL
MODEL 3
REMARK VINA RESULT: -3.429807406      3.551      4.987
REMARK  6 active torsions:
REMARK  status: ('A' for Active; 'I' for Inactive)
REMARK    1  A    between atoms: N1_1  and  C1_5 
REMARK    2  A    between atoms: C1_5  and  C2_6 
REMARK    3  A    between atoms: N2_9  and  C5_10 
REMARK    4  A    between atoms: C5_10  and  C6_11 
REMARK    5  A    between atoms: C6_11  and  N3_12 
REMARK    6  A    between atoms: C6_11  and  N4_16 
ROOT
HETATM    1  C2  UNL     1       6.862  -0.230  23.332  1.00  0.00     0.041 C 
HETATM    2  C3  UNL     1       7.339  -0.214  21.901  1.00  0.00     0.038 C 
HETATM    3  C4  UNL     1       6.606  -1.412  21.329  1.00  0.00     0.273 C 
HETATM    4  N2  UNL     1       6.023  -2.128  22.381  1.00  0.00     0.092 N 
HETATM    5  C7  UNL     1       6.774  -1.720  23.584  1.00  0.00     0.279 C 
ENDROOT
BRANCH   4   6
HETATM    6  C5  UNL     1       4.648  -2.024  22.660  1.00  0.00     0.334 C 
BRANCH   6   7
HETATM    7  C6  UNL     1       3.745  -1.500  21.597  1.00  0.00     0.406 C 
BRANCH   7   8
HETATM    8  N3  UNL     1       3.240  -0.162  21.812  1.00  0.00    -0.049 N 
ATOM      9  H33 UNL     1       2.420  -0.192  22.417  1.00  0.00     0.276 HD
ATOM     10  H32 UNL     1       3.883   0.363  22.403  1.00  0.00     0.276 HD
ATOM     11  H31 UNL     1       3.031   0.369  20.967  1.00  0.00     0.276 HD
ENDBRANCH   7   8
BRANCH   7  12
HETATM   12  N4  UNL     1       2.577  -2.377  21.535  1.00  0.00    -0.049 N 
ATOM     13  H43 UNL     1       2.824  -3.366  21.520  1.00  0.00     0.276 HD
ATOM     14  H42 UNL     1       2.040  -2.385  22.402  1.00  0.00     0.276 HD
ATOM     15  H41 UNL     1       2.021  -2.096  20.727  1.00  0.00     0.276 HD
ENDBRANCH   7  12
ENDBRANCH   6   7
ENDBRANCH   4   6
BRANCH   1  16
HETATM   16  C1  UNL     1       7.806   0.407  24.299  1.00  0.00     0.236 C 
BRANCH  16  17
HETATM   17  N1  UNL     1       8.632  -0.549  24.985  1.00  0.00    -0.079 N 
ATOM     18  H13 UNL     1       8.686  -1.425  24.464  1.00  0.00     0.274 HD
ATOM     19  H12 UNL     1       9.614  -0.275  24.950  1.00  0.00     0.274 HD
ATOM     20  H11 UNL     1       8.332  -0.715  25.946  1.00  0.00     0.274 HD
ENDBRANCH  16  17
ENDBRANCH   1  16
TORSDOF 6
ENDMDL
MODEL 4
REMARK VINA RESULT: -3.420622918      2.075      5.161
REMARK  6 active torsions:
REMARK  status: ('A' for Active; 'I' for Inactive)
REMARK    1  A    between atoms: N1_1  and  C1_5 
REMARK    2  A    between atoms: C1_5  and  C2_6 
REMARK    3  A    between atoms: N2_9  and  C5_10 
REMARK    4  A    between atoms: C5_10  and  C6_11 
REMARK    5  A    between atoms: C6_11  and  N3_12 
REMARK    6  A    between atoms: C6_11  and  N4_16 
ROOT
HETATM    1  C2  UNL     1       7.347  -0.744  23.059  1.00  0.00     0.041 C 
HETATM    2  C3  UNL     1       5.959  -1.249  23.365  1.00  0.00     0.038 C 
HETATM    3  C4  UNL     1       5.407  -1.464  21.969  1.00  0.00     0.273 C 
HETATM    4  N2  UNL     1       6.290  -0.898  21.043  1.00  0.00     0.092 N 
HETATM    5  C7  UNL     1       7.084   0.077  21.816  1.00  0.00     0.279 C 
ENDROOT
BRANCH   4   6
HETATM    6  C5  UNL     1       7.176  -1.698  20.297  1.00  0.00     0.334 C 
BRANCH   6   7
HETATM    7  C6  UNL     1       7.241  -1.502  18.822  1.00  0.00     0.406 C 
BRANCH   7   8
HETATM    8  N3  UNL     1       6.039  -1.841  18.094  1.00  0.00    -0.049 N 
ATOM      9  H33 UNL     1       5.726  -1.040  17.545  1.00  0.00     0.276 HD
ATOM     10  H32 UNL     1       6.257  -2.500  17.346  1.00  0.00     0.276 HD
ATOM     11  H31 UNL     1       5.269  -2.199  18.659  1.00  0.00     0.276 HD
ENDBRANCH   7   8
BRANCH   7  12
HETATM   12  N4  UNL     1       8.296  -2.371  18.304  1.00  0.00    -0.049 N 
ATOM     13  H43 UNL     1       9.192  -2.226  18.768  1.00  0.00     0.276 HD
ATOM     14  H42 UNL     1       8.167  -3.349  18.564  1.00  0.00     0.276 HD
ATOM     15  H41 UNL     1       8.345  -2.232  17.295  1.00  0.00     0.276 HD
ENDBRANCH   7  12
ENDBRANCH   6   7
ENDBRANCH   4   6
BRANCH   1  16
HETATM   16  C1  UNL     1       7.938   0.111  24.133  1.00  0.00     0.236 C 
BRANCH  16  17
HETATM   17  N1  UNL     1       8.720  -0.639  25.077  1.00  0.00    -0.079 N 
ATOM     18  H13 UNL     1       8.151  -1.348  25.540  1.00  0.00     0.274 HD
ATOM     19  H12 UNL     1       9.386  -1.245  24.600  1.00  0.00     0.274 HD
ATOM     20  H11 UNL     1       9.190  -0.046  25.762  1.00  0.00     0.274 HD
ENDBRANCH  16  17
ENDBRANCH   1  16
TORSDOF 6
ENDMDL
MODEL 5
REMARK VINA RESULT: -3.419817424      1.672      2.254
REMARK  6 active torsions:
REMARK  status: ('A' for Active; 'I' for Inactive)
REMARK    1  A    between atoms: N1_1  and  C1_5 
REMARK    2  A    between atoms: C1_5  and  C2_6 
REMARK    3  A    between atoms: N2_9  and  C5_10 
REMARK    4  A    between atoms: C5_10  and  C6_11 
REMARK    5  A    between atoms: C6_11  and  N3_12 
REMARK    6  A    between atoms: C6_11  and  N4_16 
ROOT
HETATM    1  C2  UNL     1       7.358  -1.619  19.766  1.00  0.00     0.041 C 
HETATM    2  C3  UNL     1       8.042  -0.363  20.245  1.00  0.00     0.038 C 
HETATM    3  C4  UNL     1       7.316  -0.109  21.552  1.00  0.00     0.273 C 
HETATM    4  N2  UNL     1       6.212  -0.966  21.629  1.00  0.00     0.092 N 
HETATM    5  C7  UNL     1       5.941  -1.368  20.235  1.00  0.00     0.279 C 
ENDROOT
BRANCH   4   6
HETATM    6  C5  UNL     1       6.244  -2.125  22.426  1.00  0.00     0.334 C 
BRANCH   6   7
HETATM    7  C6  UNL     1       5.143  -2.345  23.405  1.00  0.00     0.406 C 
BRANCH   7   8
HETATM    8  N3  UNL     1       3.818  -2.459  22.838  1.00  0.00    -0.049 N 
ATOM      9  H33 UNL     1       3.387  -3.337  23.130  1.00  0.00     0.276 HD
ATOM     10  H32 UNL     1       3.188  -1.792  23.283  1.00  0.00     0.276 HD
ATOM     11  H31 UNL     1       3.764  -2.365  21.823  1.00  0.00     0.276 HD
ENDBRANCH   7   8
BRANCH   7  12
HETATM   12  N4  UNL     1       5.109  -1.193  24.303  1.00  0.00    -0.049 N 
ATOM     13  H43 UNL     1       4.942  -1.453  25.275  1.00  0.00     0.276 HD
ATOM     14  H42 UNL     1       6.025  -0.764  24.433  1.00  0.00     0.276 HD
ATOM     15  H41 UNL     1       4.413  -0.539  23.943  1.00  0.00     0.276 HD
ENDBRANCH   7  12
ENDBRANCH   6   7
ENDBRANCH   4   6
BRANCH   1  16
HETATM   16  C1  UNL     1       7.391  -1.808  18.284  1.00  0.00     0.236 C 
BRANCH  16  17
HETATM   17  N1  UNL     1       8.412  -2.727  17.861  1.00  0.00    -0.079 N 
ATOM     18  H13 UNL     1       8.645  -2.585  16.878  1.00  0.00     0.274 HD
ATOM     19  H12 UNL     1       9.311  -2.492  18.281  1.00  0.00     0.274 HD
ATOM     20  H11 UNL     1       8.168  -3.701  18.041  1.00  0.00     0.274 HD
ENDBRANCH  16  17
ENDBRANCH   1  16
TORSDOF 6
ENDMDL
