MODEL 1
REMARK VINA RESULT: -3.583891521      0.000      0.000
REMARK  5 active torsions:
REMARK  status: ('A' for Active; 'I' for Inactive)
REMARK    1  A    between atoms: N1_1  and  C1_5 
REMARK    2  A    between atoms: C1_5  and  C2_6 
REMARK    3  A    between atoms: C2_6  and  N2_7 
REMARK    4  A    between atoms: C2_6  and  C3_11 
REMARK    5  A    between atoms: C3_11  and  C4_12 
ROOT
HETATM    1  C2  UNL     1       7.649  -0.487  20.020  1.00  0.00     0.209 C 
ENDROOT
BRANCH   1   2
HETATM    2  C1  UNL     1       7.808  -1.718  19.160  1.00  0.00     0.262 C 
BRANCH   2   3
HETATM    3  N1  UNL     1       6.599  -1.755  18.323  1.00  0.00    -0.077 N 
ATOM      4  H13 UNL     1       5.934  -2.481  18.589  1.00  0.00     0.274 HD
ATOM      5  H12 UNL     1       5.972  -0.964  18.467  1.00  0.00     0.274 HD
ATOM      6  H11 UNL     1       6.944  -1.841  17.367  1.00  0.00     0.274 HD
ENDBRANCH   2   3
ENDBRANCH   1   2
BRANCH   1   7
HETATM    7  N2  UNL     1       8.918   0.222  20.156  1.00  0.00    -0.073 N 
ATOM      8  H23 UNL     1       9.655  -0.390  20.507  1.00  0.00     0.274 HD
ATOM      9  H22 UNL     1       9.324   0.445  19.246  1.00  0.00     0.274 HD
ATOM     10  H21 UNL     1       8.810   1.053  20.736  1.00  0.00     0.274 HD
ENDBRANCH   1   7
BRANCH   1  11
HETATM   11  C3  UNL     1       7.086  -0.867  21.350  1.00  0.00     0.040 C 
BRANCH  11  12
HETATM   12  C4  UNL     1       7.153   0.282  22.295  1.00  0.00     0.013 C 
HETATM   13  C5  UNL     1       7.865  -0.150  23.572  1.00  0.00     0.008 C 
HETATM   14  C6  UNL     1       7.299   0.495  24.795  1.00  0.00     0.028 C 
HETATM   15  C7  UNL     1       6.787   1.885  24.578  1.00  0.00     0.232 C 
HETATM   16  N3  UNL     1       5.955   2.008  23.403  1.00  0.00    -0.075 N 
HETATM   17  C8  UNL     1       5.752   0.696  22.770  1.00  0.00     0.237 C 
ATOM     18  H32 UNL     1       5.070   2.468  23.613  1.00  0.00     0.277 HD
ATOM     19  H31 UNL     1       6.330   2.692  22.745  1.00  0.00     0.277 HD
ENDBRANCH  11  12
ENDBRANCH   1  11
TORSDOF 5
ENDMDL
MODEL 2
REMARK VINA RESULT: -3.480212918      1.942      3.306
REMARK  5 active torsions:
REMARK  status: ('A' for Active; 'I' for Inactive)
REMARK    1  A    between atoms: N1_1  and  C1_5 
REMARK    2  A    between atoms: C1_5  and  C2_6 
REMARK    3  A    between atoms: C2_6  and  N2_7 
REMARK    4  A    between atoms: C2_6  and  C3_11 
REMARK    5  A    between atoms: C3_11  and  C4_12 
ROOT
HETATM    1  C2  UNL     1       8.598  -2.329  18.223  1.00  0.00     0.209 C 
ENDROOT
BRANCH   1   2
HETATM    2  C1  UNL     1       9.771  -1.432  17.906  1.00  0.00     0.262 C 
BRANCH   2   3
HETATM    3  N1  UNL     1      10.209  -1.841  16.562  1.00  0.00    -0.077 N 
ATOM      4  H13 UNL     1       9.728  -2.667  16.205  1.00  0.00     0.274 HD
ATOM      5  H12 UNL     1       9.917  -1.205  15.820  1.00  0.00     0.274 HD
ATOM      6  H11 UNL     1      11.220  -1.951  16.638  1.00  0.00     0.274 HD
ENDBRANCH   2   3
ENDBRANCH   1   2
BRANCH   1   7
HETATM    7  N2  UNL     1       8.257  -3.165  17.075  1.00  0.00    -0.073 N 
ATOM      8  H23 UNL     1       9.090  -3.537  16.620  1.00  0.00     0.274 HD
ATOM      9  H22 UNL     1       7.833  -4.047  17.365  1.00  0.00     0.274 HD
ATOM     10  H21 UNL     1       7.663  -2.658  16.420  1.00  0.00     0.274 HD
ENDBRANCH   1   7
BRANCH   1  11
HETATM   11  C3  UNL     1       7.435  -1.504  18.668  1.00  0.00     0.040 C 
BRANCH  11  12
HETATM   12  C4  UNL     1       7.458  -1.321  20.146  1.00  0.00     0.013 C 
HETATM   13  C5  UNL     1       6.035  -1.375  20.688  1.00  0.00     0.008 C 
HETATM   14  C6  UNL     1       5.817  -0.440  21.833  1.00  0.00     0.028 C 
HETATM   15  C7  UNL     1       7.016  -0.250  22.709  1.00  0.00     0.232 C 
HETATM   16  N3  UNL     1       8.231  -0.006  21.966  1.00  0.00    -0.075 N 
HETATM   17  C8  UNL     1       7.950   0.084  20.525  1.00  0.00     0.237 C 
ATOM     18  H32 UNL     1       8.723   0.819  22.307  1.00  0.00     0.277 HD
ATOM     19  H31 UNL     1       8.945  -0.705  22.169  1.00  0.00     0.277 HD
ENDBRANCH  11  12
ENDBRANCH   1  11
TORSDOF 5
ENDMDL
MODEL 3
REMARK VINA RESULT: -3.475804407     13.734     14.306
REMARK  5 active torsions:
REMARK  status: ('A' for Active; 'I' for Inactive)
REMARK    1  A    between atoms: N1_1  and  C1_5 
REMARK    2  A    between atoms: C1_5  and  C2_6 
REMARK    3  A    between atoms: C2_6  and  N2_7 
REMARK    4  A    between atoms: C2_6  and  C3_11 
REMARK    5  A    between atoms: C3_11  and  C4_12 
ROOT
HETATM    1  C2  UNL     1       3.677  -1.637   7.863  1.00  0.00     0.209 C 
ENDROOT
BRANCH   1   2
HETATM    2  C1  UNL     1       4.489  -2.909   7.828  1.00  0.00     0.262 C 
BRANCH   2   3
HETATM    3  N1  UNL     1       5.605  -2.672   8.757  1.00  0.00    -0.077 N 
ATOM      4  H13 UNL     1       6.341  -3.377   8.708  1.00  0.00     0.274 HD
ATOM      5  H12 UNL     1       6.190  -1.875   8.506  1.00  0.00     0.274 HD
ATOM      6  H11 UNL     1       5.170  -2.593   9.676  1.00  0.00     0.274 HD
ENDBRANCH   2   3
ENDBRANCH   1   2
BRANCH   1   7
HETATM    7  N2  UNL     1       4.030  -0.825   9.024  1.00  0.00    -0.073 N 
ATOM      8  H23 UNL     1       4.634  -1.334   9.669  1.00  0.00     0.274 HD
ATOM      9  H22 UNL     1       4.670  -0.070   8.776  1.00  0.00     0.274 HD
ATOM     10  H21 UNL     1       3.193  -0.473   9.489  1.00  0.00     0.274 HD
ENDBRANCH   1   7
BRANCH   1  11
HETATM   11  C3  UNL     1       2.220  -1.965   7.843  1.00  0.00     0.040 C 
BRANCH  11  12
HETATM   12  C4  UNL     1       1.858  -2.814   9.012  1.00  0.00     0.013 C 
HETATM   13  C5  UNL     1       1.426  -4.192   8.526  1.00  0.00     0.008 C 
HETATM   14  C6  UNL     1       0.326  -4.776   9.351  1.00  0.00     0.028 C 
HETATM   15  C7  UNL     1       0.377  -4.402  10.800  1.00  0.00     0.232 C 
HETATM   16  N3  UNL     1       0.596  -2.990  11.016  1.00  0.00    -0.075 N 
HETATM   17  C8  UNL     1       0.619  -2.266   9.735  1.00  0.00     0.237 C 
ATOM     18  H32 UNL     1      -0.089  -2.596  11.660  1.00  0.00     0.277 HD
ATOM     19  H31 UNL     1       1.439  -2.817  11.563  1.00  0.00     0.277 HD
ENDBRANCH  11  12
ENDBRANCH   1  11
TORSDOF 5
ENDMDL
MODEL 4
REMARK VINA RESULT: -3.463277548      2.291      3.442
REMARK  5 active torsions:
REMARK  status: ('A' for Active; 'I' for Inactive)
REMARK    1  A    between atoms: N1_1  and  C1_5 
REMARK    2  A    between atoms: C1_5  and  C2_6 
REMARK    3  A    between atoms: C2_6  and  N2_7 
REMARK    4  A    between atoms: C2_6  and  C3_11 
REMARK    5  A    between atoms: C3_11  and  C4_12 
ROOT
HETATM    1  C2  UNL     1       8.190  -2.567  17.863  1.00  0.00     0.209 C 
ENDROOT
BRANCH   1   2
HETATM    2  C1  UNL     1       9.196  -3.010  16.827  1.00  0.00     0.262 C 
BRANCH   2   3
HETATM    3  N1  UNL     1      10.071  -1.844  16.625  1.00  0.00    -0.077 N 
ATOM      4  H13 UNL     1       9.642  -1.096  16.080  1.00  0.00     0.274 HD
ATOM      5  H12 UNL     1      10.230  -1.295  17.470  1.00  0.00     0.274 HD
ATOM      6  H11 UNL     1      10.922  -2.222  16.211  1.00  0.00     0.274 HD
ENDBRANCH   2   3
ENDBRANCH   1   2
BRANCH   1   7
HETATM    7  N2  UNL     1       6.956  -2.112  17.228  1.00  0.00    -0.073 N 
ATOM      8  H23 UNL     1       6.952  -1.101  17.093  1.00  0.00     0.274 HD
ATOM      9  H22 UNL     1       6.908  -2.398  16.249  1.00  0.00     0.274 HD
ATOM     10  H21 UNL     1       6.140  -2.425  17.753  1.00  0.00     0.274 HD
ENDBRANCH   1   7
BRANCH   1  11
HETATM   11  C3  UNL     1       8.786  -1.507  18.729  1.00  0.00     0.040 C 
BRANCH  11  12
HETATM   12  C4  UNL     1       7.739  -0.870  19.574  1.00  0.00     0.013 C 
HETATM   13  C5  UNL     1       8.388   0.133  20.520  1.00  0.00     0.008 C 
HETATM   14  C6  UNL     1       7.722   0.182  21.856  1.00  0.00     0.028 C 
HETATM   15  C7  UNL     1       6.246  -0.063  21.817  1.00  0.00     0.232 C 
HETATM   16  N3  UNL     1       5.879  -1.206  21.012  1.00  0.00    -0.075 N 
HETATM   17  C8  UNL     1       7.079  -1.893  20.510  1.00  0.00     0.237 C 
ATOM     18  H32 UNL     1       5.263  -1.842  21.518  1.00  0.00     0.277 HD
ATOM     19  H31 UNL     1       5.246  -0.948  20.256  1.00  0.00     0.277 HD
ENDBRANCH  11  12
ENDBRANCH   1  11
TORSDOF 5
ENDMDL
MODEL 5
REMARK VINA RESULT: -3.404047569      2.169      2.707
REMARK  5 active torsions:
REMARK  status: ('A' for Active; 'I' for Inactive)
REMARK    1  A    between atoms: N1_1  and  C1_5 
REMARK    2  A    between atoms: C1_5  and  C2_6 
REMARK    3  A    between atoms: C2_6  and  N2_7 
REMARK    4  A    between atoms: C2_6  and  C3_11 
REMARK    5  A    between atoms: C3_11  and  C4_12 
ROOT
HETATM    1  C2  UNL     1       7.798  -0.233  20.245  1.00  0.00     0.209 C 
ENDROOT
BRANCH   1   2
HETATM    2  C1  UNL     1       7.382  -1.554  19.643  1.00  0.00     0.262 C 
BRANCH   2   3
HETATM    3  N1  UNL     1       8.272  -1.740  18.486  1.00  0.00    -0.077 N 
ATOM      4  H13 UNL     1       9.263  -1.641  18.707  1.00  0.00     0.274 HD
ATOM      5  H12 UNL     1       8.322  -2.702  18.153  1.00  0.00     0.274 HD
ATOM      6  H11 UNL     1       7.937  -1.078  17.787  1.00  0.00     0.274 HD
ENDBRANCH   2   3
ENDBRANCH   1   2
BRANCH   1   7
HETATM    7  N2  UNL     1       9.211   0.033  19.994  1.00  0.00    -0.073 N 
ATOM      8  H23 UNL     1       9.791  -0.222  20.794  1.00  0.00     0.274 HD
ATOM      9  H22 UNL     1       9.601  -0.617  19.309  1.00  0.00     0.274 HD
ATOM     10  H21 UNL     1       9.356   1.003  19.717  1.00  0.00     0.274 HD
ENDBRANCH   1   7
BRANCH   1  11
HETATM   11  C3  UNL     1       7.488  -0.222  21.706  1.00  0.00     0.040 C 
BRANCH  11  12
HETATM   12  C4  UNL     1       6.172  -0.869  21.967  1.00  0.00     0.013 C 
HETATM   13  C5  UNL     1       5.195   0.166  22.511  1.00  0.00     0.008 C 
HETATM   14  C6  UNL     1       4.263  -0.400  23.533  1.00  0.00     0.028 C 
HETATM   15  C7  UNL     1       3.888  -1.830  23.298  1.00  0.00     0.232 C 
HETATM   16  N3  UNL     1       5.021  -2.674  22.996  1.00  0.00    -0.075 N 
HETATM   17  C8  UNL     1       6.276  -1.912  23.089  1.00  0.00     0.237 C 
ATOM     18  H32 UNL     1       5.040  -3.507  23.583  1.00  0.00     0.277 HD
ATOM     19  H31 UNL     1       4.922  -3.129  22.088  1.00  0.00     0.277 HD
ENDBRANCH  11  12
ENDBRANCH   1  11
TORSDOF 5
ENDMDL
