MODEL 1
REMARK VINA RESULT: -4.358722268      0.000      0.000
REMARK  3 active torsions:
REMARK  status: ('A' for Active; 'I' for Inactive)
REMARK    1  A    between atoms: C3_5  and  C4_6 
REMARK    2  A    between atoms: C4_6  and  N2_7 
REMARK    3  A    between atoms: N2_7  and  C5_10 
ROOT
HETATM    1  N2  UNL     1       8.248  -3.002  17.928  1.00  0.00    -0.061 N 
ATOM      2  H21 UNL     1       7.797  -3.917  17.890  1.00  0.00     0.278 HD
ATOM      3  H22 UNL     1       8.756  -3.095  18.808  1.00  0.00     0.278 HD
ENDROOT
BRANCH   1   4
HETATM    4  C4  UNL     1       7.262  -1.959  18.024  1.00  0.00     0.308 C 
BRANCH   4   5
HETATM    5  C3  UNL     1       7.367  -1.291  19.343  1.00  0.00     0.106 A 
HETATM    6  N1  UNL     1       8.266  -0.437  19.814  1.00  0.00    -0.353 N 
HETATM    7  C2  UNL     1       7.949  -0.088  21.084  1.00  0.00     0.106 A 
ATOM      8  H1  UNL     1       9.076  -0.095  19.297  1.00  0.00     0.166 HD
HETATM    9  C1  UNL     1       6.794  -0.772  21.385  1.00  0.00     0.106 A 
HETATM   10  N4  UNL     1       6.465  -1.492  20.315  1.00  0.00    -0.353 N 
ATOM     11  H4  UNL     1       5.652  -2.103  20.245  1.00  0.00     0.166 HD
ENDBRANCH   4   5
ENDBRANCH   1   4
BRANCH   1  12
HETATM   12  C5  UNL     1       9.164  -2.848  16.832  1.00  0.00     0.237 C 
HETATM   13  C6  UNL     1      10.111  -1.676  16.937  1.00  0.00     0.267 C 
HETATM   14  N3  UNL     1      10.024  -1.579  15.473  1.00  0.00    -0.071 N 
HETATM   15  C7  UNL     1       8.701  -2.190  15.585  1.00  0.00     0.267 C 
ATOM     16  H32 UNL     1      10.157  -0.689  14.992  1.00  0.00     0.277 HD
ATOM     17  H31 UNL     1      10.743  -1.982  14.871  1.00  0.00     0.277 HD
ENDBRANCH   1  12
TORSDOF 3
ENDMDL
MODEL 2
REMARK VINA RESULT: -4.268925633      1.331      1.571
REMARK  3 active torsions:
REMARK  status: ('A' for Active; 'I' for Inactive)
REMARK    1  A    between atoms: C3_5  and  C4_6 
REMARK    2  A    between atoms: C4_6  and  N2_7 
REMARK    3  A    between atoms: N2_7  and  C5_10 
ROOT
HETATM    1  N2  UNL     1       7.753  -1.612  18.792  1.00  0.00    -0.061 N 
ATOM      2  H21 UNL     1       6.985  -1.172  18.283  1.00  0.00     0.278 HD
ATOM      3  H22 UNL     1       7.222  -2.231  19.404  1.00  0.00     0.278 HD
ENDROOT
BRANCH   1   4
HETATM    4  C4  UNL     1       8.470  -0.634  19.564  1.00  0.00     0.308 C 
BRANCH   4   5
HETATM    5  C3  UNL     1       7.711  -0.312  20.795  1.00  0.00     0.106 A 
HETATM    6  N1  UNL     1       8.023   0.452  21.833  1.00  0.00    -0.353 N 
HETATM    7  C2  UNL     1       7.008   0.450  22.729  1.00  0.00     0.106 A 
ATOM      8  H1  UNL     1       8.898   0.966  21.940  1.00  0.00     0.166 HD
HETATM    9  C1  UNL     1       6.035  -0.362  22.194  1.00  0.00     0.106 A 
HETATM   10  N4  UNL     1       6.486  -0.809  21.025  1.00  0.00    -0.353 N 
ATOM     11  H4  UNL     1       5.979  -1.435  20.400  1.00  0.00     0.166 HD
ENDBRANCH   4   5
ENDBRANCH   1   4
BRANCH   1  12
HETATM   12  C5  UNL     1       8.576  -2.375  17.896  1.00  0.00     0.237 C 
HETATM   13  C6  UNL     1       9.887  -1.730  17.510  1.00  0.00     0.267 C 
HETATM   14  N3  UNL     1       9.728  -2.384  16.202  1.00  0.00    -0.071 N 
HETATM   15  C7  UNL     1       8.288  -2.347  16.441  1.00  0.00     0.267 C 
ATOM     16  H32 UNL     1      10.136  -1.982  15.357  1.00  0.00     0.277 HD
ATOM     17  H31 UNL     1      10.207  -3.258  15.986  1.00  0.00     0.277 HD
ENDBRANCH   1  12
TORSDOF 3
ENDMDL
MODEL 3
REMARK VINA RESULT: -4.264585076      1.251      1.773
REMARK  3 active torsions:
REMARK  status: ('A' for Active; 'I' for Inactive)
REMARK    1  A    between atoms: C3_5  and  C4_6 
REMARK    2  A    between atoms: C4_6  and  N2_7 
REMARK    3  A    between atoms: N2_7  and  C5_10 
ROOT
HETATM    1  N2  UNL     1       7.833  -1.746  18.724  1.00  0.00    -0.061 N 
ATOM      2  H21 UNL     1       7.013  -1.398  18.226  1.00  0.00     0.278 HD
ATOM      3  H22 UNL     1       7.389  -2.445  19.321  1.00  0.00     0.278 HD
ENDROOT
BRANCH   1   4
HETATM    4  C4  UNL     1       8.418  -0.702  19.522  1.00  0.00     0.308 C 
BRANCH   4   5
HETATM    5  C3  UNL     1       7.571  -0.445  20.711  1.00  0.00     0.106 A 
HETATM    6  N1  UNL     1       6.363  -0.891  21.028  1.00  0.00    -0.353 N 
HETATM    7  C2  UNL     1       5.987  -0.386  22.227  1.00  0.00     0.106 A 
ATOM      8  H1  UNL     1       5.801  -1.520  20.455  1.00  0.00     0.166 HD
HETATM    9  C1  UNL     1       7.031   0.404  22.648  1.00  0.00     0.106 A 
HETATM   10  N4  UNL     1       7.975   0.350  21.712  1.00  0.00    -0.353 N 
ATOM     11  H4  UNL     1       8.869   0.840  21.750  1.00  0.00     0.166 HD
ENDBRANCH   4   5
ENDBRANCH   1   4
BRANCH   1  12
HETATM   12  C5  UNL     1       8.747  -2.372  17.810  1.00  0.00     0.237 C 
HETATM   13  C6  UNL     1      10.025  -1.611  17.546  1.00  0.00     0.267 C 
HETATM   14  N3  UNL     1       9.971  -2.157  16.182  1.00  0.00    -0.071 N 
HETATM   15  C7  UNL     1       8.522  -2.237  16.350  1.00  0.00     0.267 C 
ATOM     16  H32 UNL     1      10.387  -1.657  15.395  1.00  0.00     0.277 HD
ATOM     17  H31 UNL     1      10.519  -2.976  15.917  1.00  0.00     0.277 HD
ENDBRANCH   1  12
TORSDOF 3
ENDMDL
MODEL 4
REMARK VINA RESULT: -4.212123223      1.397      1.963
REMARK  3 active torsions:
REMARK  status: ('A' for Active; 'I' for Inactive)
REMARK    1  A    between atoms: C3_5  and  C4_6 
REMARK    2  A    between atoms: C4_6  and  N2_7 
REMARK    3  A    between atoms: N2_7  and  C5_10 
ROOT
HETATM    1  N2  UNL     1       7.329  -1.976  18.439  1.00  0.00    -0.061 N 
ATOM      2  H21 UNL     1       6.741  -1.436  17.804  1.00  0.00     0.278 HD
ATOM      3  H22 UNL     1       6.693  -2.746  18.651  1.00  0.00     0.278 HD
ENDROOT
BRANCH   1   4
HETATM    4  C4  UNL     1       7.615  -1.219  19.628  1.00  0.00     0.308 C 
BRANCH   4   5
HETATM    5  C3  UNL     1       6.561  -1.459  20.641  1.00  0.00     0.106 A 
HETATM    6  N1  UNL     1       5.275  -1.133  20.650  1.00  0.00    -0.353 N 
HETATM    7  C2  UNL     1       4.698  -1.566  21.796  1.00  0.00     0.106 A 
ATOM      8  H1  UNL     1       4.793  -0.632  19.904  1.00  0.00     0.166 HD
HETATM    9  C1  UNL     1       5.697  -2.185  22.510  1.00  0.00     0.106 A 
HETATM   10  N4  UNL     1       6.812  -2.105  21.789  1.00  0.00    -0.353 N 
ATOM     11  H4  UNL     1       7.720  -2.478  22.067  1.00  0.00     0.166 HD
ENDBRANCH   4   5
ENDBRANCH   1   4
BRANCH   1  12
HETATM   12  C5  UNL     1       8.494  -2.461  17.754  1.00  0.00     0.237 C 
HETATM   13  C6  UNL     1       9.703  -1.556  17.808  1.00  0.00     0.267 C 
HETATM   14  N3  UNL     1      10.028  -2.047  16.460  1.00  0.00    -0.071 N 
HETATM   15  C7  UNL     1       8.598  -2.289  16.284  1.00  0.00     0.267 C 
ATOM     16  H32 UNL     1      10.553  -1.473  15.800  1.00  0.00     0.277 HD
ATOM     17  H31 UNL     1      10.712  -2.790  16.317  1.00  0.00     0.277 HD
ENDBRANCH   1  12
TORSDOF 3
ENDMDL
MODEL 5
REMARK VINA RESULT: -4.183461324     10.648     11.804
REMARK  3 active torsions:
REMARK  status: ('A' for Active; 'I' for Inactive)
REMARK    1  A    between atoms: C3_5  and  C4_6 
REMARK    2  A    between atoms: C4_6  and  N2_7 
REMARK    3  A    between atoms: N2_7  and  C5_10 
ROOT
HETATM    1  N2  UNL     1       1.469  -2.245   8.102  1.00  0.00    -0.061 N 
ATOM      2  H21 UNL     1       2.029  -2.717   7.392  1.00  0.00     0.278 HD
ATOM      3  H22 UNL     1       0.905  -1.641   7.503  1.00  0.00     0.278 HD
ENDROOT
BRANCH   1   4
HETATM    4  C4  UNL     1       2.309  -1.456   8.963  1.00  0.00     0.308 C 
BRANCH   4   5
HETATM    5  C3  UNL     1       3.733  -1.686   8.622  1.00  0.00     0.106 A 
HETATM    6  N1  UNL     1       4.785  -0.882   8.700  1.00  0.00    -0.353 N 
HETATM    7  C2  UNL     1       5.894  -1.533   8.277  1.00  0.00     0.106 A 
ATOM      8  H1  UNL     1       4.761   0.083   9.030  1.00  0.00     0.166 HD
HETATM    9  C1  UNL     1       5.479  -2.797   7.928  1.00  0.00     0.106 A 
HETATM   10  N4  UNL     1       4.168  -2.862   8.146  1.00  0.00    -0.353 N 
ATOM     11  H4  UNL     1       3.584  -3.680   7.977  1.00  0.00     0.166 HD
ENDBRANCH   4   5
ENDBRANCH   1   4
BRANCH   1  12
HETATM   12  C5  UNL     1       0.635  -3.187   8.794  1.00  0.00     0.237 C 
HETATM   13  C6  UNL     1       0.690  -3.118  10.303  1.00  0.00     0.267 C 
HETATM   14  N3  UNL     1       0.484  -4.574  10.295  1.00  0.00    -0.071 N 
HETATM   15  C7  UNL     1       1.109  -4.582   8.974  1.00  0.00     0.267 C 
ATOM     16  H32 UNL     1       0.834  -5.162  11.051  1.00  0.00     0.277 HD
ATOM     17  H31 UNL     1      -0.441  -4.978  10.444  1.00  0.00     0.277 HD
ENDBRANCH   1  12
TORSDOF 3
ENDMDL
