MODEL 1
REMARK VINA RESULT: -6.979848285      0.000      0.000
REMARK  13 active torsions:
REMARK  status: ('A' for Active; 'I' for Inactive)
REMARK    1  A    between atoms: C2_2  and  C4_4 
REMARK    2  A    between atoms: C4_4  and  C5_5 
REMARK    3  A    between atoms: C8_9  and  C9_10 
REMARK    4  A    between atoms: C12_13  and  O1_14 
REMARK    5  A    between atoms: C13_18  and  C14_19 
REMARK    6  A    between atoms: C14_19  and  C15_20 
REMARK    7  A    between atoms: C15_20  and  C16_21 
REMARK    8  A    between atoms: C16_21  and  C17_22 
REMARK    9  A    between atoms: C17_22  and  C18_23 
REMARK   10  A    between atoms: C18_23  and  C19_24 
REMARK   11  A    between atoms: C20_27  and  O4_28 
REMARK   12  A    between atoms: C21_32  and  C22_33 
REMARK   13  A    between atoms: C22_33  and  C23_34 
ROOT
HETATM    1  C5  UNL     1      30.419  37.163  -9.499  1.00  0.00     0.022 C 
HETATM    2  C6  UNL     1      30.515  38.626  -9.561  1.00  0.00     0.085 C 
HETATM    3  N1  UNL     1      30.925  39.309 -10.698  1.00  0.00    -0.282 NA
HETATM    4  C7  UNL     1      29.789  39.249 -11.649  1.00  0.00     0.117 C 
HETATM    5  C8  UNL     1      32.066  39.100 -11.427  1.00  0.00     0.139 C 
HETATM    6  C12 UNL     1      33.419  39.115 -10.907  1.00  0.00     0.131 C 
HETATM    7  N2  UNL     1      34.157  39.732  -9.938  1.00  0.00    -0.361 N 
ATOM      8  H2  UNL     1      34.991  40.145 -10.356  1.00  0.00     0.162 HD
HETATM    9  C13 UNL     1      34.150  39.994  -8.530  1.00  0.00     0.157 C 
HETATM   10  C20 UNL     1      33.825  38.926  -7.610  1.00  0.00     0.135 C 
HETATM   11  N3  UNL     1      33.327  37.639  -7.694  1.00  0.00    -0.359 N 
ATOM     12  H3  UNL     1      32.508  37.459  -7.114  1.00  0.00     0.162 HD
HETATM   13  C21 UNL     1      33.788  36.491  -8.483  1.00  0.00     0.176 C 
HETATM   14  C26 UNL     1      32.597  35.799  -9.040  1.00  0.00     0.244 C 
HETATM   15  O5  UNL     1      32.565  34.538  -8.790  1.00  0.00    -0.271 OA
HETATM   16  N4  UNL     1      31.532  36.333  -9.786  1.00  0.00    -0.328 N 
ATOM     17  H4  UNL     1      31.569  36.058 -10.767  1.00  0.00     0.168 HD
ENDROOT
BRANCH   9  18
HETATM   18  C14 UNL     1      33.329  41.244  -8.339  1.00  0.00     0.033 C 
BRANCH  18  19
HETATM   19  C15 UNL     1      33.849  42.525  -8.857  1.00  0.00     0.002 C 
BRANCH  19  20
HETATM   20  C16 UNL     1      32.819  43.482  -9.389  1.00  0.00     0.001 C 
BRANCH  20  21
HETATM   21  C17 UNL     1      33.349  44.148 -10.634  1.00  0.00     0.010 C 
BRANCH  21  22
HETATM   22  C18 UNL     1      32.334  45.009 -11.326  1.00  0.00     0.113 C 
BRANCH  22  23
HETATM   23  C19 UNL     1      33.014  45.838 -12.388  1.00  0.00     0.172 C 
HETATM   24  O2  UNL     1      33.115  47.076 -12.307  1.00  0.00    -0.648 OA
HETATM   25  O3  UNL     1      33.532  45.154 -13.477  1.00  0.00    -0.648 OA
ENDBRANCH  22  23
ENDBRANCH  21  22
ENDBRANCH  20  21
ENDBRANCH  19  20
ENDBRANCH  18  19
ENDBRANCH   9  18
BRANCH  10  26
HETATM   26  O4  UNL     1      34.054  39.241  -6.369  1.00  0.00    -0.348 OA
ATOM     27  H4  UNL     1      34.916  38.970  -6.073  1.00  0.00     0.219 HD
ENDBRANCH  10  26
BRANCH   6  28
HETATM   28  O1  UNL     1      34.173  38.267 -11.588  1.00  0.00    -0.348 OA
ATOM     29  H1  UNL     1      33.961  38.315 -12.513  1.00  0.00     0.219 HD
ENDBRANCH   6  28
BRANCH   5  30
HETATM   30  C9  UNL     1      31.973  40.036 -12.671  1.00  0.00     0.003 C 
HETATM   31  C10 UNL     1      32.649  39.373 -13.850  1.00  0.00     0.011 C 
HETATM   32  C11 UNL     1      32.688  41.341 -12.412  1.00  0.00     0.011 C 
ENDBRANCH   5  30
BRANCH  13  33
HETATM   33  C22 UNL     1      34.521  35.635  -7.481  1.00  0.00     0.038 C 
BRANCH  33  34
HETATM   34  C23 UNL     1      35.964  35.376  -7.730  1.00  0.00    -0.020 C 
HETATM   35  C24 UNL     1      36.744  36.562  -7.158  1.00  0.00     0.009 C 
HETATM   36  C25 UNL     1      36.278  35.441  -9.245  1.00  0.00     0.009 C 
ENDBRANCH  33  34
ENDBRANCH  13  33
BRANCH   1  37
HETATM   37  C4  UNL     1      29.644  36.782  -8.245  1.00  0.00     0.062 C 
BRANCH  37  38
HETATM   38  C2  UNL     1      28.775  35.584  -8.379  1.00  0.00    -0.017 C 
HETATM   39  C1  UNL     1      27.438  36.099  -8.963  1.00  0.00     0.010 C 
HETATM   40  C3  UNL     1      28.465  34.883  -7.099  1.00  0.00     0.010 C 
ENDBRANCH  37  38
ENDBRANCH   1  37
TORSDOF 13
ENDMDL
MODEL 2
REMARK VINA RESULT: -6.621888578      1.046      1.405
REMARK  13 active torsions:
REMARK  status: ('A' for Active; 'I' for Inactive)
REMARK    1  A    between atoms: C2_2  and  C4_4 
REMARK    2  A    between atoms: C4_4  and  C5_5 
REMARK    3  A    between atoms: C8_9  and  C9_10 
REMARK    4  A    between atoms: C12_13  and  O1_14 
REMARK    5  A    between atoms: C13_18  and  C14_19 
REMARK    6  A    between atoms: C14_19  and  C15_20 
REMARK    7  A    between atoms: C15_20  and  C16_21 
REMARK    8  A    between atoms: C16_21  and  C17_22 
REMARK    9  A    between atoms: C17_22  and  C18_23 
REMARK   10  A    between atoms: C18_23  and  C19_24 
REMARK   11  A    between atoms: C20_27  and  O4_28 
REMARK   12  A    between atoms: C21_32  and  C22_33 
REMARK   13  A    between atoms: C22_33  and  C23_34 
ROOT
HETATM    1  C5  UNL     1      30.480  37.034  -9.404  1.00  0.00     0.022 C 
HETATM    2  C6  UNL     1      30.195  38.453  -9.638  1.00  0.00     0.085 C 
HETATM    3  N1  UNL     1      30.210  39.030 -10.901  1.00  0.00    -0.282 NA
HETATM    4  C7  UNL     1      28.974  38.573 -11.579  1.00  0.00     0.117 C 
HETATM    5  C8  UNL     1      31.217  38.973 -11.829  1.00  0.00     0.139 C 
HETATM    6  C12 UNL     1      32.595  39.369 -11.610  1.00  0.00     0.131 C 
HETATM    7  N2  UNL     1      33.317  40.276 -10.889  1.00  0.00    -0.361 N 
ATOM      8  H2  UNL     1      33.932  40.796 -11.514  1.00  0.00     0.162 HD
HETATM    9  C13 UNL     1      33.498  40.741  -9.546  1.00  0.00     0.157 C 
HETATM   10  C20 UNL     1      33.621  39.780  -8.471  1.00  0.00     0.135 C 
HETATM   11  N3  UNL     1      33.453  38.417  -8.313  1.00  0.00    -0.359 N 
ATOM     12  H3  UNL     1      32.822  38.148  -7.558  1.00  0.00     0.162 HD
HETATM   13  C21 UNL     1      34.036  37.295  -9.056  1.00  0.00     0.176 C 
HETATM   14  C26 UNL     1      32.976  36.277  -9.275  1.00  0.00     0.244 C 
HETATM   15  O5  UNL     1      33.305  35.094  -8.893  1.00  0.00    -0.271 OA
HETATM   16  N4  UNL     1      31.695  36.440  -9.831  1.00  0.00    -0.328 N 
ATOM     17  H4  UNL     1      31.622  36.034 -10.764  1.00  0.00     0.168 HD
ENDROOT
BRANCH   9  18
HETATM   18  C14 UNL     1      32.439  41.789  -9.318  1.00  0.00     0.033 C 
BRANCH  18  19
HETATM   19  C15 UNL     1      32.857  43.185  -9.077  1.00  0.00     0.002 C 
BRANCH  19  20
HETATM   20  C16 UNL     1      33.598  43.849 -10.204  1.00  0.00     0.001 C 
BRANCH  20  21
HETATM   21  C17 UNL     1      32.739  43.841 -11.443  1.00  0.00     0.010 C 
BRANCH  21  22
HETATM   22  C18 UNL     1      32.095  45.166 -11.729  1.00  0.00     0.113 C 
BRANCH  22  23
HETATM   23  C19 UNL     1      32.972  45.963 -12.663  1.00  0.00     0.172 C 
HETATM   24  O2  UNL     1      33.492  45.466 -13.679  1.00  0.00    -0.648 OA
HETATM   25  O3  UNL     1      33.181  47.296 -12.339  1.00  0.00    -0.648 OA
ENDBRANCH  22  23
ENDBRANCH  21  22
ENDBRANCH  20  21
ENDBRANCH  19  20
ENDBRANCH  18  19
ENDBRANCH   9  18
BRANCH  10  26
HETATM   26  O4  UNL     1      33.983  40.324  -7.347  1.00  0.00    -0.348 OA
ATOM     27  H4  UNL     1      34.866  40.086  -7.089  1.00  0.00     0.219 HD
ENDBRANCH  10  26
BRANCH   6  28
HETATM   28  O1  UNL     1      33.402  38.618 -12.342  1.00  0.00    -0.348 OA
ATOM     29  H1  UNL     1      34.017  38.160 -11.780  1.00  0.00     0.219 HD
ENDBRANCH   6  28
BRANCH   5  30
HETATM   30  C9  UNL     1      30.672  39.663 -13.116  1.00  0.00     0.003 C 
HETATM   31  C10 UNL     1      31.186  38.930 -14.335  1.00  0.00     0.011 C 
HETATM   32  C11 UNL     1      31.160  41.090 -13.205  1.00  0.00     0.011 C 
ENDBRANCH   5  30
BRANCH  13  33
HETATM   33  C22 UNL     1      35.127  36.787  -8.148  1.00  0.00     0.038 C 
BRANCH  33  34
HETATM   34  C23 UNL     1      36.507  36.736  -8.700  1.00  0.00    -0.020 C 
HETATM   35  C24 UNL     1      36.598  37.795  -9.800  1.00  0.00     0.009 C 
HETATM   36  C25 UNL     1      36.741  35.409  -9.465  1.00  0.00     0.009 C 
ENDBRANCH  33  34
ENDBRANCH  13  33
BRANCH   1  37
HETATM   37  C4  UNL     1      30.064  36.684  -7.982  1.00  0.00     0.062 C 
BRANCH  37  38
HETATM   38  C2  UNL     1      28.942  35.715  -7.872  1.00  0.00    -0.017 C 
HETATM   39  C1  UNL     1      29.595  34.312  -7.899  1.00  0.00     0.010 C 
HETATM   40  C3  UNL     1      27.950  35.769  -8.985  1.00  0.00     0.010 C 
ENDBRANCH  37  38
ENDBRANCH   1  37
TORSDOF 13
ENDMDL
MODEL 3
REMARK VINA RESULT: -6.527798093      2.033      3.442
REMARK  13 active torsions:
REMARK  status: ('A' for Active; 'I' for Inactive)
REMARK    1  A    between atoms: C2_2  and  C4_4 
REMARK    2  A    between atoms: C4_4  and  C5_5 
REMARK    3  A    between atoms: C8_9  and  C9_10 
REMARK    4  A    between atoms: C12_13  and  O1_14 
REMARK    5  A    between atoms: C13_18  and  C14_19 
REMARK    6  A    between atoms: C14_19  and  C15_20 
REMARK    7  A    between atoms: C15_20  and  C16_21 
REMARK    8  A    between atoms: C16_21  and  C17_22 
REMARK    9  A    between atoms: C17_22  and  C18_23 
REMARK   10  A    between atoms: C18_23  and  C19_24 
REMARK   11  A    between atoms: C20_27  and  O4_28 
REMARK   12  A    between atoms: C21_32  and  C22_33 
REMARK   13  A    between atoms: C22_33  and  C23_34 
ROOT
HETATM    1  C5  UNL     1      31.134  36.232  -9.230  1.00  0.00     0.022 C 
HETATM    2  C6  UNL     1      30.811  36.688 -10.586  1.00  0.00     0.085 C 
HETATM    3  N1  UNL     1      31.566  36.341 -11.700  1.00  0.00    -0.282 NA
HETATM    4  C7  UNL     1      31.240  34.926 -11.996  1.00  0.00     0.117 C 
HETATM    5  C8  UNL     1      32.919  36.482 -11.863  1.00  0.00     0.139 C 
HETATM    6  C12 UNL     1      33.668  37.715 -11.714  1.00  0.00     0.131 C 
HETATM    7  N2  UNL     1      33.511  39.058 -11.899  1.00  0.00    -0.361 N 
ATOM      8  H2  UNL     1      34.268  39.412 -12.483  1.00  0.00     0.162 HD
HETATM    9  C13 UNL     1      32.637  40.137 -11.546  1.00  0.00     0.157 C 
HETATM   10  C20 UNL     1      32.183  40.266 -10.179  1.00  0.00     0.135 C 
HETATM   11  N3  UNL     1      32.225  39.504  -9.026  1.00  0.00    -0.359 N 
ATOM     12  H3  UNL     1      31.319  39.344  -8.585  1.00  0.00     0.162 HD
HETATM   13  C21 UNL     1      33.363  38.889  -8.334  1.00  0.00     0.176 C 
HETATM   14  C26 UNL     1      32.961  37.529  -7.890  1.00  0.00     0.244 C 
HETATM   15  O5  UNL     1      33.167  37.309  -6.640  1.00  0.00    -0.271 OA
HETATM   16  N4  UNL     1      32.400  36.483  -8.643  1.00  0.00    -0.328 N 
ATOM     17  H4  UNL     1      33.061  35.724  -8.806  1.00  0.00     0.168 HD
ENDROOT
BRANCH   9  18
HETATM   18  C14 UNL     1      31.526  40.128 -12.566  1.00  0.00     0.033 C 
BRANCH  18  19
HETATM   19  C15 UNL     1      31.469  41.211 -13.568  1.00  0.00     0.002 C 
BRANCH  19  20
HETATM   20  C16 UNL     1      32.595  42.206 -13.519  1.00  0.00     0.001 C 
BRANCH  20  21
HETATM   21  C17 UNL     1      32.032  43.589 -13.312  1.00  0.00     0.010 C 
BRANCH  21  22
HETATM   22  C18 UNL     1      33.031  44.682 -13.564  1.00  0.00     0.113 C 
BRANCH  22  23
HETATM   23  C19 UNL     1      33.247  45.471 -12.295  1.00  0.00     0.172 C 
HETATM   24  O2  UNL     1      33.266  46.715 -12.277  1.00  0.00    -0.648 OA
HETATM   25  O3  UNL     1      33.428  44.741 -11.130  1.00  0.00    -0.648 OA
ENDBRANCH  22  23
ENDBRANCH  21  22
ENDBRANCH  20  21
ENDBRANCH  19  20
ENDBRANCH  18  19
ENDBRANCH   9  18
BRANCH  10  26
HETATM   26  O4  UNL     1      31.570  41.391  -9.955  1.00  0.00    -0.348 OA
ATOM     27  H4  UNL     1      31.052  41.377  -9.158  1.00  0.00     0.219 HD
ENDBRANCH  10  26
BRANCH   6  28
HETATM   28  O1  UNL     1      34.883  37.452 -11.261  1.00  0.00    -0.348 OA
ATOM     29  H1  UNL     1      35.105  38.055 -10.561  1.00  0.00     0.219 HD
ENDBRANCH   6  28
BRANCH   5  30
HETATM   30  C9  UNL     1      33.271  35.817 -13.229  1.00  0.00     0.003 C 
HETATM   31  C10 UNL     1      34.614  35.130 -13.122  1.00  0.00     0.011 C 
HETATM   32  C11 UNL     1      33.378  36.858 -14.318  1.00  0.00     0.011 C 
ENDBRANCH   5  30
BRANCH  13  33
HETATM   33  C22 UNL     1      33.619  39.810  -7.168  1.00  0.00     0.038 C 
BRANCH  33  34
HETATM   34  C23 UNL     1      34.739  40.781  -7.297  1.00  0.00    -0.020 C 
HETATM   35  C24 UNL     1      35.339  40.970  -5.902  1.00  0.00     0.009 C 
HETATM   36  C25 UNL     1      34.202  42.191  -7.646  1.00  0.00     0.009 C 
ENDBRANCH  33  34
ENDBRANCH  13  33
BRANCH   1  37
HETATM   37  C4  UNL     1      29.942  36.521  -8.326  1.00  0.00     0.062 C 
BRANCH  37  38
HETATM   38  C2  UNL     1      28.883  35.479  -8.325  1.00  0.00    -0.017 C 
HETATM   39  C1  UNL     1      27.627  36.156  -8.924  1.00  0.00     0.010 C 
HETATM   40  C3  UNL     1      28.511  34.958  -6.977  1.00  0.00     0.010 C 
ENDBRANCH  37  38
ENDBRANCH   1  37
TORSDOF 13
ENDMDL
MODEL 4
REMARK VINA RESULT: -6.452554935      6.989     11.283
REMARK  13 active torsions:
REMARK  status: ('A' for Active; 'I' for Inactive)
REMARK    1  A    between atoms: C2_2  and  C4_4 
REMARK    2  A    between atoms: C4_4  and  C5_5 
REMARK    3  A    between atoms: C8_9  and  C9_10 
REMARK    4  A    between atoms: C12_13  and  O1_14 
REMARK    5  A    between atoms: C13_18  and  C14_19 
REMARK    6  A    between atoms: C14_19  and  C15_20 
REMARK    7  A    between atoms: C15_20  and  C16_21 
REMARK    8  A    between atoms: C16_21  and  C17_22 
REMARK    9  A    between atoms: C17_22  and  C18_23 
REMARK   10  A    between atoms: C18_23  and  C19_24 
REMARK   11  A    between atoms: C20_27  and  O4_28 
REMARK   12  A    between atoms: C21_32  and  C22_33 
REMARK   13  A    between atoms: C22_33  and  C23_34 
ROOT
HETATM    1  C5  UNL     1      42.283  36.399  -3.866  1.00  0.00     0.022 C 
HETATM    2  C6  UNL     1      41.699  36.930  -2.630  1.00  0.00     0.085 C 
HETATM    3  N1  UNL     1      41.207  36.117  -1.616  1.00  0.00    -0.282 NA
HETATM    4  C7  UNL     1      42.391  35.553  -0.927  1.00  0.00     0.117 C 
HETATM    5  C8  UNL     1      40.294  35.102  -1.734  1.00  0.00     0.139 C 
HETATM    6  C12 UNL     1      38.969  35.217  -2.313  1.00  0.00     0.131 C 
HETATM    7  N2  UNL     1      37.963  36.130  -2.442  1.00  0.00    -0.361 N 
ATOM      8  H2  UNL     1      37.090  35.724  -2.106  1.00  0.00     0.162 HD
HETATM    9  C13 UNL     1      37.725  37.470  -2.890  1.00  0.00     0.157 C 
HETATM   10  C20 UNL     1      38.293  37.911  -4.145  1.00  0.00     0.135 C 
HETATM   11  N3  UNL     1      39.209  37.429  -5.063  1.00  0.00    -0.359 N 
ATOM     12  H3  UNL     1      39.972  38.069  -5.283  1.00  0.00     0.162 HD
HETATM   13  C21 UNL     1      39.259  36.145  -5.771  1.00  0.00     0.176 C 
HETATM   14  C26 UNL     1      40.668  35.674  -5.786  1.00  0.00     0.244 C 
HETATM   15  O5  UNL     1      41.103  35.376  -6.959  1.00  0.00    -0.271 OA
HETATM   16  N4  UNL     1      41.560  35.519  -4.711  1.00  0.00    -0.328 N 
ATOM     17  H4  UNL     1      41.729  34.539  -4.484  1.00  0.00     0.168 HD
ENDROOT
BRANCH   9  18
HETATM   18  C14 UNL     1      38.042  38.367  -1.720  1.00  0.00     0.033 C 
BRANCH  18  19
HETATM   19  C15 UNL     1      36.949  39.141  -1.099  1.00  0.00     0.002 C 
BRANCH  19  20
HETATM   20  C16 UNL     1      37.187  40.620  -0.970  1.00  0.00     0.001 C 
BRANCH  20  21
HETATM   21  C17 UNL     1      36.209  41.364  -1.843  1.00  0.00     0.010 C 
BRANCH  21  22
HETATM   22  C18 UNL     1      36.779  42.618  -2.439  1.00  0.00     0.113 C 
BRANCH  22  23
HETATM   23  C19 UNL     1      37.477  42.290  -3.736  1.00  0.00     0.172 C 
HETATM   24  O2  UNL     1      38.593  41.739  -3.774  1.00  0.00    -0.648 OA
HETATM   25  O3  UNL     1      36.815  42.633  -4.906  1.00  0.00    -0.648 OA
ENDBRANCH  22  23
ENDBRANCH  21  22
ENDBRANCH  20  21
ENDBRANCH  19  20
ENDBRANCH  18  19
ENDBRANCH   9  18
BRANCH  10  26
HETATM   26  O4  UNL     1      37.835  39.066  -4.529  1.00  0.00    -0.348 OA
ATOM     27  H4  UNL     1      38.082  39.283  -5.420  1.00  0.00     0.219 HD
ENDBRANCH  10  26
BRANCH   6  28
HETATM   28  O1  UNL     1      38.631  34.076  -2.894  1.00  0.00    -0.348 OA
ATOM     29  H1  UNL     1      38.067  34.248  -3.640  1.00  0.00     0.219 HD
ENDBRANCH   6  28
BRANCH   5  30
HETATM   30  C9  UNL     1      40.196  34.430  -0.331  1.00  0.00     0.003 C 
HETATM   31  C10 UNL     1      40.272  32.928  -0.487  1.00  0.00     0.011 C 
HETATM   32  C11 UNL     1      38.874  34.753   0.325  1.00  0.00     0.011 C 
ENDBRANCH   5  30
BRANCH  13  33
HETATM   33  C22 UNL     1      38.759  36.475  -7.154  1.00  0.00     0.038 C 
BRANCH  33  34
HETATM   34  C23 UNL     1      37.404  35.987  -7.525  1.00  0.00    -0.020 C 
HETATM   35  C24 UNL     1      36.452  37.182  -7.446  1.00  0.00     0.009 C 
HETATM   36  C25 UNL     1      36.855  35.023  -6.444  1.00  0.00     0.009 C 
ENDBRANCH  33  34
ENDBRANCH  13  33
BRANCH   1  37
HETATM   37  C4  UNL     1      42.999  37.533  -4.589  1.00  0.00     0.062 C 
BRANCH  37  38
HETATM   38  C2  UNL     1      44.343  37.873  -4.055  1.00  0.00    -0.017 C 
HETATM   39  C1  UNL     1      44.235  39.328  -3.539  1.00  0.00     0.010 C 
HETATM   40  C3  UNL     1      45.449  37.834  -5.057  1.00  0.00     0.010 C 
ENDBRANCH  37  38
ENDBRANCH   1  37
TORSDOF 13
ENDMDL
MODEL 5
REMARK VINA RESULT: -6.440567073      2.256      7.128
REMARK  13 active torsions:
REMARK  status: ('A' for Active; 'I' for Inactive)
REMARK    1  A    between atoms: C2_2  and  C4_4 
REMARK    2  A    between atoms: C4_4  and  C5_5 
REMARK    3  A    between atoms: C8_9  and  C9_10 
REMARK    4  A    between atoms: C12_13  and  O1_14 
REMARK    5  A    between atoms: C13_18  and  C14_19 
REMARK    6  A    between atoms: C14_19  and  C15_20 
REMARK    7  A    between atoms: C15_20  and  C16_21 
REMARK    8  A    between atoms: C16_21  and  C17_22 
REMARK    9  A    between atoms: C17_22  and  C18_23 
REMARK   10  A    between atoms: C18_23  and  C19_24 
REMARK   11  A    between atoms: C20_27  and  O4_28 
REMARK   12  A    between atoms: C21_32  and  C22_33 
REMARK   13  A    between atoms: C22_33  and  C23_34 
ROOT
HETATM    1  C5  UNL     1      31.990  41.307 -11.435  1.00  0.00     0.022 C 
HETATM    2  C6  UNL     1      32.242  39.967 -11.974  1.00  0.00     0.085 C 
HETATM    3  N1  UNL     1      31.382  38.895 -11.770  1.00  0.00    -0.282 NA
HETATM    4  C7  UNL     1      30.211  39.131 -12.647  1.00  0.00     0.117 C 
HETATM    5  C8  UNL     1      30.897  38.435 -10.574  1.00  0.00     0.139 C 
HETATM    6  C12 UNL     1      31.697  38.038  -9.431  1.00  0.00     0.131 C 
HETATM    7  N2  UNL     1      32.908  37.471  -9.153  1.00  0.00    -0.361 N 
ATOM      8  H2  UNL     1      32.775  36.670  -8.537  1.00  0.00     0.162 HD
HETATM    9  C13 UNL     1      34.303  37.629  -9.438  1.00  0.00     0.157 C 
HETATM   10  C20 UNL     1      34.898  38.946  -9.375  1.00  0.00     0.135 C 
HETATM   11  N3  UNL     1      34.452  40.249  -9.254  1.00  0.00    -0.359 N 
ATOM     12  H3  UNL     1      34.788  40.885  -9.976  1.00  0.00     0.162 HD
HETATM   13  C21 UNL     1      33.573  40.864  -8.252  1.00  0.00     0.176 C 
HETATM   14  C26 UNL     1      32.640  41.784  -8.951  1.00  0.00     0.244 C 
HETATM   15  O5  UNL     1      32.622  42.974  -8.464  1.00  0.00    -0.271 OA
HETATM   16  N4  UNL     1      31.798  41.525 -10.047  1.00  0.00    -0.328 N 
ATOM     17  H4  UNL     1      30.814  41.485  -9.780  1.00  0.00     0.168 HD
ENDROOT
BRANCH   9  18
HETATM   18  C14 UNL     1      34.551  36.901 -10.735  1.00  0.00     0.033 C 
BRANCH  18  19
HETATM   19  C15 UNL     1      34.153  35.484 -10.845  1.00  0.00     0.002 C 
BRANCH  19  20
HETATM   20  C16 UNL     1      34.928  34.519  -9.991  1.00  0.00     0.001 C 
BRANCH  20  21
HETATM   21  C17 UNL     1      34.058  34.044  -8.855  1.00  0.00     0.010 C 
BRANCH  21  22
HETATM   22  C18 UNL     1      34.539  34.499  -7.508  1.00  0.00     0.113 C 
BRANCH  22  23
HETATM   23  C19 UNL     1      33.354  34.842  -6.638  1.00  0.00     0.172 C 
HETATM   24  O2  UNL     1      33.324  34.589  -5.419  1.00  0.00    -0.648 OA
HETATM   25  O3  UNL     1      32.281  35.462  -7.261  1.00  0.00    -0.648 OA
ENDBRANCH  22  23
ENDBRANCH  21  22
ENDBRANCH  20  21
ENDBRANCH  19  20
ENDBRANCH  18  19
ENDBRANCH   9  18
BRANCH  10  26
HETATM   26  O4  UNL     1      36.195  38.918  -9.452  1.00  0.00    -0.348 OA
ATOM     27  H4  UNL     1      36.526  39.307 -10.254  1.00  0.00     0.219 HD
ENDBRANCH  10  26
BRANCH   6  28
HETATM   28  O1  UNL     1      31.046  38.304  -8.310  1.00  0.00    -0.348 OA
ATOM     29  H1  UNL     1      31.230  39.193  -8.032  1.00  0.00     0.219 HD
ENDBRANCH   6  28
BRANCH   5  30
HETATM   30  C9  UNL     1      29.874  37.309 -10.915  1.00  0.00     0.003 C 
HETATM   31  C10 UNL     1      28.735  37.347  -9.920  1.00  0.00     0.011 C 
HETATM   32  C11 UNL     1      30.523  35.949 -10.810  1.00  0.00     0.011 C 
ENDBRANCH   5  30
BRANCH  13  33
HETATM   33  C22 UNL     1      34.522  41.604  -7.345  1.00  0.00     0.038 C 
BRANCH  33  34
HETATM   34  C23 UNL     1      34.734  41.053  -5.980  1.00  0.00    -0.020 C 
HETATM   35  C24 UNL     1      35.570  42.071  -5.202  1.00  0.00     0.009 C 
HETATM   36  C25 UNL     1      35.650  39.805  -6.031  1.00  0.00     0.009 C 
ENDBRANCH  33  34
ENDBRANCH  13  33
BRANCH   1  37
HETATM   37  C4  UNL     1      32.939  42.287 -12.110  1.00  0.00     0.062 C 
BRANCH  37  38
HETATM   38  C2  UNL     1      32.402  43.659 -12.300  1.00  0.00    -0.017 C 
HETATM   39  C1  UNL     1      32.642  44.002 -13.790  1.00  0.00     0.010 C 
HETATM   40  C3  UNL     1      33.068  44.717 -11.485  1.00  0.00     0.010 C 
ENDBRANCH  37  38
ENDBRANCH   1  37
TORSDOF 13
ENDMDL
