MODEL 1
REMARK VINA RESULT: -7.845296795      0.000      0.000
REMARK  15 active torsions:
REMARK  status: ('A' for Active; 'I' for Inactive)
REMARK    1  A    between atoms: C6_6  and  N1_7 
REMARK    2  A    between atoms: N1_7  and  C7_9 
REMARK    3  A    between atoms: C7_9  and  N2_11 
REMARK    4  A    between atoms: N2_11  and  C8_13 
REMARK    5  A    between atoms: C8_13  and  C9_14 
REMARK    6  A    between atoms: C9_14  and  C10_15 
REMARK    7  A    between atoms: C10_15  and  C11_16 
REMARK    8  A    between atoms: C11_16  and  C12_17 
REMARK    9  A    between atoms: C12_17  and  C13_18 
REMARK   10  A    between atoms: C13_18  and  N3_19 
REMARK   11  A    between atoms: N3_19  and  C14_22 
REMARK   12  A    between atoms: C14_22  and  C15_23 
REMARK   13  A    between atoms: C15_23  and  N4_24 
REMARK       I    between atoms: N4_24  and  C16_26 
REMARK   14  A    between atoms: C16_26  and  O2_28 
REMARK   15  A    between atoms: O2_28  and  C17_29 
ROOT
HETATM    1  N3  UNL     1      34.833  42.358  -7.809  1.00  0.00    -0.074 N 
ATOM      2  H31 UNL     1      35.472  43.150  -7.744  1.00  0.00     0.277 HD
ATOM      3  H32 UNL     1      35.164  41.937  -8.676  1.00  0.00     0.277 HD
ENDROOT
BRANCH   1   4
HETATM    4  C13 UNL     1      33.488  42.817  -7.959  1.00  0.00     0.232 C 
BRANCH   4   5
HETATM    5  C12 UNL     1      32.798  42.225  -9.172  1.00  0.00     0.027 C 
BRANCH   5   6
HETATM    6  C11 UNL     1      33.364  42.901 -10.390  1.00  0.00     0.002 C 
BRANCH   6   7
HETATM    7  C10 UNL     1      32.851  44.311 -10.572  1.00  0.00     0.002 C 
BRANCH   7   8
HETATM    8  C9  UNL     1      33.354  44.939 -11.861  1.00  0.00     0.020 C 
BRANCH   8   9
HETATM    9  C8  UNL     1      32.233  45.822 -12.364  1.00  0.00     0.122 C 
BRANCH   9  10
HETATM   10  N2  UNL     1      31.912  45.507 -13.722  1.00  0.00    -0.367 N 
ATOM     11  H2  UNL     1      32.511  45.870 -14.463  1.00  0.00     0.161 HD
BRANCH  10  12
HETATM   12  C7  UNL     1      30.800  44.711 -14.077  1.00  0.00     0.173 C 
HETATM   13  S1  UNL     1      30.178  44.823 -15.594  1.00  0.00    -0.041 SA
BRANCH  12  14
HETATM   14  N1  UNL     1      30.175  43.804 -13.186  1.00  0.00    -0.319 N 
ATOM     15  H1  UNL     1      29.308  44.086 -12.727  1.00  0.00     0.169 HD
BRANCH  14  16
HETATM   16  C6  UNL     1      30.653  42.652 -12.935  1.00  0.00     0.107 A 
HETATM   17  C5  UNL     1      31.732  42.179 -13.660  1.00  0.00     0.048 A 
HETATM   18  C4  UNL     1      32.242  40.937 -13.384  1.00  0.00     0.006 A 
HETATM   19  C3  UNL     1      31.669  40.175 -12.385  1.00  0.00     0.025 A 
HETATM   20  C2  UNL     1      30.593  40.661 -11.670  1.00  0.00     0.007 A 
HETATM   21  C1  UNL     1      29.957  39.870 -10.591  1.00  0.00     0.068 C 
HETATM   22  N6  UNL     1      30.125  41.868 -11.963  1.00  0.00    -0.346 N 
ATOM     23  H6  UNL     1      29.331  42.224 -11.431  1.00  0.00     0.167 HD
ENDBRANCH  14  16
ENDBRANCH  12  14
ENDBRANCH  10  12
ENDBRANCH   9  10
ENDBRANCH   8   9
ENDBRANCH   7   8
ENDBRANCH   6   7
ENDBRANCH   5   6
ENDBRANCH   4   5
ENDBRANCH   1   4
BRANCH   1  24
HETATM   24  C14 UNL     1      35.037  41.456  -6.702  1.00  0.00     0.252 C 
BRANCH  24  25
HETATM   25  C15 UNL     1      35.415  42.141  -5.435  1.00  0.00     0.152 C 
BRANCH  25  26
HETATM   26  N4  UNL     1      35.970  41.284  -4.417  1.00  0.00    -0.335 N 
HETATM   27  C16 UNL     1      37.217  41.539  -3.811  1.00  0.00     0.361 C 
HETATM   28  O1  UNL     1      37.902  42.516  -4.129  1.00  0.00    -0.239 OA
ATOM     29  H4  UNL     1      35.441  40.463  -4.124  1.00  0.00     0.164 HD
BRANCH  27  30
HETATM   30  O2  UNL     1      37.780  40.743  -2.831  1.00  0.00    -0.296 OA
BRANCH  30  31
HETATM   31  C17 UNL     1      38.022  39.382  -2.929  1.00  0.00     0.164 C 
HETATM   32  C18 UNL     1      38.026  38.720  -1.544  1.00  0.00     0.039 C 
HETATM   33  C19 UNL     1      38.221  37.248  -1.625  1.00  0.00    -0.010 C 
HETATM   34  C20 UNL     1      39.670  36.881  -1.304  1.00  0.00     0.009 C 
HETATM   35  C24 UNL     1      37.732  36.599  -2.872  1.00  0.00     0.037 C 
HETATM   36  C21 UNL     1      40.499  37.134  -2.528  1.00  0.00    -0.010 C 
HETATM   37  C22 UNL     1      40.053  36.168  -3.588  1.00  0.00     0.037 C 
HETATM   38  C26 UNL     1      40.401  38.563  -2.901  1.00  0.00     0.040 C 
HETATM   39  C23 UNL     1      38.679  36.631  -4.030  1.00  0.00     0.187 C 
HETATM   40  N5  UNL     1      38.845  37.903  -4.645  1.00  0.00    -0.064 N 
HETATM   41  C25 UNL     1      39.206  38.954  -3.711  1.00  0.00     0.216 C 
ATOM     42  H52 UNL     1      39.520  37.850  -5.408  1.00  0.00     0.278 HD
ATOM     43  H51 UNL     1      38.012  38.160  -5.175  1.00  0.00     0.278 HD
ENDBRANCH  30  31
ENDBRANCH  27  30
ENDBRANCH  25  26
ENDBRANCH  24  25
ENDBRANCH   1  24
TORSDOF 15
ENDMDL
MODEL 2
REMARK VINA RESULT: -7.844793104      4.971     11.312
REMARK  15 active torsions:
REMARK  status: ('A' for Active; 'I' for Inactive)
REMARK    1  A    between atoms: C6_6  and  N1_7 
REMARK    2  A    between atoms: N1_7  and  C7_9 
REMARK    3  A    between atoms: C7_9  and  N2_11 
REMARK    4  A    between atoms: N2_11  and  C8_13 
REMARK    5  A    between atoms: C8_13  and  C9_14 
REMARK    6  A    between atoms: C9_14  and  C10_15 
REMARK    7  A    between atoms: C10_15  and  C11_16 
REMARK    8  A    between atoms: C11_16  and  C12_17 
REMARK    9  A    between atoms: C12_17  and  C13_18 
REMARK   10  A    between atoms: C13_18  and  N3_19 
REMARK   11  A    between atoms: N3_19  and  C14_22 
REMARK   12  A    between atoms: C14_22  and  C15_23 
REMARK   13  A    between atoms: C15_23  and  N4_24 
REMARK       I    between atoms: N4_24  and  C16_26 
REMARK   14  A    between atoms: C16_26  and  O2_28 
REMARK   15  A    between atoms: O2_28  and  C17_29 
ROOT
HETATM    1  N3  UNL     1      32.167  44.385 -10.439  1.00  0.00    -0.074 N 
ATOM      2  H31 UNL     1      31.960  45.007  -9.657  1.00  0.00     0.277 HD
ATOM      3  H32 UNL     1      31.320  43.818 -10.440  1.00  0.00     0.277 HD
ENDROOT
BRANCH   1   4
HETATM    4  C13 UNL     1      33.307  43.576 -10.142  1.00  0.00     0.232 C 
BRANCH   4   5
HETATM    5  C12 UNL     1      33.256  42.978  -8.750  1.00  0.00     0.027 C 
BRANCH   5   6
HETATM    6  C11 UNL     1      33.675  41.538  -8.859  1.00  0.00     0.002 C 
BRANCH   6   7
HETATM    7  C10 UNL     1      34.334  41.020  -7.601  1.00  0.00     0.002 C 
BRANCH   7   8
HETATM    8  C9  UNL     1      34.445  42.094  -6.532  1.00  0.00     0.020 C 
BRANCH   8   9
HETATM    9  C8  UNL     1      35.514  41.622  -5.571  1.00  0.00     0.122 C 
BRANCH   9  10
HETATM   10  N2  UNL     1      35.170  41.963  -4.225  1.00  0.00    -0.367 N 
ATOM     11  H2  UNL     1      34.278  42.423  -4.050  1.00  0.00     0.161 HD
BRANCH  10  12
HETATM   12  C7  UNL     1      36.018  41.687  -3.129  1.00  0.00     0.173 C 
HETATM   13  S1  UNL     1      37.527  41.100  -3.403  1.00  0.00    -0.041 SA
BRANCH  12  14
HETATM   14  N1  UNL     1      35.636  41.890  -1.779  1.00  0.00    -0.319 N 
ATOM     15  H1  UNL     1      34.723  41.554  -1.472  1.00  0.00     0.169 HD
BRANCH  14  16
HETATM   16  C6  UNL     1      36.388  42.477  -0.937  1.00  0.00     0.107 A 
HETATM   17  C5  UNL     1      36.851  41.792   0.172  1.00  0.00     0.048 A 
HETATM   18  C4  UNL     1      37.660  42.430   1.075  1.00  0.00     0.006 A 
HETATM   19  C3  UNL     1      38.002  43.752   0.864  1.00  0.00     0.025 A 
HETATM   20  C2  UNL     1      37.532  44.422  -0.248  1.00  0.00     0.007 A 
HETATM   21  C1  UNL     1      37.881  45.839  -0.504  1.00  0.00     0.068 C 
HETATM   22  N6  UNL     1      36.751  43.773  -1.102  1.00  0.00    -0.346 N 
ATOM     23  H6  UNL     1      36.407  44.272  -1.922  1.00  0.00     0.167 HD
ENDBRANCH  14  16
ENDBRANCH  12  14
ENDBRANCH  10  12
ENDBRANCH   9  10
ENDBRANCH   8   9
ENDBRANCH   7   8
ENDBRANCH   6   7
ENDBRANCH   5   6
ENDBRANCH   4   5
ENDBRANCH   1   4
BRANCH   1  24
HETATM   24  C14 UNL     1      32.271  45.136 -11.666  1.00  0.00     0.252 C 
BRANCH  24  25
HETATM   25  C15 UNL     1      31.196  44.826 -12.648  1.00  0.00     0.152 C 
BRANCH  25  26
HETATM   26  N4  UNL     1      30.478  43.599 -12.406  1.00  0.00    -0.335 N 
HETATM   27  C16 UNL     1      30.787  42.397 -13.074  1.00  0.00     0.361 C 
HETATM   28  O1  UNL     1      31.695  42.339 -13.909  1.00  0.00    -0.239 OA
ATOM     29  H4  UNL     1      29.718  43.601 -11.726  1.00  0.00     0.164 HD
BRANCH  27  30
HETATM   30  O2  UNL     1      30.125  41.203 -12.866  1.00  0.00    -0.296 OA
BRANCH  30  31
HETATM   31  C17 UNL     1      30.520  40.194 -12.002  1.00  0.00     0.164 C 
HETATM   32  C18 UNL     1      30.558  38.836 -12.718  1.00  0.00     0.039 C 
HETATM   33  C19 UNL     1      31.040  37.745 -11.830  1.00  0.00    -0.010 C 
HETATM   34  C20 UNL     1      29.863  36.924 -11.303  1.00  0.00     0.009 C 
HETATM   35  C24 UNL     1      31.975  38.158 -10.749  1.00  0.00     0.037 C 
HETATM   36  C21 UNL     1      29.239  37.677 -10.165  1.00  0.00    -0.010 C 
HETATM   37  C22 UNL     1      30.242  37.727  -9.048  1.00  0.00     0.037 C 
HETATM   38  C26 UNL     1      28.771  38.996 -10.648  1.00  0.00     0.040 C 
HETATM   39  C23 UNL     1      31.332  38.678  -9.502  1.00  0.00     0.187 C 
HETATM   40  N5  UNL     1      30.742  39.967  -9.613  1.00  0.00    -0.064 N 
HETATM   41  C25 UNL     1      29.800  40.079 -10.713  1.00  0.00     0.216 C 
ATOM     42  H52 UNL     1      30.305  40.242  -8.734  1.00  0.00     0.278 HD
ATOM     43  H51 UNL     1      31.460  40.689  -9.677  1.00  0.00     0.278 HD
ENDBRANCH  30  31
ENDBRANCH  27  30
ENDBRANCH  25  26
ENDBRANCH  24  25
ENDBRANCH   1  24
TORSDOF 15
ENDMDL
MODEL 3
REMARK VINA RESULT: -7.821109245      2.842      4.647
REMARK  15 active torsions:
REMARK  status: ('A' for Active; 'I' for Inactive)
REMARK    1  A    between atoms: C6_6  and  N1_7 
REMARK    2  A    between atoms: N1_7  and  C7_9 
REMARK    3  A    between atoms: C7_9  and  N2_11 
REMARK    4  A    between atoms: N2_11  and  C8_13 
REMARK    5  A    between atoms: C8_13  and  C9_14 
REMARK    6  A    between atoms: C9_14  and  C10_15 
REMARK    7  A    between atoms: C10_15  and  C11_16 
REMARK    8  A    between atoms: C11_16  and  C12_17 
REMARK    9  A    between atoms: C12_17  and  C13_18 
REMARK   10  A    between atoms: C13_18  and  N3_19 
REMARK   11  A    between atoms: N3_19  and  C14_22 
REMARK   12  A    between atoms: C14_22  and  C15_23 
REMARK   13  A    between atoms: C15_23  and  N4_24 
REMARK       I    between atoms: N4_24  and  C16_26 
REMARK   14  A    between atoms: C16_26  and  O2_28 
REMARK   15  A    between atoms: O2_28  and  C17_29 
ROOT
HETATM    1  N3  UNL     1      35.327  39.474  -8.707  1.00  0.00    -0.074 N 
ATOM      2  H31 UNL     1      36.090  40.016  -9.114  1.00  0.00     0.277 HD
ATOM      3  H32 UNL     1      35.816  39.048  -7.920  1.00  0.00     0.277 HD
ENDROOT
BRANCH   1   4
HETATM    4  C13 UNL     1      34.886  38.470  -9.623  1.00  0.00     0.232 C 
BRANCH   4   5
HETATM    5  C12 UNL     1      33.443  38.656 -10.048  1.00  0.00     0.027 C 
BRANCH   5   6
HETATM    6  C11 UNL     1      33.442  39.008 -11.509  1.00  0.00     0.002 C 
BRANCH   6   7
HETATM    7  C10 UNL     1      32.703  40.293 -11.805  1.00  0.00     0.002 C 
BRANCH   7   8
HETATM    8  C9  UNL     1      31.379  40.373 -11.062  1.00  0.00     0.020 C 
BRANCH   8   9
HETATM    9  C8  UNL     1      30.299  40.267 -12.116  1.00  0.00     0.122 C 
BRANCH   9  10
HETATM   10  N2  UNL     1      29.408  41.383 -12.040  1.00  0.00    -0.367 N 
ATOM     11  H2  UNL     1      28.758  41.438 -11.256  1.00  0.00     0.161 HD
BRANCH  10  12
HETATM   12  C7  UNL     1      29.394  42.414 -13.006  1.00  0.00     0.173 C 
HETATM   13  S1  UNL     1      28.986  42.060 -14.558  1.00  0.00    -0.041 SA
BRANCH  12  14
HETATM   14  N1  UNL     1      29.716  43.762 -12.712  1.00  0.00    -0.319 N 
ATOM     15  H1  UNL     1      28.960  44.443 -12.643  1.00  0.00     0.169 HD
BRANCH  14  16
HETATM   16  C6  UNL     1      30.913  44.155 -12.531  1.00  0.00     0.107 A 
HETATM   17  C5  UNL     1      31.516  44.988 -13.455  1.00  0.00     0.048 A 
HETATM   18  C4  UNL     1      32.805  45.406 -13.253  1.00  0.00     0.006 A 
HETATM   19  C3  UNL     1      33.485  44.988 -12.126  1.00  0.00     0.025 A 
HETATM   20  C2  UNL     1      32.870  44.156 -11.212  1.00  0.00     0.007 A 
HETATM   21  C1  UNL     1      33.571  43.691  -9.993  1.00  0.00     0.068 C 
HETATM   22  N6  UNL     1      31.620  43.771 -11.439  1.00  0.00    -0.346 N 
ATOM     23  H6  UNL     1      31.170  43.157 -10.760  1.00  0.00     0.167 HD
ENDBRANCH  14  16
ENDBRANCH  12  14
ENDBRANCH  10  12
ENDBRANCH   9  10
ENDBRANCH   8   9
ENDBRANCH   7   8
ENDBRANCH   6   7
ENDBRANCH   5   6
ENDBRANCH   4   5
ENDBRANCH   1   4
BRANCH   1  24
HETATM   24  C14 UNL     1      34.284  40.352  -8.234  1.00  0.00     0.252 C 
BRANCH  24  25
HETATM   25  C15 UNL     1      33.949  40.161  -6.796  1.00  0.00     0.152 C 
BRANCH  25  26
HETATM   26  N4  UNL     1      35.034  40.399  -5.877  1.00  0.00    -0.335 N 
HETATM   27  C16 UNL     1      35.488  41.696  -5.561  1.00  0.00     0.361 C 
HETATM   28  O1  UNL     1      34.973  42.700  -6.066  1.00  0.00    -0.239 OA
ATOM     29  H4  UNL     1      35.491  39.600  -5.438  1.00  0.00     0.164 HD
BRANCH  27  30
HETATM   30  O2  UNL     1      36.521  41.964  -4.684  1.00  0.00    -0.296 OA
BRANCH  30  31
HETATM   31  C17 UNL     1      36.384  42.412  -3.380  1.00  0.00     0.164 C 
HETATM   32  C18 UNL     1      37.617  43.215  -2.940  1.00  0.00     0.039 C 
HETATM   33  C19 UNL     1      37.469  43.762  -1.564  1.00  0.00    -0.010 C 
HETATM   34  C20 UNL     1      38.234  42.900  -0.560  1.00  0.00     0.009 C 
HETATM   35  C24 UNL     1      36.075  44.044  -1.128  1.00  0.00     0.037 C 
HETATM   36  C21 UNL     1      37.401  41.692  -0.250  1.00  0.00    -0.010 C 
HETATM   37  C22 UNL     1      36.166  42.162   0.464  1.00  0.00     0.037 C 
HETATM   38  C26 UNL     1      37.154  40.933  -1.496  1.00  0.00     0.040 C 
HETATM   39  C23 UNL     1      35.323  42.875  -0.575  1.00  0.00     0.187 C 
HETATM   40  N5  UNL     1      34.926  41.900  -1.531  1.00  0.00    -0.064 N 
HETATM   41  C25 UNL     1      36.022  41.412  -2.349  1.00  0.00     0.216 C 
ATOM     42  H52 UNL     1      34.442  41.125  -1.078  1.00  0.00     0.278 HD
ATOM     43  H51 UNL     1      34.168  42.253  -2.115  1.00  0.00     0.278 HD
ENDBRANCH  30  31
ENDBRANCH  27  30
ENDBRANCH  25  26
ENDBRANCH  24  25
ENDBRANCH   1  24
TORSDOF 15
ENDMDL
MODEL 4
REMARK VINA RESULT: -7.741448133      2.539      3.761
REMARK  15 active torsions:
REMARK  status: ('A' for Active; 'I' for Inactive)
REMARK    1  A    between atoms: C6_6  and  N1_7 
REMARK    2  A    between atoms: N1_7  and  C7_9 
REMARK    3  A    between atoms: C7_9  and  N2_11 
REMARK    4  A    between atoms: N2_11  and  C8_13 
REMARK    5  A    between atoms: C8_13  and  C9_14 
REMARK    6  A    between atoms: C9_14  and  C10_15 
REMARK    7  A    between atoms: C10_15  and  C11_16 
REMARK    8  A    between atoms: C11_16  and  C12_17 
REMARK    9  A    between atoms: C12_17  and  C13_18 
REMARK   10  A    between atoms: C13_18  and  N3_19 
REMARK   11  A    between atoms: N3_19  and  C14_22 
REMARK   12  A    between atoms: C14_22  and  C15_23 
REMARK   13  A    between atoms: C15_23  and  N4_24 
REMARK       I    between atoms: N4_24  and  C16_26 
REMARK   14  A    between atoms: C16_26  and  O2_28 
REMARK   15  A    between atoms: O2_28  and  C17_29 
ROOT
HETATM    1  N3  UNL     1      34.333  41.160  -8.670  1.00  0.00    -0.074 N 
ATOM      2  H31 UNL     1      34.847  41.878  -8.160  1.00  0.00     0.277 HD
ATOM      3  H32 UNL     1      34.942  41.052  -9.481  1.00  0.00     0.277 HD
ENDROOT
BRANCH   1   4
HETATM    4  C13 UNL     1      33.053  41.654  -9.070  1.00  0.00     0.232 C 
BRANCH   4   5
HETATM    5  C12 UNL     1      32.978  41.957 -10.553  1.00  0.00     0.027 C 
BRANCH   5   6
HETATM    6  C11 UNL     1      33.032  43.451 -10.715  1.00  0.00     0.002 C 
BRANCH   6   7
HETATM    7  C10 UNL     1      33.262  43.881 -12.145  1.00  0.00     0.002 C 
BRANCH   7   8
HETATM    8  C9  UNL     1      33.063  45.375 -12.332  1.00  0.00     0.020 C 
BRANCH   8   9
HETATM    9  C8  UNL     1      31.574  45.618 -12.218  1.00  0.00     0.122 C 
BRANCH   9  10
HETATM   10  N2  UNL     1      30.926  45.378 -13.471  1.00  0.00    -0.367 N 
ATOM     11  H2  UNL     1      31.237  45.899 -14.290  1.00  0.00     0.161 HD
BRANCH  10  12
HETATM   12  C7  UNL     1      29.873  44.447 -13.618  1.00  0.00     0.173 C 
HETATM   13  S1  UNL     1      28.879  44.552 -14.921  1.00  0.00    -0.041 SA
BRANCH  12  14
HETATM   14  N1  UNL     1      29.618  43.407 -12.690  1.00  0.00    -0.319 N 
ATOM     15  H1  UNL     1      29.112  43.628 -11.833  1.00  0.00     0.169 HD
BRANCH  14  16
HETATM   16  C6  UNL     1      29.997  42.208 -12.885  1.00  0.00     0.107 A 
HETATM   17  C5  UNL     1      29.310  41.161 -12.299  1.00  0.00     0.048 A 
HETATM   18  C4  UNL     1      29.724  39.873 -12.514  1.00  0.00     0.006 A 
HETATM   19  C3  UNL     1      30.824  39.638 -13.315  1.00  0.00     0.025 A 
HETATM   20  C2  UNL     1      31.500  40.694 -13.895  1.00  0.00     0.007 A 
HETATM   21  C1  UNL     1      32.682  40.476 -14.760  1.00  0.00     0.068 C 
HETATM   22  N6  UNL     1      31.071  41.929 -13.665  1.00  0.00    -0.346 N 
ATOM     23  H6  UNL     1      31.572  42.705 -14.096  1.00  0.00     0.167 HD
ENDBRANCH  14  16
ENDBRANCH  12  14
ENDBRANCH  10  12
ENDBRANCH   9  10
ENDBRANCH   8   9
ENDBRANCH   7   8
ENDBRANCH   6   7
ENDBRANCH   5   6
ENDBRANCH   4   5
ENDBRANCH   1   4
BRANCH   1  24
HETATM   24  C14 UNL     1      34.290  39.936  -7.909  1.00  0.00     0.252 C 
BRANCH  24  25
HETATM   25  C15 UNL     1      34.196  40.151  -6.438  1.00  0.00     0.152 C 
BRANCH  25  26
HETATM   26  N4  UNL     1      35.408  40.611  -5.807  1.00  0.00    -0.335 N 
HETATM   27  C16 UNL     1      35.705  41.980  -5.648  1.00  0.00     0.361 C 
HETATM   28  O1  UNL     1      34.935  42.858  -6.048  1.00  0.00    -0.239 OA
ATOM     29  H4  UNL     1      36.075  39.921  -5.463  1.00  0.00     0.164 HD
BRANCH  27  30
HETATM   30  O2  UNL     1      36.853  42.458  -5.047  1.00  0.00    -0.296 OA
BRANCH  30  31
HETATM   31  C17 UNL     1      37.087  42.530  -3.682  1.00  0.00     0.164 C 
HETATM   32  C18 UNL     1      37.793  41.265  -3.175  1.00  0.00     0.039 C 
HETATM   33  C19 UNL     1      38.113  41.343  -1.724  1.00  0.00    -0.010 C 
HETATM   34  C20 UNL     1      37.090  40.553  -0.908  1.00  0.00     0.009 C 
HETATM   35  C24 UNL     1      38.338  42.711  -1.186  1.00  0.00     0.037 C 
HETATM   36  C21 UNL     1      35.859  41.396  -0.758  1.00  0.00    -0.010 C 
HETATM   37  C22 UNL     1      36.223  42.590   0.078  1.00  0.00     0.037 C 
HETATM   38  C26 UNL     1      35.313  41.711  -2.098  1.00  0.00     0.040 C 
HETATM   39  C23 UNL     1      37.104  43.462  -0.794  1.00  0.00     0.187 C 
HETATM   40  N5  UNL     1      36.301  43.919  -1.876  1.00  0.00    -0.064 N 
HETATM   41  C25 UNL     1      35.939  42.868  -2.810  1.00  0.00     0.216 C 
ATOM     42  H52 UNL     1      35.469  44.398  -1.531  1.00  0.00     0.278 HD
ATOM     43  H51 UNL     1      36.754  44.693  -2.361  1.00  0.00     0.278 HD
ENDBRANCH  30  31
ENDBRANCH  27  30
ENDBRANCH  25  26
ENDBRANCH  24  25
ENDBRANCH   1  24
TORSDOF 15
ENDMDL
MODEL 5
REMARK VINA RESULT: -7.605971926      4.605     11.845
REMARK  15 active torsions:
REMARK  status: ('A' for Active; 'I' for Inactive)
REMARK    1  A    between atoms: C6_6  and  N1_7 
REMARK    2  A    between atoms: N1_7  and  C7_9 
REMARK    3  A    between atoms: C7_9  and  N2_11 
REMARK    4  A    between atoms: N2_11  and  C8_13 
REMARK    5  A    between atoms: C8_13  and  C9_14 
REMARK    6  A    between atoms: C9_14  and  C10_15 
REMARK    7  A    between atoms: C10_15  and  C11_16 
REMARK    8  A    between atoms: C11_16  and  C12_17 
REMARK    9  A    between atoms: C12_17  and  C13_18 
REMARK   10  A    between atoms: C13_18  and  N3_19 
REMARK   11  A    between atoms: N3_19  and  C14_22 
REMARK   12  A    between atoms: C14_22  and  C15_23 
REMARK   13  A    between atoms: C15_23  and  N4_24 
REMARK       I    between atoms: N4_24  and  C16_26 
REMARK   14  A    between atoms: C16_26  and  O2_28 
REMARK   15  A    between atoms: O2_28  and  C17_29 
ROOT
HETATM    1  N3  UNL     1      32.769  37.793  -7.186  1.00  0.00    -0.074 N 
ATOM      2  H31 UNL     1      32.793  38.613  -6.580  1.00  0.00     0.277 HD
ATOM      3  H32 UNL     1      32.720  37.056  -6.483  1.00  0.00     0.277 HD
ENDROOT
BRANCH   1   4
HETATM    4  C13 UNL     1      33.984  37.690  -7.932  1.00  0.00     0.232 C 
BRANCH   4   5
HETATM    5  C12 UNL     1      35.035  38.684  -7.480  1.00  0.00     0.027 C 
BRANCH   5   6
HETATM    6  C11 UNL     1      34.320  39.834  -6.825  1.00  0.00     0.002 C 
BRANCH   6   7
HETATM    7  C10 UNL     1      34.993  41.164  -7.076  1.00  0.00     0.002 C 
BRANCH   7   8
HETATM    8  C9  UNL     1      34.660  42.184  -5.999  1.00  0.00     0.020 C 
BRANCH   8   9
HETATM    9  C8  UNL     1      35.822  42.168  -5.031  1.00  0.00     0.122 C 
BRANCH   9  10
HETATM   10  N2  UNL     1      35.380  41.811  -3.718  1.00  0.00    -0.367 N 
ATOM     11  H2  UNL     1      34.379  41.774  -3.532  1.00  0.00     0.161 HD
BRANCH  10  12
HETATM   12  C7  UNL     1      36.277  41.507  -2.669  1.00  0.00     0.173 C 
HETATM   13  S1  UNL     1      37.762  40.902  -3.025  1.00  0.00    -0.041 SA
BRANCH  12  14
HETATM   14  N1  UNL     1      35.965  41.695  -1.299  1.00  0.00    -0.319 N 
ATOM     15  H1  UNL     1      35.137  41.238  -0.917  1.00  0.00     0.169 HD
BRANCH  14  16
HETATM   16  C6  UNL     1      36.679  42.413  -0.528  1.00  0.00     0.107 A 
HETATM   17  C5  UNL     1      37.173  41.884   0.650  1.00  0.00     0.048 A 
HETATM   18  C4  UNL     1      37.940  42.663   1.475  1.00  0.00     0.006 A 
HETATM   19  C3  UNL     1      38.210  43.969   1.117  1.00  0.00     0.025 A 
HETATM   20  C2  UNL     1      37.709  44.484  -0.063  1.00  0.00     0.007 A 
HETATM   21  C1  UNL     1      37.981  45.880  -0.476  1.00  0.00     0.068 C 
HETATM   22  N6  UNL     1      36.970  43.701  -0.838  1.00  0.00    -0.346 N 
ATOM     23  H6  UNL     1      36.604  44.085  -1.709  1.00  0.00     0.167 HD
ENDBRANCH  14  16
ENDBRANCH  12  14
ENDBRANCH  10  12
ENDBRANCH   9  10
ENDBRANCH   8   9
ENDBRANCH   7   8
ENDBRANCH   6   7
ENDBRANCH   5   6
ENDBRANCH   4   5
ENDBRANCH   1   4
BRANCH   1  24
HETATM   24  C14 UNL     1      31.572  37.799  -7.992  1.00  0.00     0.252 C 
BRANCH  24  25
HETATM   25  C15 UNL     1      31.745  38.462  -9.314  1.00  0.00     0.152 C 
BRANCH  25  26
HETATM   26  N4  UNL     1      31.661  39.902  -9.294  1.00  0.00    -0.335 N 
HETATM   27  C16 UNL     1      32.552  40.722 -10.015  1.00  0.00     0.361 C 
HETATM   28  O1  UNL     1      33.458  40.241 -10.702  1.00  0.00    -0.239 OA
ATOM     29  H4  UNL     1      30.929  40.343  -8.736  1.00  0.00     0.164 HD
BRANCH  27  30
HETATM   30  O2  UNL     1      32.501  42.102 -10.022  1.00  0.00    -0.296 OA
BRANCH  30  31
HETATM   31  C17 UNL     1      32.587  42.913 -11.143  1.00  0.00     0.164 C 
HETATM   32  C18 UNL     1      32.466  44.396 -10.764  1.00  0.00     0.039 C 
HETATM   33  C19 UNL     1      32.619  45.291 -11.942  1.00  0.00    -0.010 C 
HETATM   34  C20 UNL     1      31.252  45.772 -12.430  1.00  0.00     0.009 C 
HETATM   35  C24 UNL     1      33.467  44.767 -13.046  1.00  0.00     0.037 C 
HETATM   36  C21 UNL     1      30.637  44.677 -13.249  1.00  0.00    -0.010 C 
HETATM   37  C22 UNL     1      31.479  44.500 -14.481  1.00  0.00     0.037 C 
HETATM   38  C26 UNL     1      30.487  43.463 -12.414  1.00  0.00     0.040 C 
HETATM   39  C23 UNL     1      32.775  43.865 -14.019  1.00  0.00     0.187 C 
HETATM   40  N5  UNL     1      32.453  42.570 -13.525  1.00  0.00    -0.064 N 
HETATM   41  C25 UNL     1      31.698  42.596 -12.285  1.00  0.00     0.216 C 
ATOM     42  H52 UNL     1      31.964  42.025 -14.234  1.00  0.00     0.278 HD
ATOM     43  H51 UNL     1      33.294  42.002 -13.425  1.00  0.00     0.278 HD
ENDBRANCH  30  31
ENDBRANCH  27  30
ENDBRANCH  25  26
ENDBRANCH  24  25
ENDBRANCH   1  24
TORSDOF 15
ENDMDL
