MODEL 1
REMARK VINA RESULT: -8.384443445      0.000      0.000
REMARK  14 active torsions:
REMARK  status: ('A' for Active; 'I' for Inactive)
REMARK    1  A    between atoms: C2_2  and  C3_3 
REMARK    2  A    between atoms: C3_3  and  C4_4 
REMARK    3  A    between atoms: C4_4  and  C5_5 
REMARK    4  A    between atoms: C5_5  and  C6_6 
REMARK    5  A    between atoms: C6_6  and  N1_7 
REMARK    6  A    between atoms: N1_7  and  C7_9 
REMARK    7  A    between atoms: C7_9  and  N2_11 
REMARK    8  A    between atoms: N2_11  and  C8_13 
REMARK    9  A    between atoms: C8_13  and  C9_14 
REMARK   10  A    between atoms: C9_14  and  C10_15 
REMARK   11  A    between atoms: C10_15  and  N3_16 
REMARK   12  A    between atoms: N3_16  and  C11_19 
REMARK   13  A    between atoms: C11_19  and  C12_20 
REMARK   14  A    between atoms: C25_36  and  O2_37 
ROOT
HETATM    1  N1  UNL     1      32.298  42.661  -9.329  1.00  0.00    -0.367 N 
ATOM      2  H1  UNL     1      31.304  42.495  -9.168  1.00  0.00     0.161 HD
ENDROOT
BRANCH   1   3
HETATM    3  C6  UNL     1      32.736  43.947  -9.748  1.00  0.00     0.122 C 
BRANCH   3   4
HETATM    4  C5  UNL     1      33.410  43.923 -11.137  1.00  0.00     0.022 C 
BRANCH   4   5
HETATM    5  C4  UNL     1      32.594  44.678 -12.087  1.00  0.00     0.033 C 
BRANCH   5   6
HETATM    6  C3  UNL     1      31.872  43.995 -13.194  1.00  0.00     0.038 C 
HETATM    7  N4  UNL     1      32.705  42.813 -13.492  1.00  0.00    -0.351 N 
HETATM    8  C21 UNL     1      32.179  41.706 -14.153  1.00  0.00     0.228 C 
ATOM      9  H4  UNL     1      33.685  42.807 -13.208  1.00  0.00     0.163 HD
HETATM   10  O1  UNL     1      32.807  41.117 -15.086  1.00  0.00    -0.273 OA
HETATM   11  C22 UNL     1      30.846  41.191 -13.762  1.00  0.00     0.060 C 
HETATM   12  C23 UNL     1      29.869  41.121 -14.880  1.00  0.00     0.028 C 
HETATM   13  C24 UNL     1      31.056  39.756 -13.257  1.00  0.00     0.028 C 
HETATM   14  C25 UNL     1      30.416  42.007 -12.576  1.00  0.00     0.141 C 
HETATM   15  C26 UNL     1      30.519  43.482 -12.792  1.00  0.00     0.040 C 
HETATM   16  C27 UNL     1      29.364  43.940 -13.606  1.00  0.00     0.015 C 
BRANCH   6  17
HETATM   17  C2  UNL     1      31.887  44.747 -14.485  1.00  0.00     0.027 C 
HETATM   18  C1  UNL     1      33.154  45.199 -15.064  1.00  0.00     0.007 C 
ENDBRANCH   6  17
BRANCH  14  19
HETATM   19  O2  UNL     1      29.121  41.688 -12.243  1.00  0.00    -0.394 OA
ATOM     20  H2  UNL     1      28.547  42.412 -12.466  1.00  0.00     0.210 HD
ENDBRANCH  14  19
ENDBRANCH   5   6
ENDBRANCH   4   5
ENDBRANCH   3   4
ENDBRANCH   1   3
BRANCH   1  21
HETATM   21  C7  UNL     1      33.241  41.588  -9.129  1.00  0.00     0.167 C 
HETATM   22  S1  UNL     1      33.153  40.298 -10.128  1.00  0.00    -0.041 SA
BRANCH  21  23
HETATM   23  N2  UNL     1      34.212  41.664  -8.123  1.00  0.00    -0.367 N 
ATOM     24  H2  UNL     1      34.953  42.360  -8.211  1.00  0.00     0.161 HD
BRANCH  23  25
HETATM   25  C8  UNL     1      34.211  40.811  -6.982  1.00  0.00     0.123 C 
BRANCH  25  26
HETATM   26  C9  UNL     1      35.414  40.934  -6.084  1.00  0.00     0.047 C 
BRANCH  26  27
HETATM   27  C10 UNL     1      35.340  42.181  -5.250  1.00  0.00     0.234 C 
BRANCH  27  28
HETATM   28  N3  UNL     1      35.448  41.952  -3.847  1.00  0.00    -0.071 N 
ATOM     29  H32 UNL     1      34.626  42.275  -3.338  1.00  0.00     0.277 HD
ATOM     30  H31 UNL     1      35.383  40.962  -3.611  1.00  0.00     0.277 HD
BRANCH  28  31
HETATM   31  C11 UNL     1      36.679  42.559  -3.355  1.00  0.00     0.271 C 
BRANCH  31  32
HETATM   32  C12 UNL     1      36.894  42.297  -1.930  1.00  0.00    -0.026 A 
HETATM   33  C13 UNL     1      36.626  41.037  -1.425  1.00  0.00     0.009 A 
HETATM   34  C14 UNL     1      36.833  40.821  -0.090  1.00  0.00     0.001 A 
HETATM   35  C15 UNL     1      37.295  41.812   0.745  1.00  0.00     0.007 A 
HETATM   36  C16 UNL     1      37.569  43.074   0.264  1.00  0.00    -0.051 A 
HETATM   37  C17 UNL     1      37.354  43.280  -1.089  1.00  0.00    -0.044 A 
HETATM   38  C20 UNL     1      38.065  44.324   0.891  1.00  0.00     0.039 C 
HETATM   39  C18 UNL     1      37.704  44.701  -1.430  1.00  0.00     0.040 C 
HETATM   40  C19 UNL     1      37.754  45.424  -0.116  1.00  0.00     0.009 C 
ENDBRANCH  31  32
ENDBRANCH  28  31
ENDBRANCH  27  28
ENDBRANCH  26  27
ENDBRANCH  25  26
ENDBRANCH  23  25
ENDBRANCH  21  23
ENDBRANCH   1  21
TORSDOF 14
ENDMDL
MODEL 2
REMARK VINA RESULT: -8.182653136      3.539      5.469
REMARK  14 active torsions:
REMARK  status: ('A' for Active; 'I' for Inactive)
REMARK    1  A    between atoms: C2_2  and  C3_3 
REMARK    2  A    between atoms: C3_3  and  C4_4 
REMARK    3  A    between atoms: C4_4  and  C5_5 
REMARK    4  A    between atoms: C5_5  and  C6_6 
REMARK    5  A    between atoms: C6_6  and  N1_7 
REMARK    6  A    between atoms: N1_7  and  C7_9 
REMARK    7  A    between atoms: C7_9  and  N2_11 
REMARK    8  A    between atoms: N2_11  and  C8_13 
REMARK    9  A    between atoms: C8_13  and  C9_14 
REMARK   10  A    between atoms: C9_14  and  C10_15 
REMARK   11  A    between atoms: C10_15  and  N3_16 
REMARK   12  A    between atoms: N3_16  and  C11_19 
REMARK   13  A    between atoms: C11_19  and  C12_20 
REMARK   14  A    between atoms: C25_36  and  O2_37 
ROOT
HETATM    1  N1  UNL     1      32.187  42.132  -9.312  1.00  0.00    -0.367 N 
ATOM      2  H1  UNL     1      31.578  42.266  -8.504  1.00  0.00     0.161 HD
ENDROOT
BRANCH   1   3
HETATM    3  C6  UNL     1      31.875  41.124 -10.265  1.00  0.00     0.122 C 
BRANCH   3   4
HETATM    4  C5  UNL     1      30.801  40.137  -9.759  1.00  0.00     0.022 C 
BRANCH   4   5
HETATM    5  C4  UNL     1      31.186  38.772 -10.120  1.00  0.00     0.033 C 
BRANCH   5   6
HETATM    6  C3  UNL     1      31.812  37.860  -9.126  1.00  0.00     0.038 C 
HETATM    7  N4  UNL     1      32.225  36.687  -9.922  1.00  0.00    -0.351 N 
HETATM    8  C21 UNL     1      33.207  35.812  -9.466  1.00  0.00     0.228 C 
ATOM      9  H4  UNL     1      31.783  36.515 -10.825  1.00  0.00     0.163 HD
HETATM   10  O1  UNL     1      33.082  34.552  -9.555  1.00  0.00    -0.273 OA
HETATM   11  C22 UNL     1      34.441  36.359  -8.855  1.00  0.00     0.060 C 
HETATM   12  C23 UNL     1      34.712  35.860  -7.481  1.00  0.00     0.028 C 
HETATM   13  C24 UNL     1      35.612  35.905  -9.737  1.00  0.00     0.028 C 
HETATM   14  C25 UNL     1      34.349  37.852  -8.995  1.00  0.00     0.141 C 
HETATM   15  C26 UNL     1      33.058  38.423  -8.505  1.00  0.00     0.040 C 
HETATM   16  C27 UNL     1      33.087  38.502  -7.023  1.00  0.00     0.015 C 
BRANCH   6  17
HETATM   17  C2  UNL     1      30.847  37.274  -8.146  1.00  0.00     0.027 C 
HETATM   18  C1  UNL     1      29.537  36.795  -8.594  1.00  0.00     0.007 C 
ENDBRANCH   6  17
BRANCH  14  19
HETATM   19  O2  UNL     1      35.390  38.443  -8.319  1.00  0.00    -0.394 OA
ATOM     20  H2  UNL     1      35.372  39.382  -8.464  1.00  0.00     0.210 HD
ENDBRANCH  14  19
ENDBRANCH   5   6
ENDBRANCH   4   5
ENDBRANCH   3   4
ENDBRANCH   1   3
BRANCH   1  21
HETATM   21  C7  UNL     1      33.353  42.966  -9.472  1.00  0.00     0.167 C 
HETATM   22  S1  UNL     1      33.381  44.003 -10.734  1.00  0.00    -0.041 SA
BRANCH  21  23
HETATM   23  N2  UNL     1      34.413  42.900  -8.560  1.00  0.00    -0.367 N 
ATOM     24  H2  UNL     1      35.167  43.583  -8.638  1.00  0.00     0.161 HD
BRANCH  23  25
HETATM   25  C8  UNL     1      34.484  41.922  -7.528  1.00  0.00     0.123 C 
BRANCH  25  26
HETATM   26  C9  UNL     1      34.571  42.468  -6.126  1.00  0.00     0.047 C 
BRANCH  26  27
HETATM   27  C10 UNL     1      35.544  41.680  -5.298  1.00  0.00     0.234 C 
BRANCH  27  28
HETATM   28  N3  UNL     1      35.429  41.902  -3.895  1.00  0.00    -0.071 N 
ATOM     29  H32 UNL     1      34.599  42.442  -3.655  1.00  0.00     0.277 HD
ATOM     30  H31 UNL     1      35.198  41.048  -3.386  1.00  0.00     0.277 HD
BRANCH  28  31
HETATM   31  C11 UNL     1      36.655  42.523  -3.406  1.00  0.00     0.271 C 
BRANCH  31  32
HETATM   32  C12 UNL     1      36.874  42.267  -1.981  1.00  0.00    -0.026 A 
HETATM   33  C13 UNL     1      36.623  41.005  -1.473  1.00  0.00     0.009 A 
HETATM   34  C14 UNL     1      36.834  40.794  -0.137  1.00  0.00     0.001 A 
HETATM   35  C15 UNL     1      37.283  41.794   0.695  1.00  0.00     0.007 A 
HETATM   36  C16 UNL     1      37.539  43.058   0.212  1.00  0.00    -0.051 A 
HETATM   37  C17 UNL     1      37.321  43.258  -1.142  1.00  0.00    -0.044 A 
HETATM   38  C20 UNL     1      38.019  44.315   0.835  1.00  0.00     0.039 C 
HETATM   39  C18 UNL     1      37.651  44.683  -1.485  1.00  0.00     0.040 C 
HETATM   40  C19 UNL     1      37.692  45.409  -0.173  1.00  0.00     0.009 C 
ENDBRANCH  31  32
ENDBRANCH  28  31
ENDBRANCH  27  28
ENDBRANCH  26  27
ENDBRANCH  25  26
ENDBRANCH  23  25
ENDBRANCH  21  23
ENDBRANCH   1  21
TORSDOF 14
ENDMDL
MODEL 3
REMARK VINA RESULT: -8.179197131      5.801     12.451
REMARK  14 active torsions:
REMARK  status: ('A' for Active; 'I' for Inactive)
REMARK    1  A    between atoms: C2_2  and  C3_3 
REMARK    2  A    between atoms: C3_3  and  C4_4 
REMARK    3  A    between atoms: C4_4  and  C5_5 
REMARK    4  A    between atoms: C5_5  and  C6_6 
REMARK    5  A    between atoms: C6_6  and  N1_7 
REMARK    6  A    between atoms: N1_7  and  C7_9 
REMARK    7  A    between atoms: C7_9  and  N2_11 
REMARK    8  A    between atoms: N2_11  and  C8_13 
REMARK    9  A    between atoms: C8_13  and  C9_14 
REMARK   10  A    between atoms: C9_14  and  C10_15 
REMARK   11  A    between atoms: C10_15  and  N3_16 
REMARK   12  A    between atoms: N3_16  and  C11_19 
REMARK   13  A    between atoms: C11_19  and  C12_20 
REMARK   14  A    between atoms: C25_36  and  O2_37 
ROOT
HETATM    1  N1  UNL     1      36.908  40.518  -2.146  1.00  0.00    -0.367 N 
ATOM      2  H1  UNL     1      36.490  39.916  -1.436  1.00  0.00     0.161 HD
ENDROOT
BRANCH   1   3
HETATM    3  C6  UNL     1      38.135  40.138  -2.754  1.00  0.00     0.122 C 
BRANCH   3   4
HETATM    4  C5  UNL     1      37.961  39.006  -3.790  1.00  0.00     0.022 C 
BRANCH   4   5
HETATM    5  C4  UNL     1      39.264  38.408  -4.081  1.00  0.00     0.033 C 
BRANCH   5   6
HETATM    6  C3  UNL     1      39.577  37.010  -3.678  1.00  0.00     0.038 C 
HETATM    7  N4  UNL     1      40.726  37.149  -2.761  1.00  0.00    -0.351 N 
HETATM    8  C21 UNL     1      41.047  36.148  -1.848  1.00  0.00     0.228 C 
ATOM      9  H4  UNL     1      41.296  37.994  -2.797  1.00  0.00     0.163 HD
HETATM   10  O1  UNL     1      42.243  35.768  -1.657  1.00  0.00    -0.273 OA
HETATM   11  C22 UNL     1      39.966  35.500  -1.070  1.00  0.00     0.060 C 
HETATM   12  C23 UNL     1      39.914  34.021  -1.215  1.00  0.00     0.028 C 
HETATM   13  C24 UNL     1      40.247  35.796   0.411  1.00  0.00     0.028 C 
HETATM   14  C25 UNL     1      38.702  36.230  -1.424  1.00  0.00     0.141 C 
HETATM   15  C26 UNL     1      38.474  36.358  -2.895  1.00  0.00     0.040 C 
HETATM   16  C27 UNL     1      37.954  35.071  -3.425  1.00  0.00     0.015 C 
BRANCH   6  17
HETATM   17  C2  UNL     1      40.131  36.169  -4.782  1.00  0.00     0.027 C 
HETATM   18  C1  UNL     1      40.750  36.796  -5.952  1.00  0.00     0.007 C 
ENDBRANCH   6  17
BRANCH  14  19
HETATM   19  O2  UNL     1      37.626  35.593  -0.853  1.00  0.00    -0.394 OA
ATOM     20  H2  UNL     1      36.833  35.828  -1.320  1.00  0.00     0.210 HD
ENDBRANCH  14  19
ENDBRANCH   5   6
ENDBRANCH   4   5
ENDBRANCH   3   4
ENDBRANCH   1   3
BRANCH   1  21
HETATM   21  C7  UNL     1      36.247  41.745  -2.519  1.00  0.00     0.167 C 
HETATM   22  S1  UNL     1      36.530  43.072  -1.609  1.00  0.00    -0.041 SA
BRANCH  21  23
HETATM   23  N2  UNL     1      35.409  41.796  -3.640  1.00  0.00    -0.367 N 
ATOM     24  H2  UNL     1      34.417  41.590  -3.517  1.00  0.00     0.161 HD
BRANCH  23  25
HETATM   25  C8  UNL     1      35.880  42.125  -4.943  1.00  0.00     0.123 C 
BRANCH  25  26
HETATM   26  C9  UNL     1      35.259  41.342  -6.070  1.00  0.00     0.047 C 
BRANCH  26  27
HETATM   27  C10 UNL     1      34.263  42.177  -6.823  1.00  0.00     0.234 C 
BRANCH  27  28
HETATM   28  N3  UNL     1      34.639  42.462  -8.167  1.00  0.00    -0.071 N 
ATOM     29  H32 UNL     1      35.499  43.007  -8.222  1.00  0.00     0.277 HD
ATOM     30  H31 UNL     1      34.963  41.632  -8.663  1.00  0.00     0.277 HD
BRANCH  28  31
HETATM   31  C11 UNL     1      33.527  43.115  -8.848  1.00  0.00     0.271 C 
BRANCH  31  32
HETATM   32  C12 UNL     1      33.205  42.472 -10.125  1.00  0.00    -0.026 A 
HETATM   33  C13 UNL     1      33.073  41.096 -10.175  1.00  0.00     0.009 A 
HETATM   34  C14 UNL     1      32.776  40.521 -11.381  1.00  0.00     0.001 A 
HETATM   35  C15 UNL     1      32.608  41.270 -12.523  1.00  0.00     0.007 A 
HETATM   36  C16 UNL     1      32.735  42.642 -12.496  1.00  0.00    -0.051 A 
HETATM   37  C17 UNL     1      33.037  43.211 -11.269  1.00  0.00    -0.044 A 
HETATM   38  C20 UNL     1      32.618  43.702 -13.527  1.00  0.00     0.039 C 
HETATM   39  C18 UNL     1      33.136  44.701 -11.432  1.00  0.00     0.040 C 
HETATM   40  C19 UNL     1      33.269  44.932 -12.909  1.00  0.00     0.009 C 
ENDBRANCH  31  32
ENDBRANCH  28  31
ENDBRANCH  27  28
ENDBRANCH  26  27
ENDBRANCH  25  26
ENDBRANCH  23  25
ENDBRANCH  21  23
ENDBRANCH   1  21
TORSDOF 14
ENDMDL
MODEL 4
REMARK VINA RESULT: -8.154777516      5.031     11.678
REMARK  14 active torsions:
REMARK  status: ('A' for Active; 'I' for Inactive)
REMARK    1  A    between atoms: C2_2  and  C3_3 
REMARK    2  A    between atoms: C3_3  and  C4_4 
REMARK    3  A    between atoms: C4_4  and  C5_5 
REMARK    4  A    between atoms: C5_5  and  C6_6 
REMARK    5  A    between atoms: C6_6  and  N1_7 
REMARK    6  A    between atoms: N1_7  and  C7_9 
REMARK    7  A    between atoms: C7_9  and  N2_11 
REMARK    8  A    between atoms: N2_11  and  C8_13 
REMARK    9  A    between atoms: C8_13  and  C9_14 
REMARK   10  A    between atoms: C9_14  and  C10_15 
REMARK   11  A    between atoms: C10_15  and  N3_16 
REMARK   12  A    between atoms: N3_16  and  C11_19 
REMARK   13  A    between atoms: C11_19  and  C12_20 
REMARK   14  A    between atoms: C25_36  and  O2_37 
ROOT
HETATM    1  N1  UNL     1      36.229  40.828  -1.674  1.00  0.00    -0.367 N 
ATOM      2  H1  UNL     1      35.432  40.449  -1.163  1.00  0.00     0.161 HD
ENDROOT
BRANCH   1   3
HETATM    3  C6  UNL     1      37.477  40.149  -1.632  1.00  0.00     0.122 C 
BRANCH   3   4
HETATM    4  C5  UNL     1      37.955  39.693  -3.027  1.00  0.00     0.022 C 
BRANCH   4   5
HETATM    5  C4  UNL     1      39.306  39.140  -2.922  1.00  0.00     0.033 C 
BRANCH   5   6
HETATM    6  C3  UNL     1      39.585  37.721  -3.267  1.00  0.00     0.038 C 
HETATM    7  N4  UNL     1      38.246  37.113  -3.407  1.00  0.00    -0.351 N 
HETATM    8  C21 UNL     1      38.058  35.936  -4.125  1.00  0.00     0.228 C 
ATOM      9  H4  UNL     1      37.444  37.565  -2.969  1.00  0.00     0.163 HD
HETATM   10  O1  UNL     1      37.322  34.995  -3.697  1.00  0.00    -0.273 OA
HETATM   11  C22 UNL     1      38.733  35.767  -5.433  1.00  0.00     0.060 C 
HETATM   12  C23 UNL     1      39.589  34.555  -5.524  1.00  0.00     0.028 C 
HETATM   13  C24 UNL     1      37.627  35.615  -6.487  1.00  0.00     0.028 C 
HETATM   14  C25 UNL     1      39.424  37.070  -5.718  1.00  0.00     0.141 C 
HETATM   15  C26 UNL     1      40.276  37.557  -4.591  1.00  0.00     0.040 C 
HETATM   16  C27 UNL     1      41.558  36.807  -4.584  1.00  0.00     0.015 C 
BRANCH   6  17
HETATM   17  C2  UNL     1      40.194  36.932  -2.153  1.00  0.00     0.027 C 
HETATM   18  C1  UNL     1      39.514  36.830  -0.860  1.00  0.00     0.007 C 
ENDBRANCH   6  17
BRANCH  14  19
HETATM   19  O2  UNL     1      40.197  36.945  -6.847  1.00  0.00    -0.394 OA
ATOM     20  H2  UNL     1      41.110  37.087  -6.625  1.00  0.00     0.210 HD
ENDBRANCH  14  19
ENDBRANCH   5   6
ENDBRANCH   4   5
ENDBRANCH   3   4
ENDBRANCH   1   3
BRANCH   1  21
HETATM   21  C7  UNL     1      36.075  42.046  -2.432  1.00  0.00     0.167 C 
HETATM   22  S1  UNL     1      36.831  43.386  -1.883  1.00  0.00    -0.041 SA
BRANCH  21  23
HETATM   23  N2  UNL     1      35.321  42.068  -3.611  1.00  0.00    -0.367 N 
ATOM     24  H2  UNL     1      34.303  42.063  -3.540  1.00  0.00     0.161 HD
BRANCH  23  25
HETATM   25  C8  UNL     1      35.913  42.098  -4.906  1.00  0.00     0.123 C 
BRANCH  25  26
HETATM   26  C9  UNL     1      34.946  42.011  -6.059  1.00  0.00     0.047 C 
BRANCH  26  27
HETATM   27  C10 UNL     1      34.962  40.642  -6.676  1.00  0.00     0.234 C 
BRANCH  27  28
HETATM   28  N3  UNL     1      34.965  40.644  -8.101  1.00  0.00    -0.071 N 
ATOM     29  H32 UNL     1      35.537  41.395  -8.486  1.00  0.00     0.277 HD
ATOM     30  H31 UNL     1      35.482  39.855  -8.488  1.00  0.00     0.277 HD
BRANCH  28  31
HETATM   31  C11 UNL     1      33.589  40.694  -8.583  1.00  0.00     0.271 C 
BRANCH  31  32
HETATM   32  C12 UNL     1      33.408  41.695  -9.636  1.00  0.00    -0.026 A 
HETATM   33  C13 UNL     1      33.601  43.033  -9.339  1.00  0.00     0.009 A 
HETATM   34  C14 UNL     1      33.422  43.947 -10.342  1.00  0.00     0.001 A 
HETATM   35  C15 UNL     1      33.063  43.570 -11.616  1.00  0.00     0.007 A 
HETATM   36  C16 UNL     1      32.866  42.244 -11.934  1.00  0.00    -0.051 A 
HETATM   37  C17 UNL     1      33.049  41.329 -10.909  1.00  0.00    -0.044 A 
HETATM   38  C20 UNL     1      32.485  41.535 -13.180  1.00  0.00     0.039 C 
HETATM   39  C18 UNL     1      32.794  39.946 -11.438  1.00  0.00     0.040 C 
HETATM   40  C19 UNL     1      32.059  40.144 -12.731  1.00  0.00     0.009 C 
ENDBRANCH  31  32
ENDBRANCH  28  31
ENDBRANCH  27  28
ENDBRANCH  26  27
ENDBRANCH  25  26
ENDBRANCH  23  25
ENDBRANCH  21  23
ENDBRANCH   1  21
TORSDOF 14
ENDMDL
MODEL 5
REMARK VINA RESULT: -8.106521636      5.378     11.932
REMARK  14 active torsions:
REMARK  status: ('A' for Active; 'I' for Inactive)
REMARK    1  A    between atoms: C2_2  and  C3_3 
REMARK    2  A    between atoms: C3_3  and  C4_4 
REMARK    3  A    between atoms: C4_4  and  C5_5 
REMARK    4  A    between atoms: C5_5  and  C6_6 
REMARK    5  A    between atoms: C6_6  and  N1_7 
REMARK    6  A    between atoms: N1_7  and  C7_9 
REMARK    7  A    between atoms: C7_9  and  N2_11 
REMARK    8  A    between atoms: N2_11  and  C8_13 
REMARK    9  A    between atoms: C8_13  and  C9_14 
REMARK   10  A    between atoms: C9_14  and  C10_15 
REMARK   11  A    between atoms: C10_15  and  N3_16 
REMARK   12  A    between atoms: N3_16  and  C11_19 
REMARK   13  A    between atoms: C11_19  and  C12_20 
REMARK   14  A    between atoms: C25_36  and  O2_37 
ROOT
HETATM    1  N1  UNL     1      37.631  41.851  -2.925  1.00  0.00    -0.367 N 
ATOM      2  H1  UNL     1      38.145  42.674  -3.240  1.00  0.00     0.161 HD
ENDROOT
BRANCH   1   3
HETATM    3  C6  UNL     1      38.331  40.637  -2.681  1.00  0.00     0.122 C 
BRANCH   3   4
HETATM    4  C5  UNL     1      37.963  39.526  -3.688  1.00  0.00     0.022 C 
BRANCH   4   5
HETATM    5  C4  UNL     1      38.024  38.225  -3.020  1.00  0.00     0.033 C 
BRANCH   5   6
HETATM    6  C3  UNL     1      39.148  37.283  -3.269  1.00  0.00     0.038 C 
HETATM    7  N4  UNL     1      38.492  35.967  -3.401  1.00  0.00    -0.351 N 
HETATM    8  C21 UNL     1      39.121  34.907  -4.048  1.00  0.00     0.228 C 
ATOM      9  H4  UNL     1      37.560  35.831  -3.010  1.00  0.00     0.163 HD
HETATM   10  O1  UNL     1      39.111  33.728  -3.578  1.00  0.00    -0.273 OA
HETATM   11  C22 UNL     1      39.827  35.153  -5.327  1.00  0.00     0.060 C 
HETATM   12  C23 UNL     1      41.256  34.743  -5.322  1.00  0.00     0.028 C 
HETATM   13  C24 UNL     1      39.120  34.305  -6.394  1.00  0.00     0.028 C 
HETATM   14  C25 UNL     1      39.568  36.591  -5.677  1.00  0.00     0.141 C 
HETATM   15  C26 UNL     1      39.863  37.543  -4.564  1.00  0.00     0.040 C 
HETATM   16  C27 UNL     1      41.330  37.762  -4.482  1.00  0.00     0.015 C 
BRANCH   6  17
HETATM   17  C2  UNL     1      40.051  37.090  -2.094  1.00  0.00     0.027 C 
HETATM   18  C1  UNL     1      39.500  36.717  -0.790  1.00  0.00     0.007 C 
ENDBRANCH   6  17
BRANCH  14  19
HETATM   19  O2  UNL     1      40.313  36.939  -6.779  1.00  0.00    -0.394 OA
ATOM     20  H2  UNL     1      39.851  36.683  -7.569  1.00  0.00     0.210 HD
ENDBRANCH  14  19
ENDBRANCH   5   6
ENDBRANCH   4   5
ENDBRANCH   3   4
ENDBRANCH   1   3
BRANCH   1  21
HETATM   21  C7  UNL     1      36.204  41.932  -2.732  1.00  0.00     0.167 C 
HETATM   22  S1  UNL     1      35.646  42.055  -1.202  1.00  0.00    -0.041 SA
BRANCH  21  23
HETATM   23  N2  UNL     1      35.330  41.928  -3.827  1.00  0.00    -0.367 N 
ATOM     24  H2  UNL     1      34.336  41.771  -3.658  1.00  0.00     0.161 HD
BRANCH  23  25
HETATM   25  C8  UNL     1      35.769  42.132  -5.166  1.00  0.00     0.123 C 
BRANCH  25  26
HETATM   26  C9  UNL     1      35.001  41.377  -6.219  1.00  0.00     0.047 C 
BRANCH  26  27
HETATM   27  C10 UNL     1      34.133  42.302  -7.022  1.00  0.00     0.234 C 
BRANCH  27  28
HETATM   28  N3  UNL     1      34.591  42.524  -8.353  1.00  0.00    -0.071 N 
ATOM     29  H32 UNL     1      35.497  42.992  -8.378  1.00  0.00     0.277 HD
ATOM     30  H31 UNL     1      34.864  41.658  -8.818  1.00  0.00     0.277 HD
BRANCH  28  31
HETATM   31  C11 UNL     1      33.571  43.255  -9.097  1.00  0.00     0.271 C 
BRANCH  31  32
HETATM   32  C12 UNL     1      33.206  42.579 -10.344  1.00  0.00    -0.026 A 
HETATM   33  C13 UNL     1      33.047  41.205 -10.348  1.00  0.00     0.009 A 
HETATM   34  C14 UNL     1      32.709  40.599 -11.528  1.00  0.00     0.001 A 
HETATM   35  C15 UNL     1      32.526  41.316 -12.688  1.00  0.00     0.007 A 
HETATM   36  C16 UNL     1      32.679  42.685 -12.707  1.00  0.00    -0.051 A 
HETATM   37  C17 UNL     1      33.022  43.285 -11.506  1.00  0.00    -0.044 A 
HETATM   38  C20 UNL     1      32.554  43.715 -13.767  1.00  0.00     0.039 C 
HETATM   39  C18 UNL     1      33.144  44.768 -11.718  1.00  0.00     0.040 C 
HETATM   40  C19 UNL     1      33.243  44.951 -13.204  1.00  0.00     0.009 C 
ENDBRANCH  31  32
ENDBRANCH  28  31
ENDBRANCH  27  28
ENDBRANCH  26  27
ENDBRANCH  25  26
ENDBRANCH  23  25
ENDBRANCH  21  23
ENDBRANCH   1  21
TORSDOF 14
ENDMDL
