MODEL 1
REMARK VINA RESULT: -8.444155287      0.000      0.000
REMARK  13 active torsions:
REMARK  status: ('A' for Active; 'I' for Inactive)
REMARK    1  A    between atoms: C1_2  and  C2_3 
REMARK       I    between atoms: C1_2  and  N1_23 
REMARK    2  A    between atoms: C2_3  and  C3_4 
REMARK    3  A    between atoms: C3_4  and  C4_5 
REMARK    4  A    between atoms: C4_5  and  C5_6 
REMARK    5  A    between atoms: C6_7  and  C7_8 
REMARK    6  A    between atoms: C7_8  and  C8_9 
REMARK    7  A    between atoms: C13_14  and  C14_15 
REMARK    8  A    between atoms: C14_15  and  C15_16 
REMARK    9  A    between atoms: C15_16  and  C16_17 
REMARK   10  A    between atoms: C16_17  and  O2_18 
REMARK   11  A    between atoms: C17_20  and  O3_21 
REMARK   12  A    between atoms: N1_23  and  C18_25 
REMARK   13  A    between atoms: C18_25  and  C19_26 
ROOT
HETATM    1  C5  UNL     1      35.336  39.441  -8.365  1.00  0.00    -0.031 C 
HETATM    2  C6  UNL     1      34.783  39.110  -9.481  1.00  0.00    -0.030 C 
ENDROOT
BRANCH   1   3
HETATM    3  C4  UNL     1      34.632  40.046  -7.224  1.00  0.00     0.027 C 
BRANCH   3   4
HETATM    4  C3  UNL     1      35.058  41.482  -7.050  1.00  0.00     0.013 C 
BRANCH   4   5
HETATM    5  C2  UNL     1      34.626  42.130  -5.802  1.00  0.00     0.103 C 
BRANCH   5   6
HETATM    6  C1  UNL     1      35.761  42.221  -4.811  1.00  0.00     0.221 C 
HETATM    7  O1  UNL     1      36.860  42.554  -5.277  1.00  0.00    -0.273 OA
HETATM    8  N1  UNL     1      35.454  41.920  -3.489  1.00  0.00    -0.339 N 
ATOM      9  H1  UNL     1      34.472  41.690  -3.340  1.00  0.00     0.167 HD
BRANCH   8  10
HETATM   10  C18 UNL     1      36.222  41.871  -2.326  1.00  0.00     0.096 C 
BRANCH  10  11
HETATM   11  C19 UNL     1      35.984  42.873  -1.271  1.00  0.00     0.224 C 
HETATM   12  C20 UNL     1      36.246  44.291  -1.462  1.00  0.00     0.040 C 
HETATM   13  C21 UNL     1      37.530  44.576  -0.719  1.00  0.00     0.030 C 
HETATM   14  C22 UNL     1      37.893  43.300  -0.025  1.00  0.00     0.233 C 
HETATM   15  N2  UNL     1      36.701  42.471  -0.043  1.00  0.00    -0.066 N 
ATOM     16  H22 UNL     1      36.139  42.536   0.806  1.00  0.00     0.278 HD
ATOM     17  H21 UNL     1      36.889  41.471   0.020  1.00  0.00     0.278 HD
ENDBRANCH  10  11
ENDBRANCH   8  10
ENDBRANCH   5   6
ENDBRANCH   4   5
ENDBRANCH   3   4
ENDBRANCH   1   3
BRANCH   2  18
HETATM   18  C7  UNL     1      33.353  39.249  -9.883  1.00  0.00     0.032 C 
BRANCH  18  19
HETATM   19  C8  UNL     1      33.265  40.419 -10.789  1.00  0.00    -0.000 C 
HETATM   20  C9  UNL     1      31.961  40.542 -11.555  1.00  0.00     0.019 C 
HETATM   21  C10 UNL     1      30.985  40.714 -10.417  1.00  0.00     0.008 C 
HETATM   22  C17 UNL     1      32.138  41.932 -12.171  1.00  0.00     0.127 C 
HETATM   23  C11 UNL     1      31.772  41.604  -9.441  1.00  0.00     0.006 C 
HETATM   24  C12 UNL     1      33.111  41.769 -10.052  1.00  0.00    -0.003 C 
HETATM   25  C13 UNL     1      33.115  42.628 -11.323  1.00  0.00     0.019 C 
BRANCH  25  26
HETATM   26  C14 UNL     1      33.160  44.055 -11.156  1.00  0.00     0.009 C 
BRANCH  26  27
HETATM   27  C15 UNL     1      33.440  45.026 -12.205  1.00  0.00     0.027 C 
BRANCH  27  28
HETATM   28  C16 UNL     1      32.498  46.203 -12.300  1.00  0.00     0.164 C 
BRANCH  28  29
HETATM   29  O2  UNL     1      33.144  47.422 -12.424  1.00  0.00    -0.401 OA
ATOM     30  H2  UNL     1      33.142  47.936 -11.625  1.00  0.00     0.209 HD
ENDBRANCH  28  29
ENDBRANCH  27  28
ENDBRANCH  26  27
ENDBRANCH  25  26
BRANCH  22  31
HETATM   31  O3  UNL     1      32.671  41.661 -13.460  1.00  0.00    -0.395 OA
ATOM     32  H3  UNL     1      33.603  41.565 -13.300  1.00  0.00     0.210 HD
ENDBRANCH  22  31
ENDBRANCH  18  19
ENDBRANCH   2  18
TORSDOF 13
ENDMDL
MODEL 2
REMARK VINA RESULT: -7.930426168      1.255      1.357
REMARK  13 active torsions:
REMARK  status: ('A' for Active; 'I' for Inactive)
REMARK    1  A    between atoms: C1_2  and  C2_3 
REMARK       I    between atoms: C1_2  and  N1_23 
REMARK    2  A    between atoms: C2_3  and  C3_4 
REMARK    3  A    between atoms: C3_4  and  C4_5 
REMARK    4  A    between atoms: C4_5  and  C5_6 
REMARK    5  A    between atoms: C6_7  and  C7_8 
REMARK    6  A    between atoms: C7_8  and  C8_9 
REMARK    7  A    between atoms: C13_14  and  C14_15 
REMARK    8  A    between atoms: C14_15  and  C15_16 
REMARK    9  A    between atoms: C15_16  and  C16_17 
REMARK   10  A    between atoms: C16_17  and  O2_18 
REMARK   11  A    between atoms: C17_20  and  O3_21 
REMARK   12  A    between atoms: N1_23  and  C18_25 
REMARK   13  A    between atoms: C18_25  and  C19_26 
ROOT
HETATM    1  C5  UNL     1      35.351  39.223  -8.134  1.00  0.00    -0.031 C 
HETATM    2  C6  UNL     1      34.855  38.606  -9.151  1.00  0.00    -0.030 C 
ENDROOT
BRANCH   1   3
HETATM    3  C4  UNL     1      34.567  39.962  -7.133  1.00  0.00     0.027 C 
BRANCH   3   4
HETATM    4  C3  UNL     1      35.027  41.397  -7.067  1.00  0.00     0.013 C 
BRANCH   4   5
HETATM    5  C2  UNL     1      34.614  42.145  -5.868  1.00  0.00     0.103 C 
BRANCH   5   6
HETATM    6  C1  UNL     1      35.741  42.240  -4.868  1.00  0.00     0.221 C 
HETATM    7  O1  UNL     1      36.838  42.595  -5.322  1.00  0.00    -0.273 OA
HETATM    8  N1  UNL     1      35.430  41.919  -3.552  1.00  0.00    -0.339 N 
ATOM      9  H1  UNL     1      34.450  41.672  -3.413  1.00  0.00     0.167 HD
BRANCH   8  10
HETATM   10  C18 UNL     1      36.190  41.867  -2.384  1.00  0.00     0.096 C 
BRANCH  10  11
HETATM   11  C19 UNL     1      35.949  42.869  -1.331  1.00  0.00     0.224 C 
HETATM   12  C20 UNL     1      36.223  44.286  -1.518  1.00  0.00     0.040 C 
HETATM   13  C21 UNL     1      37.502  44.562  -0.764  1.00  0.00     0.030 C 
HETATM   14  C22 UNL     1      37.850  43.283  -0.068  1.00  0.00     0.233 C 
HETATM   15  N2  UNL     1      36.652  42.463  -0.097  1.00  0.00    -0.066 N 
ATOM     16  H22 UNL     1      36.083  42.530   0.747  1.00  0.00     0.278 HD
ATOM     17  H21 UNL     1      36.833  41.461  -0.033  1.00  0.00     0.278 HD
ENDBRANCH  10  11
ENDBRANCH   8  10
ENDBRANCH   5   6
ENDBRANCH   4   5
ENDBRANCH   3   4
ENDBRANCH   1   3
BRANCH   2  18
HETATM   18  C7  UNL     1      33.424  38.489  -9.554  1.00  0.00     0.032 C 
BRANCH  18  19
HETATM   19  C8  UNL     1      33.228  39.365 -10.733  1.00  0.00    -0.000 C 
HETATM   20  C9  UNL     1      31.897  39.199 -11.444  1.00  0.00     0.019 C 
HETATM   21  C10 UNL     1      30.945  39.614 -10.349  1.00  0.00     0.008 C 
HETATM   22  C17 UNL     1      31.959  40.381 -12.415  1.00  0.00     0.127 C 
HETATM   23  C11 UNL     1      31.695  40.778  -9.682  1.00  0.00     0.006 C 
HETATM   24  C12 UNL     1      33.002  40.852 -10.376  1.00  0.00    -0.003 C 
HETATM   25  C13 UNL     1      32.910  41.336 -11.830  1.00  0.00     0.019 C 
BRANCH  25  26
HETATM   26  C14 UNL     1      32.860  42.755 -12.051  1.00  0.00     0.009 C 
BRANCH  26  27
HETATM   27  C15 UNL     1      33.345  43.777 -11.133  1.00  0.00     0.027 C 
BRANCH  27  28
HETATM   28  C16 UNL     1      32.294  44.565 -10.389  1.00  0.00     0.164 C 
BRANCH  28  29
HETATM   29  O2  UNL     1      32.106  44.144  -9.083  1.00  0.00    -0.401 OA
ATOM     30  H2  UNL     1      31.300  44.464  -8.693  1.00  0.00     0.209 HD
ENDBRANCH  28  29
ENDBRANCH  27  28
ENDBRANCH  26  27
ENDBRANCH  25  26
BRANCH  22  31
HETATM   31  O3  UNL     1      32.472  39.805 -13.609  1.00  0.00    -0.395 OA
ATOM     32  H3  UNL     1      32.866  38.993 -13.312  1.00  0.00     0.210 HD
ENDBRANCH  22  31
ENDBRANCH  18  19
ENDBRANCH   2  18
TORSDOF 13
ENDMDL
MODEL 3
REMARK VINA RESULT: -7.785569493      2.237      4.169
REMARK  13 active torsions:
REMARK  status: ('A' for Active; 'I' for Inactive)
REMARK    1  A    between atoms: C1_2  and  C2_3 
REMARK       I    between atoms: C1_2  and  N1_23 
REMARK    2  A    between atoms: C2_3  and  C3_4 
REMARK    3  A    between atoms: C3_4  and  C4_5 
REMARK    4  A    between atoms: C4_5  and  C5_6 
REMARK    5  A    between atoms: C6_7  and  C7_8 
REMARK    6  A    between atoms: C7_8  and  C8_9 
REMARK    7  A    between atoms: C13_14  and  C14_15 
REMARK    8  A    between atoms: C14_15  and  C15_16 
REMARK    9  A    between atoms: C15_16  and  C16_17 
REMARK   10  A    between atoms: C16_17  and  O2_18 
REMARK   11  A    between atoms: C17_20  and  O3_21 
REMARK   12  A    between atoms: N1_23  and  C18_25 
REMARK   13  A    between atoms: C18_25  and  C19_26 
ROOT
HETATM    1  C5  UNL     1      33.884  42.651  -8.195  1.00  0.00    -0.031 C 
HETATM    2  C6  UNL     1      33.394  43.166  -9.271  1.00  0.00    -0.030 C 
ENDROOT
BRANCH   1   3
HETATM    3  C4  UNL     1      34.509  41.322  -8.107  1.00  0.00     0.027 C 
BRANCH   3   4
HETATM    4  C3  UNL     1      34.986  41.063  -6.700  1.00  0.00     0.013 C 
BRANCH   4   5
HETATM    5  C2  UNL     1      34.708  42.131  -5.725  1.00  0.00     0.103 C 
BRANCH   5   6
HETATM    6  C1  UNL     1      35.815  42.241  -4.705  1.00  0.00     0.221 C 
HETATM    7  O1  UNL     1      36.912  42.623  -5.137  1.00  0.00    -0.273 OA
HETATM    8  N1  UNL     1      35.487  41.902  -3.397  1.00  0.00    -0.339 N 
ATOM      9  H1  UNL     1      34.510  41.634  -3.278  1.00  0.00     0.167 HD
BRANCH   8  10
HETATM   10  C18 UNL     1      36.228  41.856  -2.217  1.00  0.00     0.096 C 
BRANCH  10  11
HETATM   11  C19 UNL     1      36.013  42.900  -1.199  1.00  0.00     0.224 C 
HETATM   12  C20 UNL     1      36.282  44.308  -1.450  1.00  0.00     0.040 C 
HETATM   13  C21 UNL     1      37.580  44.612  -0.739  1.00  0.00     0.030 C 
HETATM   14  C22 UNL     1      37.945  43.362  -0.001  1.00  0.00     0.233 C 
HETATM   15  N2  UNL     1      36.747  42.543   0.033  1.00  0.00    -0.066 N 
ATOM     16  H22 UNL     1      36.199  42.645   0.887  1.00  0.00     0.278 HD
ATOM     17  H21 UNL     1      36.929  41.544   0.133  1.00  0.00     0.278 HD
ENDBRANCH  10  11
ENDBRANCH   8  10
ENDBRANCH   5   6
ENDBRANCH   4   5
ENDBRANCH   3   4
ENDBRANCH   1   3
BRANCH   2  18
HETATM   18  C7  UNL     1      33.338  42.573 -10.638  1.00  0.00     0.032 C 
BRANCH  18  19
HETATM   19  C8  UNL     1      32.029  41.890 -10.766  1.00  0.00    -0.000 C 
HETATM   20  C9  UNL     1      31.612  41.562 -12.188  1.00  0.00     0.019 C 
HETATM   21  C10 UNL     1      32.713  40.612 -12.588  1.00  0.00     0.008 C 
HETATM   22  C17 UNL     1      30.384  40.690 -11.915  1.00  0.00     0.127 C 
HETATM   23  C11 UNL     1      32.940  39.808 -11.297  1.00  0.00     0.006 C 
HETATM   24  C12 UNL     1      32.042  40.420 -10.290  1.00  0.00    -0.003 C 
HETATM   25  C13 UNL     1      30.551  40.171 -10.551  1.00  0.00     0.019 C 
BRANCH  25  26
HETATM   26  C14 UNL     1      29.999  38.926 -10.092  1.00  0.00     0.009 C 
BRANCH  26  27
HETATM   27  C15 UNL     1      30.570  38.071  -9.061  1.00  0.00     0.027 C 
BRANCH  27  28
HETATM   28  C16 UNL     1      29.698  36.942  -8.566  1.00  0.00     0.164 C 
BRANCH  28  29
HETATM   29  O2  UNL     1      30.195  36.312  -7.436  1.00  0.00    -0.401 OA
ATOM     30  H2  UNL     1      30.245  35.366  -7.519  1.00  0.00     0.209 HD
ENDBRANCH  28  29
ENDBRANCH  27  28
ENDBRANCH  26  27
ENDBRANCH  25  26
BRANCH  22  31
HETATM   31  O3  UNL     1      29.300  41.606 -11.992  1.00  0.00    -0.395 OA
ATOM     32  H3  UNL     1      29.575  42.221 -12.661  1.00  0.00     0.210 HD
ENDBRANCH  22  31
ENDBRANCH  18  19
ENDBRANCH   2  18
TORSDOF 13
ENDMDL
MODEL 4
REMARK VINA RESULT: -7.702751921      1.973      3.705
REMARK  13 active torsions:
REMARK  status: ('A' for Active; 'I' for Inactive)
REMARK    1  A    between atoms: C1_2  and  C2_3 
REMARK       I    between atoms: C1_2  and  N1_23 
REMARK    2  A    between atoms: C2_3  and  C3_4 
REMARK    3  A    between atoms: C3_4  and  C4_5 
REMARK    4  A    between atoms: C4_5  and  C5_6 
REMARK    5  A    between atoms: C6_7  and  C7_8 
REMARK    6  A    between atoms: C7_8  and  C8_9 
REMARK    7  A    between atoms: C13_14  and  C14_15 
REMARK    8  A    between atoms: C14_15  and  C15_16 
REMARK    9  A    between atoms: C15_16  and  C16_17 
REMARK   10  A    between atoms: C16_17  and  O2_18 
REMARK   11  A    between atoms: C17_20  and  O3_21 
REMARK   12  A    between atoms: N1_23  and  C18_25 
REMARK   13  A    between atoms: C18_25  and  C19_26 
ROOT
HETATM    1  C5  UNL     1      33.665  42.722  -8.300  1.00  0.00    -0.031 C 
HETATM    2  C6  UNL     1      33.351  43.267  -9.426  1.00  0.00    -0.030 C 
ENDROOT
BRANCH   1   3
HETATM    3  C4  UNL     1      34.140  41.339  -8.137  1.00  0.00     0.027 C 
BRANCH   3   4
HETATM    4  C3  UNL     1      34.974  41.220  -6.886  1.00  0.00     0.013 C 
BRANCH   4   5
HETATM    5  C2  UNL     1      34.681  42.199  -5.827  1.00  0.00     0.103 C 
BRANCH   5   6
HETATM    6  C1  UNL     1      35.793  42.251  -4.809  1.00  0.00     0.221 C 
HETATM    7  O1  UNL     1      36.909  42.573  -5.242  1.00  0.00    -0.273 OA
HETATM    8  N1  UNL     1      35.450  41.933  -3.499  1.00  0.00    -0.339 N 
ATOM      9  H1  UNL     1      34.460  41.718  -3.378  1.00  0.00     0.167 HD
BRANCH   8  10
HETATM   10  C18 UNL     1      36.188  41.850  -2.320  1.00  0.00     0.096 C 
BRANCH  10  11
HETATM   11  C19 UNL     1      35.972  42.862  -1.270  1.00  0.00     0.224 C 
HETATM   12  C20 UNL     1      36.219  44.280  -1.484  1.00  0.00     0.040 C 
HETATM   13  C21 UNL     1      37.521  44.582  -0.781  1.00  0.00     0.030 C 
HETATM   14  C22 UNL     1      37.913  43.317  -0.084  1.00  0.00     0.233 C 
HETATM   15  N2  UNL     1      36.727  42.480  -0.058  1.00  0.00    -0.066 N 
ATOM     16  H22 UNL     1      36.188  42.550   0.805  1.00  0.00     0.278 HD
ATOM     17  H21 UNL     1      36.924  41.482   0.011  1.00  0.00     0.278 HD
ENDBRANCH  10  11
ENDBRANCH   8  10
ENDBRANCH   5   6
ENDBRANCH   4   5
ENDBRANCH   3   4
ENDBRANCH   1   3
BRANCH   2  18
HETATM   18  C7  UNL     1      33.388  42.661 -10.788  1.00  0.00     0.032 C 
BRANCH  18  19
HETATM   19  C8  UNL     1      32.030  42.142 -11.074  1.00  0.00    -0.000 C 
HETATM   20  C9  UNL     1      31.669  42.060 -12.545  1.00  0.00     0.019 C 
HETATM   21  C10 UNL     1      32.697  41.065 -13.027  1.00  0.00     0.008 C 
HETATM   22  C17 UNL     1      30.349  41.289 -12.458  1.00  0.00     0.127 C 
HETATM   23  C11 UNL     1      32.767  40.070 -11.858  1.00  0.00     0.006 C 
HETATM   24  C12 UNL     1      31.873  40.626 -10.815  1.00  0.00    -0.003 C 
HETATM   25  C13 UNL     1      30.383  40.572 -11.177  1.00  0.00     0.019 C 
BRANCH  25  26
HETATM   26  C14 UNL     1      29.688  39.339 -10.929  1.00  0.00     0.009 C 
BRANCH  26  27
HETATM   27  C15 UNL     1      28.254  39.198 -10.717  1.00  0.00     0.027 C 
BRANCH  27  28
HETATM   28  C16 UNL     1      27.406  39.020 -11.954  1.00  0.00     0.164 C 
BRANCH  28  29
HETATM   29  O2  UNL     1      27.056  40.214 -12.563  1.00  0.00    -0.401 OA
ATOM     30  H2  UNL     1      26.809  40.117 -13.475  1.00  0.00     0.209 HD
ENDBRANCH  28  29
ENDBRANCH  27  28
ENDBRANCH  26  27
ENDBRANCH  25  26
BRANCH  22  31
HETATM   31  O3  UNL     1      29.364  42.315 -12.451  1.00  0.00    -0.395 OA
ATOM     32  H3  UNL     1      28.623  41.909 -12.017  1.00  0.00     0.210 HD
ENDBRANCH  22  31
ENDBRANCH  18  19
ENDBRANCH   2  18
TORSDOF 13
ENDMDL
MODEL 5
REMARK VINA RESULT: -7.647037307      2.479      4.400
REMARK  13 active torsions:
REMARK  status: ('A' for Active; 'I' for Inactive)
REMARK    1  A    between atoms: C1_2  and  C2_3 
REMARK       I    between atoms: C1_2  and  N1_23 
REMARK    2  A    between atoms: C2_3  and  C3_4 
REMARK    3  A    between atoms: C3_4  and  C4_5 
REMARK    4  A    between atoms: C4_5  and  C5_6 
REMARK    5  A    between atoms: C6_7  and  C7_8 
REMARK    6  A    between atoms: C7_8  and  C8_9 
REMARK    7  A    between atoms: C13_14  and  C14_15 
REMARK    8  A    between atoms: C14_15  and  C15_16 
REMARK    9  A    between atoms: C15_16  and  C16_17 
REMARK   10  A    between atoms: C16_17  and  O2_18 
REMARK   11  A    between atoms: C17_20  and  O3_21 
REMARK   12  A    between atoms: N1_23  and  C18_25 
REMARK   13  A    between atoms: C18_25  and  C19_26 
ROOT
HETATM    1  C5  UNL     1      33.509  43.143  -8.203  1.00  0.00    -0.031 C 
HETATM    2  C6  UNL     1      33.037  43.215  -9.401  1.00  0.00    -0.030 C 
ENDROOT
BRANCH   1   3
HETATM    3  C4  UNL     1      34.249  41.996  -7.657  1.00  0.00     0.027 C 
BRANCH   3   4
HETATM    4  C3  UNL     1      34.507  42.195  -6.185  1.00  0.00     0.013 C 
BRANCH   4   5
HETATM    5  C2  UNL     1      35.542  41.330  -5.595  1.00  0.00     0.103 C 
BRANCH   5   6
HETATM    6  C1  UNL     1      36.124  41.949  -4.347  1.00  0.00     0.221 C 
HETATM    7  O1  UNL     1      37.200  42.546  -4.491  1.00  0.00    -0.273 OA
HETATM    8  N1  UNL     1      35.395  41.781  -3.175  1.00  0.00    -0.339 N 
ATOM      9  H1  UNL     1      34.525  41.266  -3.306  1.00  0.00     0.167 HD
BRANCH   8  10
HETATM   10  C18 UNL     1      35.618  42.176  -1.856  1.00  0.00     0.096 C 
BRANCH  10  11
HETATM   11  C19 UNL     1      36.865  41.762  -1.189  1.00  0.00     0.224 C 
HETATM   12  C20 UNL     1      36.909  41.342   0.203  1.00  0.00     0.040 C 
HETATM   13  C21 UNL     1      37.498  42.505   0.966  1.00  0.00     0.030 C 
HETATM   14  C22 UNL     1      37.880  43.520  -0.066  1.00  0.00     0.233 C 
HETATM   15  N2  UNL     1      37.880  42.826  -1.341  1.00  0.00    -0.066 N 
ATOM     16  H22 UNL     1      38.798  42.487  -1.629  1.00  0.00     0.278 HD
ATOM     17  H21 UNL     1      37.726  43.435  -2.145  1.00  0.00     0.278 HD
ENDBRANCH  10  11
ENDBRANCH   8  10
ENDBRANCH   5   6
ENDBRANCH   4   5
ENDBRANCH   3   4
ENDBRANCH   1   3
BRANCH   2  18
HETATM   18  C7  UNL     1      33.117  42.198 -10.489  1.00  0.00     0.032 C 
BRANCH  18  19
HETATM   19  C8  UNL     1      32.014  41.232 -10.268  1.00  0.00    -0.000 C 
HETATM   20  C9  UNL     1      31.171  40.930 -11.492  1.00  0.00     0.019 C 
HETATM   21  C10 UNL     1      32.207  40.308 -12.396  1.00  0.00     0.008 C 
HETATM   22  C17 UNL     1      30.328  39.768 -10.960  1.00  0.00     0.127 C 
HETATM   23  C11 UNL     1      33.050  39.480 -11.412  1.00  0.00     0.006 C 
HETATM   24  C12 UNL     1      32.490  39.775 -10.072  1.00  0.00    -0.003 C 
HETATM   25  C13 UNL     1      31.088  39.196  -9.841  1.00  0.00     0.019 C 
BRANCH  25  26
HETATM   26  C14 UNL     1      31.000  37.822  -9.430  1.00  0.00     0.009 C 
BRANCH  26  27
HETATM   27  C15 UNL     1      31.026  37.341  -8.055  1.00  0.00     0.027 C 
BRANCH  27  28
HETATM   28  C16 UNL     1      32.388  37.195  -7.420  1.00  0.00     0.164 C 
BRANCH  28  29
HETATM   29  O2  UNL     1      32.439  37.640  -6.108  1.00  0.00    -0.401 OA
ATOM     30  H2  UNL     1      32.251  36.962  -5.470  1.00  0.00     0.209 HD
ENDBRANCH  28  29
ENDBRANCH  27  28
ENDBRANCH  26  27
ENDBRANCH  25  26
BRANCH  22  31
HETATM   31  O3  UNL     1      29.137  40.399 -10.509  1.00  0.00    -0.395 OA
ATOM     32  H3  UNL     1      28.680  40.615 -11.314  1.00  0.00     0.210 HD
ENDBRANCH  22  31
ENDBRANCH  18  19
ENDBRANCH   2  18
TORSDOF 13
ENDMDL
