MODEL 1
REMARK VINA RESULT: -7.946932016      0.000      0.000
REMARK  13 active torsions:
REMARK  status: ('A' for Active; 'I' for Inactive)
REMARK    1  A    between atoms: C1_2  and  C2_4 
REMARK    2  A    between atoms: C2_4  and  C3_5 
REMARK    3  A    between atoms: C3_5  and  C4_6 
REMARK    4  A    between atoms: C6_11  and  C7_12 
REMARK    5  A    between atoms: C7_12  and  C8_13 
REMARK    6  A    between atoms: C9_14  and  C10_15 
REMARK    7  A    between atoms: C10_15  and  C11_16 
REMARK    8  A    between atoms: C11_16  and  C12_17 
REMARK    9  A    between atoms: C12_17  and  C13_18 
REMARK   10  A    between atoms: C13_18  and  C14_19 
REMARK   11  A    between atoms: C14_19  and  C15_20 
REMARK   12  A    between atoms: C20_25  and  O3_26 
REMARK   13  A    between atoms: C21_28  and  O4_29 
ROOT
HETATM    1  C4  UNL     1      37.164  41.897  -1.202  1.00  0.00     0.116 C 
HETATM    2  N2  UNL     1      37.824  40.897  -2.050  1.00  0.00    -0.353 N 
ATOM      3  H2  UNL     1      38.540  40.285  -1.660  1.00  0.00     0.163 HD
HETATM    4  C5  UNL     1      37.456  40.789  -3.426  1.00  0.00     0.225 C 
HETATM    5  O2  UNL     1      37.713  39.702  -4.004  1.00  0.00    -0.273 OA
HETATM    6  C6  UNL     1      36.798  41.880  -4.186  1.00  0.00     0.112 C 
HETATM    7  C20 UNL     1      36.358  42.940  -3.242  1.00  0.00     0.162 C 
HETATM    8  C21 UNL     1      35.903  42.278  -1.943  1.00  0.00     0.170 C 
ENDROOT
BRANCH   6   9
HETATM    9  C7  UNL     1      35.698  41.348  -5.081  1.00  0.00     0.043 C 
BRANCH   9  10
HETATM   10  C8  UNL     1      34.890  42.437  -5.671  1.00  0.00    -0.030 C 
HETATM   11  C9  UNL     1      34.211  42.329  -6.800  1.00  0.00    -0.031 C 
BRANCH  11  12
HETATM   12  C10 UNL     1      34.133  41.130  -7.662  1.00  0.00     0.027 C 
BRANCH  12  13
HETATM   13  C11 UNL     1      33.499  41.594  -8.982  1.00  0.00     0.004 C 
BRANCH  13  14
HETATM   14  C12 UNL     1      33.666  43.108  -9.009  1.00  0.00     0.000 C 
BRANCH  14  15
HETATM   15  C13 UNL     1      33.514  43.668 -10.380  1.00  0.00     0.000 C 
BRANCH  15  16
HETATM   16  C14 UNL     1      32.302  44.549 -10.454  1.00  0.00     0.004 C 
BRANCH  16  17
HETATM   17  C15 UNL     1      31.975  44.884 -11.875  1.00  0.00    -0.014 C 
HETATM   18  C16 UNL     1      31.678  43.635 -12.684  1.00  0.00     0.004 C 
HETATM   19  C17 UNL     1      32.448  43.739 -13.962  1.00  0.00     0.000 C 
HETATM   20  C18 UNL     1      33.161  45.058 -13.973  1.00  0.00     0.000 C 
HETATM   21  C19 UNL     1      33.086  45.607 -12.565  1.00  0.00     0.004 C 
ENDBRANCH  16  17
ENDBRANCH  15  16
ENDBRANCH  14  15
ENDBRANCH  13  14
ENDBRANCH  12  13
ENDBRANCH  11  12
ENDBRANCH   9  10
ENDBRANCH   6   9
BRANCH   7  22
HETATM   22  O3  UNL     1      37.456  43.772  -2.926  1.00  0.00    -0.392 OA
ATOM     23  H3  UNL     1      37.345  44.614  -3.351  1.00  0.00     0.210 HD
ENDBRANCH   7  22
BRANCH   8  24
HETATM   24  O4  UNL     1      35.185  41.125  -2.183  1.00  0.00    -0.391 OA
ATOM     25  H4  UNL     1      34.406  41.145  -1.639  1.00  0.00     0.210 HD
ENDBRANCH   8  24
BRANCH   1  26
HETATM   26  C3  UNL     1      36.901  41.354   0.171  1.00  0.00     0.036 C 
BRANCH  26  27
HETATM   27  C2  UNL     1      37.097  42.378   1.239  1.00  0.00     0.101 C 
BRANCH  27  28
HETATM   28  C1  UNL     1      38.134  43.381   0.886  1.00  0.00     0.231 C 
HETATM   29  N1  UNL     1      37.751  44.550   0.173  1.00  0.00    -0.062 NA
HETATM   30  O1  UNL     1      39.350  43.257   1.185  1.00  0.00    -0.277 OA
ENDBRANCH  27  28
ENDBRANCH  26  27
ENDBRANCH   1  26
TORSDOF 13
ENDMDL
MODEL 2
REMARK VINA RESULT: -7.900814098      1.206      2.110
REMARK  13 active torsions:
REMARK  status: ('A' for Active; 'I' for Inactive)
REMARK    1  A    between atoms: C1_2  and  C2_4 
REMARK    2  A    between atoms: C2_4  and  C3_5 
REMARK    3  A    between atoms: C3_5  and  C4_6 
REMARK    4  A    between atoms: C6_11  and  C7_12 
REMARK    5  A    between atoms: C7_12  and  C8_13 
REMARK    6  A    between atoms: C9_14  and  C10_15 
REMARK    7  A    between atoms: C10_15  and  C11_16 
REMARK    8  A    between atoms: C11_16  and  C12_17 
REMARK    9  A    between atoms: C12_17  and  C13_18 
REMARK   10  A    between atoms: C13_18  and  C14_19 
REMARK   11  A    between atoms: C14_19  and  C15_20 
REMARK   12  A    between atoms: C20_25  and  O3_26 
REMARK   13  A    between atoms: C21_28  and  O4_29 
ROOT
HETATM    1  C4  UNL     1      37.145  41.719  -1.504  1.00  0.00     0.116 C 
HETATM    2  N2  UNL     1      37.488  40.684  -2.486  1.00  0.00    -0.353 N 
ATOM      3  H2  UNL     1      38.101  39.911  -2.225  1.00  0.00     0.163 HD
HETATM    4  C5  UNL     1      36.957  40.765  -3.810  1.00  0.00     0.225 C 
HETATM    5  O2  UNL     1      36.921  39.701  -4.478  1.00  0.00    -0.273 OA
HETATM    6  C6  UNL     1      36.458  42.023  -4.415  1.00  0.00     0.112 C 
HETATM    7  C20 UNL     1      36.351  43.068  -3.362  1.00  0.00     0.162 C 
HETATM    8  C21 UNL     1      35.915  42.402  -2.059  1.00  0.00     0.170 C 
ENDROOT
BRANCH   6   9
HETATM    9  C7  UNL     1      35.181  41.796  -5.197  1.00  0.00     0.043 C 
BRANCH   9  10
HETATM   10  C8  UNL     1      35.432  41.711  -6.652  1.00  0.00    -0.030 C 
HETATM   11  C9  UNL     1      35.031  40.709  -7.417  1.00  0.00    -0.031 C 
BRANCH  11  12
HETATM   12  C10 UNL     1      34.277  39.517  -6.972  1.00  0.00     0.027 C 
BRANCH  12  13
HETATM   13  C11 UNL     1      34.227  38.569  -8.180  1.00  0.00     0.004 C 
BRANCH  13  14
HETATM   14  C12 UNL     1      33.952  39.456  -9.388  1.00  0.00     0.000 C 
BRANCH  14  15
HETATM   15  C13 UNL     1      32.497  39.564  -9.688  1.00  0.00     0.000 C 
BRANCH  15  16
HETATM   16  C14 UNL     1      32.072  41.003  -9.700  1.00  0.00     0.004 C 
BRANCH  16  17
HETATM   17  C15 UNL     1      33.072  41.845 -10.428  1.00  0.00    -0.014 C 
HETATM   18  C16 UNL     1      33.254  43.194  -9.757  1.00  0.00     0.004 C 
HETATM   19  C17 UNL     1      33.195  44.236 -10.829  1.00  0.00     0.000 C 
HETATM   20  C18 UNL     1      33.043  43.541 -12.150  1.00  0.00     0.000 C 
HETATM   21  C19 UNL     1      32.681  42.104 -11.847  1.00  0.00     0.004 C 
ENDBRANCH  16  17
ENDBRANCH  15  16
ENDBRANCH  14  15
ENDBRANCH  13  14
ENDBRANCH  12  13
ENDBRANCH  11  12
ENDBRANCH   9  10
ENDBRANCH   6   9
BRANCH   7  22
HETATM   22  O3  UNL     1      37.624  43.637  -3.136  1.00  0.00    -0.392 OA
ATOM     23  H3  UNL     1      37.521  44.538  -2.852  1.00  0.00     0.210 HD
ENDBRANCH   7  22
BRANCH   8  24
HETATM   24  O4  UNL     1      34.953  41.437  -2.277  1.00  0.00    -0.391 OA
ATOM     25  H4  UNL     1      34.189  41.662  -1.759  1.00  0.00     0.210 HD
ENDBRANCH   8  24
BRANCH   1  26
HETATM   26  C3  UNL     1      36.928  41.126  -0.144  1.00  0.00     0.036 C 
BRANCH  26  27
HETATM   27  C2  UNL     1      36.942  42.153   0.938  1.00  0.00     0.101 C 
BRANCH  27  28
HETATM   28  C1  UNL     1      38.004  43.174   0.743  1.00  0.00     0.231 C 
HETATM   29  N1  UNL     1      37.679  44.393   0.088  1.00  0.00    -0.062 NA
HETATM   30  O1  UNL     1      39.192  43.023   1.128  1.00  0.00    -0.277 OA
ENDBRANCH  27  28
ENDBRANCH  26  27
ENDBRANCH   1  26
TORSDOF 13
ENDMDL
MODEL 3
REMARK VINA RESULT: -7.812406873      2.671      4.543
REMARK  13 active torsions:
REMARK  status: ('A' for Active; 'I' for Inactive)
REMARK    1  A    between atoms: C1_2  and  C2_4 
REMARK    2  A    between atoms: C2_4  and  C3_5 
REMARK    3  A    between atoms: C3_5  and  C4_6 
REMARK    4  A    between atoms: C6_11  and  C7_12 
REMARK    5  A    between atoms: C7_12  and  C8_13 
REMARK    6  A    between atoms: C9_14  and  C10_15 
REMARK    7  A    between atoms: C10_15  and  C11_16 
REMARK    8  A    between atoms: C11_16  and  C12_17 
REMARK    9  A    between atoms: C12_17  and  C13_18 
REMARK   10  A    between atoms: C13_18  and  C14_19 
REMARK   11  A    between atoms: C14_19  and  C15_20 
REMARK   12  A    between atoms: C20_25  and  O3_26 
REMARK   13  A    between atoms: C21_28  and  O4_29 
ROOT
HETATM    1  C4  UNL     1      35.042  41.696  -5.340  1.00  0.00     0.116 C 
HETATM    2  N2  UNL     1      34.022  42.581  -5.914  1.00  0.00    -0.353 N 
ATOM      3  H2  UNL     1      33.702  43.400  -5.397  1.00  0.00     0.163 HD
HETATM    4  C5  UNL     1      33.479  42.288  -7.202  1.00  0.00     0.225 C 
HETATM    5  O2  UNL     1      32.945  43.238  -7.828  1.00  0.00    -0.273 OA
HETATM    6  C6  UNL     1      33.518  40.939  -7.819  1.00  0.00     0.112 C 
HETATM    7  C20 UNL     1      34.421  40.063  -7.027  1.00  0.00     0.162 C 
HETATM    8  C21 UNL     1      35.585  40.904  -6.508  1.00  0.00     0.170 C 
ENDROOT
BRANCH   6   9
HETATM    9  C7  UNL     1      33.857  41.012  -9.293  1.00  0.00     0.043 C 
BRANCH   9  10
HETATM   10  C8  UNL     1      33.388  39.818 -10.028  1.00  0.00    -0.030 C 
HETATM   11  C9  UNL     1      32.140  39.635 -10.426  1.00  0.00    -0.031 C 
BRANCH  11  12
HETATM   12  C10 UNL     1      31.010  40.566 -10.217  1.00  0.00     0.027 C 
BRANCH  12  13
HETATM   13  C11 UNL     1      29.972  40.227 -11.297  1.00  0.00     0.004 C 
BRANCH  13  14
HETATM   14  C12 UNL     1      30.726  40.267 -12.620  1.00  0.00     0.000 C 
BRANCH  14  15
HETATM   15  C13 UNL     1      30.932  41.658 -13.109  1.00  0.00     0.000 C 
BRANCH  15  16
HETATM   16  C14 UNL     1      32.382  41.894 -13.417  1.00  0.00     0.004 C 
BRANCH  16  17
HETATM   17  C15 UNL     1      32.782  43.288 -13.047  1.00  0.00    -0.014 C 
HETATM   18  C16 UNL     1      33.043  43.413 -11.557  1.00  0.00     0.004 C 
HETATM   19  C17 UNL     1      32.330  44.639 -11.082  1.00  0.00     0.000 C 
HETATM   20  C18 UNL     1      31.690  45.298 -12.267  1.00  0.00     0.000 C 
HETATM   21  C19 UNL     1      31.739  44.298 -13.401  1.00  0.00     0.004 C 
ENDBRANCH  16  17
ENDBRANCH  15  16
ENDBRANCH  14  15
ENDBRANCH  13  14
ENDBRANCH  12  13
ENDBRANCH  11  12
ENDBRANCH   9  10
ENDBRANCH   6   9
BRANCH   7  22
HETATM   22  O3  UNL     1      33.726  39.569  -5.901  1.00  0.00    -0.392 OA
ATOM     23  H3  UNL     1      33.371  40.297  -5.406  1.00  0.00     0.210 HD
ENDBRANCH   7  22
BRANCH   8  24
HETATM   24  O4  UNL     1      36.031  41.799  -7.459  1.00  0.00    -0.391 OA
ATOM     25  H4  UNL     1      35.952  42.675  -7.098  1.00  0.00     0.210 HD
ENDBRANCH   8  24
BRANCH   1  26
HETATM   26  C3  UNL     1      36.096  42.480  -4.617  1.00  0.00     0.036 C 
BRANCH  26  27
HETATM   27  C2  UNL     1      36.143  42.168  -3.158  1.00  0.00     0.101 C 
BRANCH  27  28
HETATM   28  C1  UNL     1      37.351  42.724  -2.494  1.00  0.00     0.231 C 
HETATM   29  N1  UNL     1      37.343  44.079  -2.067  1.00  0.00    -0.062 NA
HETATM   30  O1  UNL     1      38.396  42.056  -2.283  1.00  0.00    -0.277 OA
ENDBRANCH  27  28
ENDBRANCH  26  27
ENDBRANCH   1  26
TORSDOF 13
ENDMDL
MODEL 4
REMARK VINA RESULT: -7.708882338      3.731      5.942
REMARK  13 active torsions:
REMARK  status: ('A' for Active; 'I' for Inactive)
REMARK    1  A    between atoms: C1_2  and  C2_4 
REMARK    2  A    between atoms: C2_4  and  C3_5 
REMARK    3  A    between atoms: C3_5  and  C4_6 
REMARK    4  A    between atoms: C6_11  and  C7_12 
REMARK    5  A    between atoms: C7_12  and  C8_13 
REMARK    6  A    between atoms: C9_14  and  C10_15 
REMARK    7  A    between atoms: C10_15  and  C11_16 
REMARK    8  A    between atoms: C11_16  and  C12_17 
REMARK    9  A    between atoms: C12_17  and  C13_18 
REMARK   10  A    between atoms: C13_18  and  C14_19 
REMARK   11  A    between atoms: C14_19  and  C15_20 
REMARK   12  A    between atoms: C20_25  and  O3_26 
REMARK   13  A    between atoms: C21_28  and  O4_29 
ROOT
HETATM    1  C4  UNL     1      35.118  41.684  -5.401  1.00  0.00     0.116 C 
HETATM    2  N2  UNL     1      34.087  42.601  -5.900  1.00  0.00    -0.353 N 
ATOM      3  H2  UNL     1      33.790  43.396  -5.334  1.00  0.00     0.163 HD
HETATM    4  C5  UNL     1      33.503  42.373  -7.183  1.00  0.00     0.225 C 
HETATM    5  O2  UNL     1      32.956  43.356  -7.746  1.00  0.00    -0.273 OA
HETATM    6  C6  UNL     1      33.513  41.056  -7.864  1.00  0.00     0.112 C 
HETATM    7  C20 UNL     1      34.434  40.137  -7.145  1.00  0.00     0.162 C 
HETATM    8  C21 UNL     1      35.619  40.946  -6.622  1.00  0.00     0.170 C 
ENDROOT
BRANCH   6   9
HETATM    9  C7  UNL     1      33.806  41.198  -9.344  1.00  0.00     0.043 C 
BRANCH   9  10
HETATM   10  C8  UNL     1      33.461  39.972 -10.096  1.00  0.00    -0.030 C 
HETATM   11  C9  UNL     1      32.982  39.969 -11.328  1.00  0.00    -0.031 C 
BRANCH  11  12
HETATM   12  C10 UNL     1      32.709  41.159 -12.164  1.00  0.00     0.027 C 
BRANCH  12  13
HETATM   13  C11 UNL     1      31.218  41.479 -11.976  1.00  0.00     0.004 C 
BRANCH  13  14
HETATM   14  C12 UNL     1      30.470  40.224 -12.406  1.00  0.00     0.000 C 
BRANCH  14  15
HETATM   15  C13 UNL     1      29.212  40.025 -11.634  1.00  0.00     0.000 C 
BRANCH  15  16
HETATM   16  C14 UNL     1      29.524  39.731 -10.195  1.00  0.00     0.004 C 
BRANCH  16  17
HETATM   17  C15 UNL     1      29.900  38.294 -10.017  1.00  0.00    -0.014 C 
HETATM   18  C16 UNL     1      28.673  37.418  -9.844  1.00  0.00     0.004 C 
HETATM   19  C17 UNL     1      28.930  36.517  -8.678  1.00  0.00     0.000 C 
HETATM   20  C18 UNL     1      30.317  36.786  -8.175  1.00  0.00     0.000 C 
HETATM   21  C19 UNL     1      30.775  38.072  -8.826  1.00  0.00     0.004 C 
ENDBRANCH  16  17
ENDBRANCH  15  16
ENDBRANCH  14  15
ENDBRANCH  13  14
ENDBRANCH  12  13
ENDBRANCH  11  12
ENDBRANCH   9  10
ENDBRANCH   6   9
BRANCH   7  22
HETATM   22  O3  UNL     1      33.770  39.593  -6.022  1.00  0.00    -0.392 OA
ATOM     23  H3  UNL     1      34.227  38.812  -5.735  1.00  0.00     0.210 HD
ENDBRANCH   7  22
BRANCH   8  24
HETATM   24  O4  UNL     1      36.042  41.883  -7.543  1.00  0.00    -0.391 OA
ATOM     25  H4  UNL     1      35.895  41.528  -8.412  1.00  0.00     0.210 HD
ENDBRANCH   8  24
BRANCH   1  26
HETATM   26  C3  UNL     1      36.200  42.426  -4.675  1.00  0.00     0.036 C 
BRANCH  26  27
HETATM   27  C2  UNL     1      36.123  42.249  -3.195  1.00  0.00     0.101 C 
BRANCH  27  28
HETATM   28  C1  UNL     1      37.328  42.764  -2.495  1.00  0.00     0.231 C 
HETATM   29  N1  UNL     1      37.333  44.106  -2.025  1.00  0.00    -0.062 NA
HETATM   30  O1  UNL     1      38.360  42.074  -2.289  1.00  0.00    -0.277 OA
ENDBRANCH  27  28
ENDBRANCH  26  27
ENDBRANCH   1  26
TORSDOF 13
ENDMDL
MODEL 5
REMARK VINA RESULT: -7.508295680      1.997      3.574
REMARK  13 active torsions:
REMARK  status: ('A' for Active; 'I' for Inactive)
REMARK    1  A    between atoms: C1_2  and  C2_4 
REMARK    2  A    between atoms: C2_4  and  C3_5 
REMARK    3  A    between atoms: C3_5  and  C4_6 
REMARK    4  A    between atoms: C6_11  and  C7_12 
REMARK    5  A    between atoms: C7_12  and  C8_13 
REMARK    6  A    between atoms: C9_14  and  C10_15 
REMARK    7  A    between atoms: C10_15  and  C11_16 
REMARK    8  A    between atoms: C11_16  and  C12_17 
REMARK    9  A    between atoms: C12_17  and  C13_18 
REMARK   10  A    between atoms: C13_18  and  C14_19 
REMARK   11  A    between atoms: C14_19  and  C15_20 
REMARK   12  A    between atoms: C20_25  and  O3_26 
REMARK   13  A    between atoms: C21_28  and  O4_29 
ROOT
HETATM    1  C4  UNL     1      37.160  41.823  -1.395  1.00  0.00     0.116 C 
HETATM    2  N2  UNL     1      37.607  40.812  -2.360  1.00  0.00    -0.353 N 
ATOM      3  H2  UNL     1      38.257  40.079  -2.074  1.00  0.00     0.163 HD
HETATM    4  C5  UNL     1      37.127  40.861  -3.705  1.00  0.00     0.225 C 
HETATM    5  O2  UNL     1      37.184  39.797  -4.373  1.00  0.00    -0.273 OA
HETATM    6  C6  UNL     1      36.575  42.086  -4.332  1.00  0.00     0.112 C 
HETATM    7  C20 UNL     1      36.360  43.121  -3.286  1.00  0.00     0.162 C 
HETATM    8  C21 UNL     1      35.914  42.428  -2.000  1.00  0.00     0.170 C 
ENDROOT
BRANCH   6   9
HETATM    9  C7  UNL     1      35.348  41.780  -5.165  1.00  0.00     0.043 C 
BRANCH   9  10
HETATM   10  C8  UNL     1      35.657  41.737  -6.611  1.00  0.00    -0.030 C 
HETATM   11  C9  UNL     1      34.809  42.090  -7.561  1.00  0.00    -0.031 C 
BRANCH  11  12
HETATM   12  C10 UNL     1      33.428  42.584  -7.363  1.00  0.00     0.027 C 
BRANCH  12  13
HETATM   13  C11 UNL     1      33.001  43.205  -8.701  1.00  0.00     0.004 C 
BRANCH  13  14
HETATM   14  C12 UNL     1      33.435  42.214  -9.773  1.00  0.00     0.000 C 
BRANCH  14  15
HETATM   15  C13 UNL     1      32.492  41.068  -9.895  1.00  0.00     0.000 C 
BRANCH  15  16
HETATM   16  C14 UNL     1      33.141  39.934 -10.634  1.00  0.00     0.004 C 
BRANCH  16  17
HETATM   17  C15 UNL     1      33.435  38.797  -9.707  1.00  0.00    -0.014 C 
HETATM   18  C16 UNL     1      32.543  38.838  -8.480  1.00  0.00     0.004 C 
HETATM   19  C17 UNL     1      33.420  38.631  -7.286  1.00  0.00     0.000 C 
HETATM   20  C18 UNL     1      34.822  38.403  -7.767  1.00  0.00     0.000 C 
HETATM   21  C19 UNL     1      34.851  38.797  -9.228  1.00  0.00     0.004 C 
ENDBRANCH  16  17
ENDBRANCH  15  16
ENDBRANCH  14  15
ENDBRANCH  13  14
ENDBRANCH  12  13
ENDBRANCH  11  12
ENDBRANCH   9  10
ENDBRANCH   6   9
BRANCH   7  22
HETATM   22  O3  UNL     1      37.585  43.769  -3.010  1.00  0.00    -0.392 OA
ATOM     23  H3  UNL     1      37.987  43.369  -2.247  1.00  0.00     0.210 HD
ENDBRANCH   7  22
BRANCH   8  24
HETATM   24  O4  UNL     1      35.024  41.405  -2.256  1.00  0.00    -0.391 OA
ATOM     25  H4  UNL     1      34.556  41.216  -1.451  1.00  0.00     0.210 HD
ENDBRANCH   8  24
BRANCH   1  26
HETATM   26  C3  UNL     1      36.926  41.216  -0.044  1.00  0.00     0.036 C 
BRANCH  26  27
HETATM   27  C2  UNL     1      37.031  42.216   1.059  1.00  0.00     0.101 C 
BRANCH  27  28
HETATM   28  C1  UNL     1      38.084  43.234   0.809  1.00  0.00     0.231 C 
HETATM   29  N1  UNL     1      37.724  44.464   0.194  1.00  0.00    -0.062 NA
HETATM   30  O1  UNL     1      39.293  43.071   1.114  1.00  0.00    -0.277 OA
ENDBRANCH  27  28
ENDBRANCH  26  27
ENDBRANCH   1  26
TORSDOF 13
ENDMDL
