MODEL 1
REMARK VINA RESULT: -8.678691767      0.000      0.000
REMARK  8 active torsions:
REMARK  status: ('A' for Active; 'I' for Inactive)
REMARK    1  A    between atoms: C2_2  and  C3_3 
REMARK    2  A    between atoms: C3_3  and  C4_4 
REMARK    3  A    between atoms: C4_4  and  N1_5 
REMARK    4  A    between atoms: N1_5  and  C5_7 
REMARK    5  A    between atoms: C6_10  and  C7_11 
REMARK    6  A    between atoms: N3_15  and  C11_16 
REMARK    7  A    between atoms: C15_25  and  C16_26 
REMARK       I    between atoms: C16_26  and  N6_28 
REMARK    8  A    between atoms: N6_28  and  C17_30 
ROOT
HETATM    1  C5  UNL     1      35.800  40.205  -5.694  1.00  0.00     0.117 A 
HETATM    2  N2  UNL     1      36.233  40.673  -4.478  1.00  0.00    -0.327 N 
ATOM      3  H2  UNL     1      36.791  40.053  -3.891  1.00  0.00     0.169 HD
HETATM    4  C6  UNL     1      35.961  41.893  -4.025  1.00  0.00     0.123 A 
HETATM    5  N4  UNL     1      35.210  42.667  -4.861  1.00  0.00    -0.327 N 
ATOM      6  H4  UNL     1      34.978  43.612  -4.553  1.00  0.00     0.169 HD
HETATM    7  C14 UNL     1      34.759  42.274  -6.054  1.00  0.00     0.122 A 
HETATM    8  N5  UNL     1      34.023  42.856  -7.017  1.00  0.00    -0.337 N 
ATOM      9  H5  UNL     1      33.656  43.806  -6.966  1.00  0.00     0.167 HD
HETATM   10  C15 UNL     1      33.835  42.026  -8.057  1.00  0.00     0.109 A 
HETATM   11  C20 UNL     1      34.472  40.827  -7.782  1.00  0.00    -0.012 A 
HETATM   12  C21 UNL     1      34.541  39.630  -8.629  1.00  0.00     0.052 C 
HETATM   13  C22 UNL     1      35.044  41.014  -6.514  1.00  0.00     0.060 A 
ENDROOT
BRANCH   4  14
HETATM   14  C7  UNL     1      36.409  42.465  -2.760  1.00  0.00     0.072 C 
HETATM   15  C8  UNL     1      37.323  43.435  -2.756  1.00  0.00    -0.004 C 
HETATM   16  C9  UNL     1      37.870  44.103  -1.582  1.00  0.00     0.048 C 
HETATM   17  C10 UNL     1      36.886  44.076  -0.454  1.00  0.00     0.130 C 
HETATM   18  N3  UNL     1      36.474  42.696  -0.291  1.00  0.00    -0.348 N 
HETATM   19  C13 UNL     1      35.933  42.046  -1.462  1.00  0.00     0.257 C 
HETATM   20  O1  UNL     1      35.085  41.153  -1.293  1.00  0.00    -0.267 OA
BRANCH  18  21
HETATM   21  C11 UNL     1      36.589  41.974   0.955  1.00  0.00     0.121 C 
HETATM   22  C12 UNL     1      37.771  42.417   1.750  1.00  0.00     0.026 C 
ENDBRANCH  18  21
ENDBRANCH   4  14
BRANCH   1  23
HETATM   23  N1  UNL     1      36.054  39.041  -6.094  1.00  0.00    -0.375 N 
ATOM     24  H1  UNL     1      35.282  38.609  -6.601  1.00  0.00     0.161 HD
BRANCH  23  25
HETATM   25  C4  UNL     1      37.189  38.209  -5.985  1.00  0.00     0.121 C 
BRANCH  25  26
HETATM   26  C3  UNL     1      37.112  37.088  -6.981  1.00  0.00     0.019 C 
BRANCH  26  27
HETATM   27  C2  UNL     1      38.432  36.401  -7.182  1.00  0.00    -0.003 C 
HETATM   28  C1  UNL     1      39.457  36.858  -6.165  1.00  0.00     0.005 C 
ENDBRANCH  26  27
ENDBRANCH  25  26
ENDBRANCH  23  25
ENDBRANCH   1  23
BRANCH  10  29
HETATM   29  C16 UNL     1      33.060  42.361  -9.268  1.00  0.00     0.269 C 
HETATM   30  O2  UNL     1      31.950  41.848  -9.528  1.00  0.00    -0.266 OA
HETATM   31  N6  UNL     1      33.593  43.305 -10.184  1.00  0.00    -0.351 N 
ATOM     32  H6  UNL     1      34.496  43.746 -10.004  1.00  0.00     0.163 HD
BRANCH  31  33
HETATM   33  C17 UNL     1      32.843  43.635 -11.376  1.00  0.00     0.085 A 
HETATM   34  C18 UNL     1      33.271  44.802 -12.149  1.00  0.00     0.027 A 
HETATM   35  C19 UNL     1      31.985  44.855 -11.385  1.00  0.00     0.027 A 
ENDBRANCH  31  33
ENDBRANCH  10  29
TORSDOF 8
ENDMDL
MODEL 2
REMARK VINA RESULT: -8.596902956      1.427      1.964
REMARK  8 active torsions:
REMARK  status: ('A' for Active; 'I' for Inactive)
REMARK    1  A    between atoms: C2_2  and  C3_3 
REMARK    2  A    between atoms: C3_3  and  C4_4 
REMARK    3  A    between atoms: C4_4  and  N1_5 
REMARK    4  A    between atoms: N1_5  and  C5_7 
REMARK    5  A    between atoms: C6_10  and  C7_11 
REMARK    6  A    between atoms: N3_15  and  C11_16 
REMARK    7  A    between atoms: C15_25  and  C16_26 
REMARK       I    between atoms: C16_26  and  N6_28 
REMARK    8  A    between atoms: N6_28  and  C17_30 
ROOT
HETATM    1  C5  UNL     1      35.344  39.967  -6.408  1.00  0.00     0.117 A 
HETATM    2  N2  UNL     1      35.749  40.327  -5.146  1.00  0.00    -0.327 N 
ATOM      3  H2  UNL     1      36.227  39.631  -4.574  1.00  0.00     0.169 HD
HETATM    4  C6  UNL     1      35.550  41.537  -4.631  1.00  0.00     0.123 A 
HETATM    5  N4  UNL     1      34.905  42.416  -5.451  1.00  0.00    -0.327 N 
ATOM      6  H4  UNL     1      34.731  43.356  -5.096  1.00  0.00     0.169 HD
HETATM    7  C14 UNL     1      34.486  42.130  -6.686  1.00  0.00     0.122 A 
HETATM    8  N5  UNL     1      33.847  42.825  -7.643  1.00  0.00    -0.337 N 
ATOM      9  H5  UNL     1      33.552  43.797  -7.550  1.00  0.00     0.167 HD
HETATM   10  C15 UNL     1      33.648  42.075  -8.740  1.00  0.00     0.109 A 
HETATM   11  C20 UNL     1      34.176  40.815  -8.511  1.00  0.00    -0.012 A 
HETATM   12  C21 UNL     1      34.195  39.668  -9.427  1.00  0.00     0.052 C 
HETATM   13  C22 UNL     1      34.696  40.881  -7.210  1.00  0.00     0.060 A 
ENDROOT
BRANCH   4  14
HETATM   14  C7  UNL     1      35.976  41.996  -3.313  1.00  0.00     0.072 C 
HETATM   15  C8  UNL     1      35.261  41.676  -2.235  1.00  0.00    -0.004 C 
HETATM   16  C9  UNL     1      35.554  42.057  -0.859  1.00  0.00     0.048 C 
HETATM   17  C10 UNL     1      37.023  42.277  -0.675  1.00  0.00     0.130 C 
HETATM   18  N3  UNL     1      37.442  43.197  -1.713  1.00  0.00    -0.348 N 
HETATM   19  C13 UNL     1      37.146  42.807  -3.073  1.00  0.00     0.257 C 
HETATM   20  O1  UNL     1      37.916  43.193  -3.969  1.00  0.00    -0.267 OA
BRANCH  18  21
HETATM   21  C11 UNL     1      38.114  44.448  -1.444  1.00  0.00     0.121 C 
HETATM   22  C12 UNL     1      37.268  45.373  -0.635  1.00  0.00     0.026 C 
ENDBRANCH  18  21
ENDBRANCH   4  14
BRANCH   1  23
HETATM   23  N1  UNL     1      35.527  38.812  -6.867  1.00  0.00    -0.375 N 
ATOM     24  H1  UNL     1      34.725  38.448  -7.382  1.00  0.00     0.161 HD
BRANCH  23  25
HETATM   25  C4  UNL     1      36.615  37.914  -6.817  1.00  0.00     0.121 C 
BRANCH  25  26
HETATM   26  C3  UNL     1      36.370  36.745  -7.727  1.00  0.00     0.019 C 
BRANCH  26  27
HETATM   27  C2  UNL     1      37.423  36.609  -8.789  1.00  0.00    -0.003 C 
HETATM   28  C1  UNL     1      37.007  37.291 -10.076  1.00  0.00     0.005 C 
ENDBRANCH  26  27
ENDBRANCH  25  26
ENDBRANCH  23  25
ENDBRANCH   1  23
BRANCH  10  29
HETATM   29  C16 UNL     1      32.964  42.541  -9.962  1.00  0.00     0.269 C 
HETATM   30  O2  UNL     1      31.998  41.934 -10.474  1.00  0.00    -0.266 OA
HETATM   31  N6  UNL     1      33.418  43.729 -10.592  1.00  0.00    -0.351 N 
ATOM     32  H6  UNL     1      34.202  44.252 -10.202  1.00  0.00     0.163 HD
BRANCH  31  33
HETATM   33  C17 UNL     1      32.757  44.190 -11.793  1.00  0.00     0.085 A 
HETATM   34  C18 UNL     1      33.387  45.277 -12.544  1.00  0.00     0.027 A 
HETATM   35  C19 UNL     1      32.114  45.536 -11.802  1.00  0.00     0.027 A 
ENDBRANCH  31  33
ENDBRANCH  10  29
TORSDOF 8
ENDMDL
MODEL 3
REMARK VINA RESULT: -8.540335924      1.709      2.621
REMARK  8 active torsions:
REMARK  status: ('A' for Active; 'I' for Inactive)
REMARK    1  A    between atoms: C2_2  and  C3_3 
REMARK    2  A    between atoms: C3_3  and  C4_4 
REMARK    3  A    between atoms: C4_4  and  N1_5 
REMARK    4  A    between atoms: N1_5  and  C5_7 
REMARK    5  A    between atoms: C6_10  and  C7_11 
REMARK    6  A    between atoms: N3_15  and  C11_16 
REMARK    7  A    between atoms: C15_25  and  C16_26 
REMARK       I    between atoms: C16_26  and  N6_28 
REMARK    8  A    between atoms: N6_28  and  C17_30 
ROOT
HETATM    1  C5  UNL     1      35.337  40.108  -6.646  1.00  0.00     0.117 A 
HETATM    2  N2  UNL     1      35.762  40.412  -5.375  1.00  0.00    -0.327 N 
ATOM      3  H2  UNL     1      36.327  39.725  -4.876  1.00  0.00     0.169 HD
HETATM    4  C6  UNL     1      35.474  41.556  -4.762  1.00  0.00     0.123 A 
HETATM    5  N4  UNL     1      34.715  42.427  -5.487  1.00  0.00    -0.327 N 
ATOM      6  H4  UNL     1      34.470  43.318  -5.054  1.00  0.00     0.169 HD
HETATM    7  C14 UNL     1      34.271  42.194  -6.724  1.00  0.00     0.122 A 
HETATM    8  N5  UNL     1      33.529  42.892  -7.601  1.00  0.00    -0.337 N 
ATOM      9  H5  UNL     1      33.149  43.822  -7.422  1.00  0.00     0.167 HD
HETATM   10  C15 UNL     1      33.353  42.209  -8.744  1.00  0.00     0.109 A 
HETATM   11  C20 UNL     1      34.005  40.992  -8.633  1.00  0.00    -0.012 A 
HETATM   12  C21 UNL     1      34.090  39.923  -9.635  1.00  0.00     0.052 C 
HETATM   13  C22 UNL     1      34.572  41.013  -7.350  1.00  0.00     0.060 A 
ENDROOT
BRANCH   4  14
HETATM   14  C7  UNL     1      35.913  41.956  -3.429  1.00  0.00     0.072 C 
HETATM   15  C8  UNL     1      35.183  41.627  -2.363  1.00  0.00    -0.004 C 
HETATM   16  C9  UNL     1      35.485  41.952  -0.974  1.00  0.00     0.048 C 
HETATM   17  C10 UNL     1      36.962  42.112  -0.780  1.00  0.00     0.130 C 
HETATM   18  N3  UNL     1      37.417  43.049  -1.787  1.00  0.00    -0.348 N 
HETATM   19  C13 UNL     1      37.111  42.715  -3.160  1.00  0.00     0.257 C 
HETATM   20  O1  UNL     1      37.897  43.101  -4.042  1.00  0.00    -0.267 OA
BRANCH  18  21
HETATM   21  C11 UNL     1      38.133  44.265  -1.476  1.00  0.00     0.121 C 
HETATM   22  C12 UNL     1      37.285  45.236  -0.725  1.00  0.00     0.026 C 
ENDBRANCH  18  21
ENDBRANCH   4  14
BRANCH   1  23
HETATM   23  N1  UNL     1      35.606  39.013  -7.199  1.00  0.00    -0.375 N 
ATOM     24  H1  UNL     1      36.133  39.115  -8.066  1.00  0.00     0.161 HD
BRANCH  23  25
HETATM   25  C4  UNL     1      35.329  37.670  -6.867  1.00  0.00     0.121 C 
BRANCH  25  26
HETATM   26  C3  UNL     1      34.109  37.191  -7.600  1.00  0.00     0.019 C 
BRANCH  26  27
HETATM   27  C2  UNL     1      32.833  37.535  -6.887  1.00  0.00    -0.003 C 
HETATM   28  C1  UNL     1      31.651  37.545  -7.833  1.00  0.00     0.005 C 
ENDBRANCH  26  27
ENDBRANCH  25  26
ENDBRANCH  23  25
ENDBRANCH   1  23
BRANCH  10  29
HETATM   29  C16 UNL     1      32.576  42.697  -9.901  1.00  0.00     0.269 C 
HETATM   30  O2  UNL     1      31.666  42.028 -10.439  1.00  0.00    -0.266 OA
HETATM   31  N6  UNL     1      32.869  43.979 -10.434  1.00  0.00    -0.351 N 
ATOM     32  H6  UNL     1      33.603  44.554 -10.020  1.00  0.00     0.163 HD
BRANCH  31  33
HETATM   33  C17 UNL     1      32.116  44.461 -11.571  1.00  0.00     0.085 A 
HETATM   34  C18 UNL     1      32.857  44.789 -12.790  1.00  0.00     0.027 A 
HETATM   35  C19 UNL     1      32.246  45.889 -11.981  1.00  0.00     0.027 A 
ENDBRANCH  31  33
ENDBRANCH  10  29
TORSDOF 8
ENDMDL
MODEL 4
REMARK VINA RESULT: -8.234678644      1.026      1.515
REMARK  8 active torsions:
REMARK  status: ('A' for Active; 'I' for Inactive)
REMARK    1  A    between atoms: C2_2  and  C3_3 
REMARK    2  A    between atoms: C3_3  and  C4_4 
REMARK    3  A    between atoms: C4_4  and  N1_5 
REMARK    4  A    between atoms: N1_5  and  C5_7 
REMARK    5  A    between atoms: C6_10  and  C7_11 
REMARK    6  A    between atoms: N3_15  and  C11_16 
REMARK    7  A    between atoms: C15_25  and  C16_26 
REMARK       I    between atoms: C16_26  and  N6_28 
REMARK    8  A    between atoms: N6_28  and  C17_30 
ROOT
HETATM    1  C5  UNL     1      35.859  40.138  -5.801  1.00  0.00     0.117 A 
HETATM    2  N2  UNL     1      36.194  40.554  -4.535  1.00  0.00    -0.327 N 
ATOM      3  H2  UNL     1      36.768  39.939  -3.959  1.00  0.00     0.169 HD
HETATM    4  C6  UNL     1      35.807  41.718  -4.022  1.00  0.00     0.123 A 
HETATM    5  N4  UNL     1      35.042  42.489  -4.847  1.00  0.00    -0.327 N 
ATOM      6  H4  UNL     1      34.723  43.391  -4.494  1.00  0.00     0.169 HD
HETATM    7  C14 UNL     1      34.682  42.144  -6.086  1.00  0.00     0.122 A 
HETATM    8  N5  UNL     1      33.952  42.734  -7.049  1.00  0.00    -0.337 N 
ATOM      9  H5  UNL     1      33.511  43.649  -6.958  1.00  0.00     0.167 HD
HETATM   10  C15 UNL     1      33.880  41.964  -8.147  1.00  0.00     0.109 A 
HETATM   11  C20 UNL     1      34.593  40.799  -7.914  1.00  0.00    -0.012 A 
HETATM   12  C21 UNL     1      34.795  39.671  -8.830  1.00  0.00     0.052 C 
HETATM   13  C22 UNL     1      35.085  40.943  -6.608  1.00  0.00     0.060 A 
ENDROOT
BRANCH   4  14
HETATM   14  C7  UNL     1      36.147  42.235  -2.701  1.00  0.00     0.072 C 
HETATM   15  C8  UNL     1      35.557  41.729  -1.618  1.00  0.00    -0.004 C 
HETATM   16  C9  UNL     1      35.787  42.138  -0.238  1.00  0.00     0.048 C 
HETATM   17  C10 UNL     1      37.167  42.697  -0.077  1.00  0.00     0.130 C 
HETATM   18  N3  UNL     1      37.327  43.713  -1.097  1.00  0.00    -0.348 N 
HETATM   19  C13 UNL     1      37.097  43.296  -2.461  1.00  0.00     0.257 C 
HETATM   20  O1  UNL     1      37.729  43.874  -3.362  1.00  0.00    -0.267 OA
BRANCH  18  21
HETATM   21  C11 UNL     1      37.690  45.081  -0.806  1.00  0.00     0.121 C 
HETATM   22  C12 UNL     1      38.076  45.265   0.623  1.00  0.00     0.026 C 
ENDBRANCH  18  21
ENDBRANCH   4  14
BRANCH   1  23
HETATM   23  N1  UNL     1      36.221  39.025  -6.259  1.00  0.00    -0.375 N 
ATOM     24  H1  UNL     1      35.660  38.710  -7.050  1.00  0.00     0.161 HD
BRANCH  23  25
HETATM   25  C4  UNL     1      37.245  38.121  -5.903  1.00  0.00     0.121 C 
BRANCH  25  26
HETATM   26  C3  UNL     1      37.301  36.983  -6.880  1.00  0.00     0.019 C 
BRANCH  26  27
HETATM   27  C2  UNL     1      38.622  36.271  -6.863  1.00  0.00    -0.003 C 
HETATM   28  C1  UNL     1      39.639  37.004  -6.015  1.00  0.00     0.005 C 
ENDBRANCH  26  27
ENDBRANCH  25  26
ENDBRANCH  23  25
ENDBRANCH   1  23
BRANCH  10  29
HETATM   29  C16 UNL     1      33.143  42.322  -9.375  1.00  0.00     0.269 C 
HETATM   30  O2  UNL     1      32.093  41.743  -9.731  1.00  0.00    -0.266 OA
HETATM   31  N6  UNL     1      33.642  43.367 -10.195  1.00  0.00    -0.351 N 
ATOM     32  H6  UNL     1      34.495  43.864  -9.936  1.00  0.00     0.163 HD
BRANCH  31  33
HETATM   33  C17 UNL     1      32.929  43.721 -11.403  1.00  0.00     0.085 A 
HETATM   34  C18 UNL     1      33.332  44.943 -12.100  1.00  0.00     0.027 A 
HETATM   35  C19 UNL     1      32.014  44.898 -11.393  1.00  0.00     0.027 A 
ENDBRANCH  31  33
ENDBRANCH  10  29
TORSDOF 8
ENDMDL
MODEL 5
REMARK VINA RESULT: -8.191678775      2.323      3.691
REMARK  8 active torsions:
REMARK  status: ('A' for Active; 'I' for Inactive)
REMARK    1  A    between atoms: C2_2  and  C3_3 
REMARK    2  A    between atoms: C3_3  and  C4_4 
REMARK    3  A    between atoms: C4_4  and  N1_5 
REMARK    4  A    between atoms: N1_5  and  C5_7 
REMARK    5  A    between atoms: C6_10  and  C7_11 
REMARK    6  A    between atoms: N3_15  and  C11_16 
REMARK    7  A    between atoms: C15_25  and  C16_26 
REMARK       I    between atoms: C16_26  and  N6_28 
REMARK    8  A    between atoms: N6_28  and  C17_30 
ROOT
HETATM    1  C5  UNL     1      34.473  39.113  -7.875  1.00  0.00     0.117 A 
HETATM    2  N2  UNL     1      35.181  39.375  -6.727  1.00  0.00    -0.327 N 
ATOM      3  H2  UNL     1      35.464  38.588  -6.143  1.00  0.00     0.169 HD
HETATM    4  C6  UNL     1      35.516  40.601  -6.338  1.00  0.00     0.123 A 
HETATM    5  N4  UNL     1      35.105  41.604  -7.167  1.00  0.00    -0.327 N 
ATOM      6  H4  UNL     1      35.341  42.561  -6.907  1.00  0.00     0.169 HD
HETATM    7  C14 UNL     1      34.416  41.418  -8.295  1.00  0.00     0.122 A 
HETATM    8  N5  UNL     1      33.922  42.239  -9.238  1.00  0.00    -0.337 N 
ATOM      9  H5  UNL     1      34.015  43.255  -9.224  1.00  0.00     0.167 HD
HETATM   10  C15 UNL     1      33.291  41.550 -10.203  1.00  0.00     0.109 A 
HETATM   11  C20 UNL     1      33.361  40.201  -9.897  1.00  0.00    -0.012 A 
HETATM   12  C21 UNL     1      32.818  39.074 -10.665  1.00  0.00     0.052 C 
HETATM   13  C22 UNL     1      34.075  40.150  -8.690  1.00  0.00     0.060 A 
ENDROOT
BRANCH   4  14
HETATM   14  C7  UNL     1      36.287  40.950  -5.150  1.00  0.00     0.072 C 
HETATM   15  C8  UNL     1      37.064  40.036  -4.570  1.00  0.00    -0.004 C 
HETATM   16  C9  UNL     1      37.890  40.229  -3.385  1.00  0.00     0.048 C 
HETATM   17  C10 UNL     1      38.294  41.665  -3.252  1.00  0.00     0.130 C 
HETATM   18  N3  UNL     1      37.080  42.450  -3.341  1.00  0.00    -0.348 N 
HETATM   19  C13 UNL     1      36.270  42.250  -4.521  1.00  0.00     0.257 C 
HETATM   20  O1  UNL     1      35.598  43.210  -4.935  1.00  0.00    -0.267 OA
BRANCH  18  21
HETATM   21  C11 UNL     1      36.663  43.388  -2.323  1.00  0.00     0.121 C 
HETATM   22  C12 UNL     1      36.028  42.703  -1.160  1.00  0.00     0.026 C 
ENDBRANCH  18  21
ENDBRANCH   4  14
BRANCH   1  23
HETATM   23  N1  UNL     1      34.152  37.947  -8.214  1.00  0.00    -0.375 N 
ATOM     24  H1  UNL     1      34.448  37.702  -9.158  1.00  0.00     0.161 HD
BRANCH  23  25
HETATM   25  C4  UNL     1      33.464  36.905  -7.555  1.00  0.00     0.121 C 
BRANCH  25  26
HETATM   26  C3  UNL     1      32.078  37.347  -7.182  1.00  0.00     0.019 C 
BRANCH  26  27
HETATM   27  C2  UNL     1      31.103  37.209  -8.314  1.00  0.00    -0.003 C 
HETATM   28  C1  UNL     1      29.891  36.397  -7.909  1.00  0.00     0.005 C 
ENDBRANCH  26  27
ENDBRANCH  25  26
ENDBRANCH  23  25
ENDBRANCH   1  23
BRANCH  10  29
HETATM   29  C16 UNL     1      32.631  42.160 -11.375  1.00  0.00     0.269 C 
HETATM   30  O2  UNL     1      31.542  41.747 -11.832  1.00  0.00    -0.266 OA
HETATM   31  N6  UNL     1      33.253  43.262 -12.017  1.00  0.00    -0.351 N 
ATOM     32  H6  UNL     1      34.140  43.627 -11.670  1.00  0.00     0.163 HD
BRANCH  31  33
HETATM   33  C17 UNL     1      32.615  43.862 -13.168  1.00  0.00     0.085 A 
HETATM   34  C18 UNL     1      33.040  45.207 -13.558  1.00  0.00     0.027 A 
HETATM   35  C19 UNL     1      31.679  45.005 -12.971  1.00  0.00     0.027 A 
ENDBRANCH  31  33
ENDBRANCH  10  29
TORSDOF 8
ENDMDL
