MODEL 1
REMARK VINA RESULT: -8.577498152      0.000      0.000
REMARK  8 active torsions:
REMARK  status: ('A' for Active; 'I' for Inactive)
REMARK    1  A    between atoms: C3_5  and  N2_6 
REMARK    2  A    between atoms: C4_8  and  C5_9 
REMARK    3  A    between atoms: C5_9  and  C6_10 
REMARK    4  A    between atoms: C9_15  and  N4_16 
REMARK    5  A    between atoms: N4_16  and  C10_18 
REMARK    6  A    between atoms: C10_18  and  C11_19 
REMARK    7  A    between atoms: C14_22  and  N5_23 
REMARK    8  A    between atoms: C22_31  and  C23_32 
ROOT
HETATM    1  C1  UNL     1      33.958  42.341  -6.961  1.00  0.00     0.070 C 
HETATM    2  C2  UNL     1      34.901  42.002  -5.886  1.00  0.00     0.042 A 
HETATM    3  N1  UNL     1      35.166  42.855  -4.914  1.00  0.00    -0.195 N 
ATOM      4  H1  UNL     1      34.706  43.765  -4.917  1.00  0.00     0.184 HD
HETATM    5  C3  UNL     1      36.030  42.560  -3.913  1.00  0.00     0.683 A 
HETATM    6  N3  UNL     1      36.637  41.353  -3.914  1.00  0.00    -0.176 N 
ATOM      7  H3  UNL     1      37.290  41.117  -3.168  1.00  0.00     0.186 HD
HETATM    8  C9  UNL     1      36.385  40.448  -4.901  1.00  0.00     0.134 A 
HETATM    9  C22 UNL     1      35.514  40.741  -5.913  1.00  0.00     0.096 A 
ENDROOT
BRANCH   8  10
HETATM   10  N4  UNL     1      36.994  39.365  -4.812  1.00  0.00    -0.375 N 
ATOM     11  H4  UNL     1      36.340  38.609  -4.613  1.00  0.00     0.161 HD
BRANCH  10  12
HETATM   12  C10 UNL     1      38.261  38.879  -4.899  1.00  0.00     0.126 C 
BRANCH  12  13
HETATM   13  C11 UNL     1      38.957  38.878  -3.489  1.00  0.00     0.003 C 
HETATM   14  C12 UNL     1      38.200  37.836  -2.707  1.00  0.00     0.008 C 
HETATM   15  C13 UNL     1      39.042  37.452  -1.505  1.00  0.00     0.036 C 
HETATM   16  C14 UNL     1      40.325  36.775  -2.018  1.00  0.00     0.223 C 
HETATM   17  C20 UNL     1      41.138  37.867  -2.688  1.00  0.00     0.036 C 
HETATM   18  C21 UNL     1      40.379  38.521  -3.800  1.00  0.00     0.008 C 
BRANCH  16  19
HETATM   19  N5  UNL     1      41.014  36.224  -0.900  1.00  0.00     0.093 N 
HETATM   20  C15 UNL     1      42.285  35.646  -1.219  1.00  0.00     0.273 C 
HETATM   21  C16 UNL     1      43.053  35.311   0.018  1.00  0.00     0.030 C 
HETATM   22  C17 UNL     1      42.277  34.490   1.023  1.00  0.00     0.003 C 
HETATM   23  C18 UNL     1      40.856  35.005   1.155  1.00  0.00     0.030 C 
HETATM   24  C19 UNL     1      40.223  35.260  -0.171  1.00  0.00     0.273 C 
ENDBRANCH  16  19
ENDBRANCH  12  13
ENDBRANCH  10  12
ENDBRANCH   8  10
BRANCH   9  25
HETATM   25  C23 UNL     1      35.218  39.853  -7.008  1.00  0.00     0.270 C 
HETATM   26  N6  UNL     1      34.494  38.625  -6.871  1.00  0.00    -0.057 NA
HETATM   27  O1  UNL     1      35.603  40.137  -8.171  1.00  0.00    -0.271 OA
ENDBRANCH   9  25
BRANCH   5  28
HETATM   28  N2  UNL     1      36.266  43.356  -3.022  1.00  0.00    -0.205 N 
HETATM   29  C4  UNL     1      36.857  43.803  -1.899  1.00  0.00     0.079 C 
ATOM     30  H2  UNL     1      35.668  44.143  -3.274  1.00  0.00     0.183 HD
BRANCH  29  31
HETATM   31  C5  UNL     1      37.489  42.873  -0.914  1.00  0.00     0.049 C 
BRANCH  31  32
HETATM   32  C6  UNL     1      36.546  42.093  -0.064  1.00  0.00    -0.018 C 
HETATM   33  C7  UNL     1      36.968  42.105   1.386  1.00  0.00     0.010 C 
HETATM   34  C8  UNL     1      36.611  40.639  -0.509  1.00  0.00     0.010 C 
ENDBRANCH  31  32
ENDBRANCH  29  31
ENDBRANCH   5  28
TORSDOF 8
ENDMDL
MODEL 2
REMARK VINA RESULT: -8.505116618      2.220      2.925
REMARK  8 active torsions:
REMARK  status: ('A' for Active; 'I' for Inactive)
REMARK    1  A    between atoms: C3_5  and  N2_6 
REMARK    2  A    between atoms: C4_8  and  C5_9 
REMARK    3  A    between atoms: C5_9  and  C6_10 
REMARK    4  A    between atoms: C9_15  and  N4_16 
REMARK    5  A    between atoms: N4_16  and  C10_18 
REMARK    6  A    between atoms: C10_18  and  C11_19 
REMARK    7  A    between atoms: C14_22  and  N5_23 
REMARK    8  A    between atoms: C22_31  and  C23_32 
ROOT
HETATM    1  C1  UNL     1      33.922  42.178  -6.940  1.00  0.00     0.070 C 
HETATM    2  C2  UNL     1      34.906  41.892  -5.887  1.00  0.00     0.042 A 
HETATM    3  N1  UNL     1      35.163  42.767  -4.934  1.00  0.00    -0.195 N 
ATOM      4  H1  UNL     1      34.668  43.659  -4.936  1.00  0.00     0.184 HD
HETATM    5  C3  UNL     1      36.064  42.520  -3.953  1.00  0.00     0.683 A 
HETATM    6  N3  UNL     1      36.717  41.337  -3.955  1.00  0.00    -0.176 N 
ATOM      7  H3  UNL     1      37.400  41.137  -3.224  1.00  0.00     0.186 HD
HETATM    8  C9  UNL     1      36.475  40.410  -4.923  1.00  0.00     0.134 A 
HETATM    9  C22 UNL     1      35.566  40.655  -5.915  1.00  0.00     0.096 A 
ENDROOT
BRANCH   8  10
HETATM   10  N4  UNL     1      37.128  39.353  -4.837  1.00  0.00    -0.375 N 
ATOM     11  H4  UNL     1      36.971  38.774  -5.662  1.00  0.00     0.161 HD
BRANCH  10  12
HETATM   12  C10 UNL     1      37.984  38.731  -3.984  1.00  0.00     0.126 C 
BRANCH  12  13
HETATM   13  C11 UNL     1      39.459  38.790  -4.530  1.00  0.00     0.003 C 
HETATM   14  C12 UNL     1      40.312  38.688  -3.291  1.00  0.00     0.008 C 
HETATM   15  C13 UNL     1      41.715  38.308  -3.723  1.00  0.00     0.036 C 
HETATM   16  C14 UNL     1      41.660  36.899  -4.338  1.00  0.00     0.223 C 
HETATM   17  C20 UNL     1      40.911  37.042  -5.651  1.00  0.00     0.036 C 
HETATM   18  C21 UNL     1      39.540  37.609  -5.449  1.00  0.00     0.008 C 
BRANCH  16  19
HETATM   19  N5  UNL     1      42.996  36.452  -4.548  1.00  0.00     0.093 N 
HETATM   20  C15 UNL     1      43.942  36.965  -3.603  1.00  0.00     0.273 C 
HETATM   21  C16 UNL     1      45.260  36.274  -3.729  1.00  0.00     0.030 C 
HETATM   22  C17 UNL     1      45.807  36.240  -5.138  1.00  0.00     0.003 C 
HETATM   23  C18 UNL     1      44.709  35.916  -6.133  1.00  0.00     0.030 C 
HETATM   24  C19 UNL     1      43.472  36.712  -5.887  1.00  0.00     0.273 C 
ENDBRANCH  16  19
ENDBRANCH  12  13
ENDBRANCH  10  12
ENDBRANCH   8  10
BRANCH   9  25
HETATM   25  C23 UNL     1      35.276  39.741  -6.990  1.00  0.00     0.270 C 
HETATM   26  N6  UNL     1      34.528  38.530  -6.832  1.00  0.00    -0.057 NA
HETATM   27  O1  UNL     1      35.689  39.985  -8.152  1.00  0.00    -0.271 OA
ENDBRANCH   9  25
BRANCH   5  28
HETATM   28  N2  UNL     1      36.293  43.337  -3.079  1.00  0.00    -0.205 N 
HETATM   29  C4  UNL     1      36.873  43.810  -1.962  1.00  0.00     0.079 C 
ATOM     30  H2  UNL     1      35.698  44.118  -3.355  1.00  0.00     0.183 HD
BRANCH  29  31
HETATM   31  C5  UNL     1      37.496  42.903  -0.949  1.00  0.00     0.049 C 
BRANCH  31  32
HETATM   32  C6  UNL     1      36.545  42.151  -0.083  1.00  0.00    -0.018 C 
HETATM   33  C7  UNL     1      36.985  42.160   1.362  1.00  0.00     0.010 C 
HETATM   34  C8  UNL     1      36.569  40.694  -0.522  1.00  0.00     0.010 C 
ENDBRANCH  31  32
ENDBRANCH  29  31
ENDBRANCH   5  28
TORSDOF 8
ENDMDL
MODEL 3
REMARK VINA RESULT: -8.478142556      3.052      9.083
REMARK  8 active torsions:
REMARK  status: ('A' for Active; 'I' for Inactive)
REMARK    1  A    between atoms: C3_5  and  N2_6 
REMARK    2  A    between atoms: C4_8  and  C5_9 
REMARK    3  A    between atoms: C5_9  and  C6_10 
REMARK    4  A    between atoms: C9_15  and  N4_16 
REMARK    5  A    between atoms: N4_16  and  C10_18 
REMARK    6  A    between atoms: C10_18  and  C11_19 
REMARK    7  A    between atoms: C14_22  and  N5_23 
REMARK    8  A    between atoms: C22_31  and  C23_32 
ROOT
HETATM    1  C1  UNL     1      39.897  38.974  -3.397  1.00  0.00     0.070 C 
HETATM    2  C2  UNL     1      38.694  39.705  -3.818  1.00  0.00     0.042 A 
HETATM    3  N1  UNL     1      38.430  40.913  -3.356  1.00  0.00    -0.195 N 
ATOM      4  H1  UNL     1      39.076  41.339  -2.692  1.00  0.00     0.184 HD
HETATM    5  C3  UNL     1      37.328  41.604  -3.735  1.00  0.00     0.683 A 
HETATM    6  N3  UNL     1      36.476  41.033  -4.614  1.00  0.00    -0.176 N 
ATOM      7  H3  UNL     1      35.641  41.540  -4.907  1.00  0.00     0.186 HD
HETATM    8  C9  UNL     1      36.718  39.789  -5.112  1.00  0.00     0.134 A 
HETATM    9  C22 UNL     1      37.829  39.088  -4.733  1.00  0.00     0.096 A 
ENDROOT
BRANCH   8  10
HETATM   10  N4  UNL     1      35.873  39.352  -5.916  1.00  0.00    -0.375 N 
ATOM     11  H4  UNL     1      36.180  38.458  -6.298  1.00  0.00     0.161 HD
BRANCH  10  12
HETATM   12  C10 UNL     1      34.667  39.697  -6.441  1.00  0.00     0.126 C 
BRANCH  12  13
HETATM   13  C11 UNL     1      34.846  40.405  -7.834  1.00  0.00     0.003 C 
HETATM   14  C12 UNL     1      33.889  39.676  -8.741  1.00  0.00     0.008 C 
HETATM   15  C13 UNL     1      33.667  40.535  -9.971  1.00  0.00     0.036 C 
HETATM   16  C14 UNL     1      32.958  41.827  -9.528  1.00  0.00     0.223 C 
HETATM   17  C20 UNL     1      33.979  42.613  -8.725  1.00  0.00     0.036 C 
HETATM   18  C21 UNL     1      34.482  41.832  -7.552  1.00  0.00     0.008 C 
BRANCH  16  19
HETATM   19  N5  UNL     1      32.556  42.537 -10.696  1.00  0.00     0.093 N 
HETATM   20  C15 UNL     1      32.877  41.877 -11.924  1.00  0.00     0.273 C 
HETATM   21  C16 UNL     1      32.220  42.547 -13.087  1.00  0.00     0.030 C 
HETATM   22  C17 UNL     1      32.453  44.039 -13.152  1.00  0.00     0.003 C 
HETATM   23  C18 UNL     1      32.327  44.663 -11.775  1.00  0.00     0.030 C 
HETATM   24  C19 UNL     1      33.065  43.888 -10.735  1.00  0.00     0.273 C 
ENDBRANCH  16  19
ENDBRANCH  12  13
ENDBRANCH  10  12
ENDBRANCH   8  10
BRANCH   9  25
HETATM   25  C23 UNL     1      38.141  37.757  -5.189  1.00  0.00     0.270 C 
HETATM   26  N6  UNL     1      38.799  37.469  -6.428  1.00  0.00    -0.057 NA
HETATM   27  O1  UNL     1      37.831  36.763  -4.486  1.00  0.00    -0.271 OA
ENDBRANCH   9  25
BRANCH   5  28
HETATM   28  N2  UNL     1      37.095  42.718  -3.300  1.00  0.00    -0.205 N 
HETATM   29  C4  UNL     1      37.089  43.701  -2.383  1.00  0.00     0.079 C 
ATOM     30  H2  UNL     1      36.639  43.165  -4.095  1.00  0.00     0.183 HD
BRANCH  29  31
HETATM   31  C5  UNL     1      37.251  43.423  -0.923  1.00  0.00     0.049 C 
BRANCH  31  32
HETATM   32  C6  UNL     1      36.691  42.126  -0.446  1.00  0.00    -0.018 C 
HETATM   33  C7  UNL     1      35.205  42.037  -0.702  1.00  0.00     0.010 C 
HETATM   34  C8  UNL     1      36.863  42.073   1.064  1.00  0.00     0.010 C 
ENDBRANCH  31  32
ENDBRANCH  29  31
ENDBRANCH   5  28
TORSDOF 8
ENDMDL
MODEL 4
REMARK VINA RESULT: -8.350661118      0.753      1.131
REMARK  8 active torsions:
REMARK  status: ('A' for Active; 'I' for Inactive)
REMARK    1  A    between atoms: C3_5  and  N2_6 
REMARK    2  A    between atoms: C4_8  and  C5_9 
REMARK    3  A    between atoms: C5_9  and  C6_10 
REMARK    4  A    between atoms: C9_15  and  N4_16 
REMARK    5  A    between atoms: N4_16  and  C10_18 
REMARK    6  A    between atoms: C10_18  and  C11_19 
REMARK    7  A    between atoms: C14_22  and  N5_23 
REMARK    8  A    between atoms: C22_31  and  C23_32 
ROOT
HETATM    1  C1  UNL     1      33.923  42.199  -6.932  1.00  0.00     0.070 C 
HETATM    2  C2  UNL     1      34.890  41.918  -5.861  1.00  0.00     0.042 A 
HETATM    3  N1  UNL     1      35.119  42.792  -4.899  1.00  0.00    -0.195 N 
ATOM      4  H1  UNL     1      34.614  43.678  -4.907  1.00  0.00     0.184 HD
HETATM    5  C3  UNL     1      36.003  42.550  -3.902  1.00  0.00     0.683 A 
HETATM    6  N3  UNL     1      36.669  41.374  -3.897  1.00  0.00    -0.176 N 
ATOM      7  H3  UNL     1      37.339  41.178  -3.154  1.00  0.00     0.186 HD
HETATM    8  C9  UNL     1      36.456  40.449  -4.873  1.00  0.00     0.134 A 
HETATM    9  C22 UNL     1      35.564  40.689  -5.881  1.00  0.00     0.096 A 
ENDROOT
BRANCH   8  10
HETATM   10  N4  UNL     1      37.119  39.398  -4.779  1.00  0.00    -0.375 N 
ATOM     11  H4  UNL     1      36.549  38.597  -5.049  1.00  0.00     0.161 HD
BRANCH  10  12
HETATM   12  C10 UNL     1      38.367  38.989  -4.429  1.00  0.00     0.126 C 
BRANCH  12  13
HETATM   13  C11 UNL     1      38.305  37.654  -3.598  1.00  0.00     0.003 C 
HETATM   14  C12 UNL     1      39.610  36.968  -3.910  1.00  0.00     0.008 C 
HETATM   15  C13 UNL     1      39.841  35.905  -2.854  1.00  0.00     0.036 C 
HETATM   16  C14 UNL     1      40.025  36.611  -1.499  1.00  0.00     0.223 C 
HETATM   17  C20 UNL     1      38.668  37.184  -1.135  1.00  0.00     0.036 C 
HETATM   18  C21 UNL     1      38.165  38.127  -2.183  1.00  0.00     0.008 C 
BRANCH  16  19
HETATM   19  N5  UNL     1      40.453  35.642  -0.547  1.00  0.00     0.093 N 
HETATM   20  C15 UNL     1      41.873  35.483  -0.467  1.00  0.00     0.273 C 
HETATM   21  C16 UNL     1      42.259  34.641   0.706  1.00  0.00     0.030 C 
HETATM   22  C17 UNL     1      41.522  33.324   0.789  1.00  0.00     0.003 C 
HETATM   23  C18 UNL     1      40.051  33.510   0.468  1.00  0.00     0.030 C 
HETATM   24  C19 UNL     1      39.840  34.349  -0.747  1.00  0.00     0.273 C 
ENDBRANCH  16  19
ENDBRANCH  12  13
ENDBRANCH  10  12
ENDBRANCH   8  10
BRANCH   9  25
HETATM   25  C23 UNL     1      35.305  39.776  -6.966  1.00  0.00     0.270 C 
HETATM   26  N6  UNL     1      34.614  38.531  -6.818  1.00  0.00    -0.057 NA
HETATM   27  O1  UNL     1      35.695  40.054  -8.128  1.00  0.00    -0.271 OA
ENDBRANCH   9  25
BRANCH   5  28
HETATM   28  N2  UNL     1      36.207  43.365  -3.020  1.00  0.00    -0.205 N 
HETATM   29  C4  UNL     1      36.790  43.856  -1.912  1.00  0.00     0.079 C 
ATOM     30  H2  UNL     1      35.553  44.110  -3.263  1.00  0.00     0.183 HD
BRANCH  29  31
HETATM   31  C5  UNL     1      37.503  42.975  -0.937  1.00  0.00     0.049 C 
BRANCH  31  32
HETATM   32  C6  UNL     1      36.636  42.261   0.043  1.00  0.00    -0.018 C 
HETATM   33  C7  UNL     1      37.253  42.251   1.422  1.00  0.00     0.010 C 
HETATM   34  C8  UNL     1      36.546  40.806  -0.389  1.00  0.00     0.010 C 
ENDBRANCH  31  32
ENDBRANCH  29  31
ENDBRANCH   5  28
TORSDOF 8
ENDMDL
MODEL 5
REMARK VINA RESULT: -8.314819685      1.955      2.666
REMARK  8 active torsions:
REMARK  status: ('A' for Active; 'I' for Inactive)
REMARK    1  A    between atoms: C3_5  and  N2_6 
REMARK    2  A    between atoms: C4_8  and  C5_9 
REMARK    3  A    between atoms: C5_9  and  C6_10 
REMARK    4  A    between atoms: C9_15  and  N4_16 
REMARK    5  A    between atoms: N4_16  and  C10_18 
REMARK    6  A    between atoms: C10_18  and  C11_19 
REMARK    7  A    between atoms: C14_22  and  N5_23 
REMARK    8  A    between atoms: C22_31  and  C23_32 
ROOT
HETATM    1  C1  UNL     1      33.963  42.144  -6.997  1.00  0.00     0.070 C 
HETATM    2  C2  UNL     1      34.905  41.871  -5.903  1.00  0.00     0.042 A 
HETATM    3  N1  UNL     1      35.135  42.764  -4.959  1.00  0.00    -0.195 N 
ATOM      4  H1  UNL     1      34.649  43.660  -4.998  1.00  0.00     0.184 HD
HETATM    5  C3  UNL     1      35.997  42.530  -3.941  1.00  0.00     0.683 A 
HETATM    6  N3  UNL     1      36.639  41.342  -3.895  1.00  0.00    -0.176 N 
ATOM      7  H3  UNL     1      37.292  41.151  -3.135  1.00  0.00     0.186 HD
HETATM    8  C9  UNL     1      36.423  40.396  -4.851  1.00  0.00     0.134 A 
HETATM    9  C22 UNL     1      35.554  40.628  -5.880  1.00  0.00     0.096 A 
ENDROOT
BRANCH   8  10
HETATM   10  N4  UNL     1      37.063  39.336  -4.719  1.00  0.00    -0.375 N 
ATOM     11  H4  UNL     1      37.086  39.058  -3.738  1.00  0.00     0.161 HD
BRANCH  10  12
HETATM   12  C10 UNL     1      37.740  38.433  -5.477  1.00  0.00     0.126 C 
BRANCH  12  13
HETATM   13  C11 UNL     1      38.868  37.729  -4.636  1.00  0.00     0.003 C 
HETATM   14  C12 UNL     1      39.902  37.341  -5.662  1.00  0.00     0.008 C 
HETATM   15  C13 UNL     1      41.197  37.050  -4.929  1.00  0.00     0.036 C 
HETATM   16  C14 UNL     1      41.684  38.360  -4.283  1.00  0.00     0.223 C 
HETATM   17  C20 UNL     1      40.705  38.666  -3.164  1.00  0.00     0.036 C 
HETATM   18  C21 UNL     1      39.303  38.792  -3.674  1.00  0.00     0.008 C 
BRANCH  16  19
HETATM   19  N5  UNL     1      42.999  38.144  -3.779  1.00  0.00     0.093 N 
HETATM   20  C15 UNL     1      43.040  37.657  -2.434  1.00  0.00     0.273 C 
HETATM   21  C16 UNL     1      44.420  37.226  -2.056  1.00  0.00     0.030 C 
HETATM   22  C17 UNL     1      45.487  38.261  -2.332  1.00  0.00     0.003 C 
HETATM   23  C18 UNL     1      45.264  38.916  -3.682  1.00  0.00     0.030 C 
HETATM   24  C19 UNL     1      43.841  39.313  -3.887  1.00  0.00     0.273 C 
ENDBRANCH  16  19
ENDBRANCH  12  13
ENDBRANCH  10  12
ENDBRANCH   8  10
BRANCH   9  25
HETATM   25  C23 UNL     1      35.296  39.694  -6.946  1.00  0.00     0.270 C 
HETATM   26  N6  UNL     1      34.512  38.505  -6.797  1.00  0.00    -0.057 NA
HETATM   27  O1  UNL     1      35.770  39.899  -8.092  1.00  0.00    -0.271 OA
ENDBRANCH   9  25
BRANCH   5  28
HETATM   28  N2  UNL     1      36.202  43.363  -3.076  1.00  0.00    -0.205 N 
HETATM   29  C4  UNL     1      36.784  43.875  -1.978  1.00  0.00     0.079 C 
ATOM     30  H2  UNL     1      35.553  44.106  -3.338  1.00  0.00     0.183 HD
BRANCH  29  31
HETATM   31  C5  UNL     1      37.489  43.012  -0.981  1.00  0.00     0.049 C 
BRANCH  31  32
HETATM   32  C6  UNL     1      36.612  42.298  -0.010  1.00  0.00    -0.018 C 
HETATM   33  C7  UNL     1      37.227  42.262   1.369  1.00  0.00     0.010 C 
HETATM   34  C8  UNL     1      36.502  40.849  -0.461  1.00  0.00     0.010 C 
ENDBRANCH  31  32
ENDBRANCH  29  31
ENDBRANCH   5  28
TORSDOF 8
ENDMDL
