MODEL 1
REMARK VINA RESULT: -7.291267666      0.000      0.000
REMARK  8 active torsions:
REMARK  status: ('A' for Active; 'I' for Inactive)
REMARK    1  A    between atoms: C2_2  and  C3_3 
REMARK    2  A    between atoms: C4_4  and  C5_5 
REMARK       I    between atoms: C5_5  and  N1_7 
REMARK    3  A    between atoms: N1_7  and  C6_9 
REMARK    4  A    between atoms: C6_9  and  C9_12 
REMARK    5  A    between atoms: C10_13  and  S1_14 
REMARK    6  A    between atoms: C15_23  and  C16_24 
REMARK    7  A    between atoms: C17_25  and  C18_26 
REMARK    8  A    between atoms: C21_29  and  N3_30 
ROOT
HETATM    1  C3  UNL     1      34.949  40.270  -7.014  1.00  0.00    -0.021 A 
HETATM    2  C4  UNL     1      33.986  41.022  -7.625  1.00  0.00     0.055 A 
HETATM    3  C12 UNL     1      33.739  42.293  -7.083  1.00  0.00     0.105 A 
HETATM    4  N2  UNL     1      34.414  42.757  -6.015  1.00  0.00    -0.367 N 
ATOM      5  H2  UNL     1      34.212  43.685  -5.644  1.00  0.00     0.165 HD
HETATM    6  C13 UNL     1      35.363  41.981  -5.435  1.00  0.00     0.024 A 
HETATM    7  C14 UNL     1      36.106  42.494  -4.248  1.00  0.00     0.070 C 
HETATM    8  C15 UNL     1      35.673  40.712  -5.900  1.00  0.00     0.047 A 
ENDROOT
BRANCH   2   9
HETATM    9  C5  UNL     1      33.256  40.573  -8.797  1.00  0.00     0.254 C 
HETATM   10  O1  UNL     1      32.495  39.579  -8.682  1.00  0.00    -0.268 OA
HETATM   11  N1  UNL     1      33.382  41.222 -10.025  1.00  0.00    -0.345 N 
ATOM     12  H1  UNL     1      33.986  42.039 -10.114  1.00  0.00     0.163 HD
BRANCH  11  13
HETATM   13  C6  UNL     1      32.629  40.714 -11.202  1.00  0.00     0.044 C 
HETATM   14  C7  UNL     1      31.182  40.695 -10.696  1.00  0.00     0.042 C 
HETATM   15  C8  UNL     1      33.074  39.339 -11.513  1.00  0.00     0.042 C 
BRANCH  13  16
HETATM   16  C9  UNL     1      32.816  41.661 -12.323  1.00  0.00     0.015 C 
HETATM   17  C10 UNL     1      32.253  42.991 -12.379  1.00  0.00     0.107 C 
BRANCH  17  18
HETATM   18  S1  UNL     1      32.627  44.196 -11.179  1.00  0.00     0.161 S 
HETATM   19  C11 UNL     1      32.181  45.841 -11.846  1.00  0.00     0.166 C 
HETATM   20  O2  UNL     1      34.087  44.221 -10.852  1.00  0.00    -0.224 OA
HETATM   21  O3  UNL     1      31.815  44.095  -9.918  1.00  0.00    -0.224 OA
ENDBRANCH  17  18
ENDBRANCH  13  16
ENDBRANCH  11  13
ENDBRANCH   2   9
BRANCH   1  22
HETATM   22  C2  UNL     1      35.249  38.896  -7.482  1.00  0.00     0.037 C 
HETATM   23  C1  UNL     1      35.956  38.947  -8.843  1.00  0.00     0.010 C 
ENDBRANCH   1  22
BRANCH   8  24
HETATM   24  C16 UNL     1      36.655  39.906  -5.235  1.00  0.00    -0.059 C 
HETATM   25  C17 UNL     1      37.499  39.262  -4.661  1.00  0.00    -0.060 C 
BRANCH  25  26
HETATM   26  C18 UNL     1      38.523  38.532  -3.965  1.00  0.00     0.033 A 
HETATM   27  C19 UNL     1      38.330  38.199  -2.642  1.00  0.00     0.026 A 
HETATM   28  C20 UNL     1      39.315  37.509  -1.933  1.00  0.00     0.049 A 
HETATM   29  C21 UNL     1      40.492  37.162  -2.584  1.00  0.00     0.098 A 
HETATM   30  N4  UNL     1      40.668  37.489  -3.866  1.00  0.00    -0.351 N 
HETATM   31  C22 UNL     1      39.706  38.164  -4.556  1.00  0.00     0.110 A 
ATOM     32  H4  UNL     1      41.535  37.231  -4.335  1.00  0.00     0.166 HD
BRANCH  29  33
HETATM   33  N3  UNL     1      41.390  36.531  -1.919  1.00  0.00    -0.385 N 
ATOM     34  H32 UNL     1      41.227  36.217  -0.962  1.00  0.00     0.157 HD
ATOM     35  H31 UNL     1      42.283  36.342  -2.373  1.00  0.00     0.157 HD
ENDBRANCH  29  33
ENDBRANCH  25  26
ENDBRANCH   8  24
TORSDOF 8
ENDMDL
MODEL 2
REMARK VINA RESULT: -7.273737117      4.161      9.259
REMARK  8 active torsions:
REMARK  status: ('A' for Active; 'I' for Inactive)
REMARK    1  A    between atoms: C2_2  and  C3_3 
REMARK    2  A    between atoms: C4_4  and  C5_5 
REMARK       I    between atoms: C5_5  and  N1_7 
REMARK    3  A    between atoms: N1_7  and  C6_9 
REMARK    4  A    between atoms: C6_9  and  C9_12 
REMARK    5  A    between atoms: C10_13  and  S1_14 
REMARK    6  A    between atoms: C15_23  and  C16_24 
REMARK    7  A    between atoms: C17_25  and  C18_26 
REMARK    8  A    between atoms: C21_29  and  N3_30 
ROOT
HETATM    1  C3  UNL     1      34.851  39.148  -8.266  1.00  0.00    -0.021 A 
HETATM    2  C4  UNL     1      35.539  38.402  -7.351  1.00  0.00     0.055 A 
HETATM    3  C12 UNL     1      35.907  39.046  -6.160  1.00  0.00     0.105 A 
HETATM    4  N2  UNL     1      35.602  40.336  -5.923  1.00  0.00    -0.367 N 
ATOM      5  H2  UNL     1      35.884  40.777  -5.047  1.00  0.00     0.165 HD
HETATM    6  C13 UNL     1      34.919  41.045  -6.855  1.00  0.00     0.024 A 
HETATM    7  C14 UNL     1      34.587  42.475  -6.593  1.00  0.00     0.070 C 
HETATM    8  C15 UNL     1      34.515  40.492  -8.061  1.00  0.00     0.047 A 
ENDROOT
BRANCH   2   9
HETATM    9  C5  UNL     1      35.861  37.001  -7.554  1.00  0.00     0.254 C 
HETATM   10  O1  UNL     1      35.045  36.135  -7.148  1.00  0.00    -0.268 OA
HETATM   11  N1  UNL     1      37.041  36.612  -8.187  1.00  0.00    -0.345 N 
ATOM     12  H1  UNL     1      37.695  37.314  -8.531  1.00  0.00     0.163 HD
BRANCH  11  13
HETATM   13  C6  UNL     1      37.337  35.164  -8.356  1.00  0.00     0.044 C 
HETATM   14  C7  UNL     1      38.704  35.177  -9.050  1.00  0.00     0.042 C 
HETATM   15  C8  UNL     1      36.324  34.556  -9.245  1.00  0.00     0.042 C 
BRANCH  13  16
HETATM   16  C9  UNL     1      37.397  34.538  -7.017  1.00  0.00     0.015 C 
HETATM   17  C10 UNL     1      38.506  34.664  -6.099  1.00  0.00     0.107 C 
BRANCH  17  18
HETATM   18  S1  UNL     1      39.027  36.213  -5.498  1.00  0.00     0.161 S 
HETATM   19  C11 UNL     1      40.504  35.965  -4.447  1.00  0.00     0.166 C 
HETATM   20  O2  UNL     1      37.976  36.864  -4.653  1.00  0.00    -0.224 OA
HETATM   21  O3  UNL     1      39.504  37.167  -6.557  1.00  0.00    -0.224 OA
ENDBRANCH  17  18
ENDBRANCH  13  16
ENDBRANCH  11  13
ENDBRANCH   2   9
BRANCH   1  22
HETATM   22  C2  UNL     1      34.460  38.571  -9.574  1.00  0.00     0.037 C 
HETATM   23  C1  UNL     1      33.053  37.966  -9.482  1.00  0.00     0.010 C 
ENDBRANCH   1  22
BRANCH   8  24
HETATM   24  C16 UNL     1      33.830  41.285  -9.039  1.00  0.00    -0.059 C 
HETATM   25  C17 UNL     1      33.286  41.976  -9.866  1.00  0.00    -0.060 C 
BRANCH  25  26
HETATM   26  C18 UNL     1      32.675  42.827 -10.850  1.00  0.00     0.033 A 
HETATM   27  C19 UNL     1      33.094  44.135 -10.962  1.00  0.00     0.026 A 
HETATM   28  C20 UNL     1      32.506  44.992 -11.894  1.00  0.00     0.049 A 
HETATM   29  C21 UNL     1      31.491  44.503 -12.709  1.00  0.00     0.098 A 
HETATM   30  N4  UNL     1      31.094  43.234 -12.592  1.00  0.00    -0.351 N 
HETATM   31  C22 UNL     1      31.669  42.399 -11.681  1.00  0.00     0.110 A 
ATOM     32  H4  UNL     1      30.349  42.884 -13.194  1.00  0.00     0.166 HD
BRANCH  29  33
HETATM   33  N3  UNL     1      30.957  45.302 -13.557  1.00  0.00    -0.385 N 
ATOM     34  H32 UNL     1      30.856  46.299 -13.367  1.00  0.00     0.157 HD
ATOM     35  H31 UNL     1      30.634  44.917 -14.445  1.00  0.00     0.157 HD
ENDBRANCH  29  33
ENDBRANCH  25  26
ENDBRANCH   8  24
TORSDOF 8
ENDMDL
MODEL 3
REMARK VINA RESULT: -7.151862899      4.327      9.662
REMARK  8 active torsions:
REMARK  status: ('A' for Active; 'I' for Inactive)
REMARK    1  A    between atoms: C2_2  and  C3_3 
REMARK    2  A    between atoms: C4_4  and  C5_5 
REMARK       I    between atoms: C5_5  and  N1_7 
REMARK    3  A    between atoms: N1_7  and  C6_9 
REMARK    4  A    between atoms: C6_9  and  C9_12 
REMARK    5  A    between atoms: C10_13  and  S1_14 
REMARK    6  A    between atoms: C15_23  and  C16_24 
REMARK    7  A    between atoms: C17_25  and  C18_26 
REMARK    8  A    between atoms: C21_29  and  N3_30 
ROOT
HETATM    1  C3  UNL     1      35.167  40.413  -7.389  1.00  0.00    -0.021 A 
HETATM    2  C4  UNL     1      35.763  39.555  -6.508  1.00  0.00     0.055 A 
HETATM    3  C12 UNL     1      35.657  38.185  -6.791  1.00  0.00     0.105 A 
HETATM    4  N2  UNL     1      35.003  37.729  -7.875  1.00  0.00    -0.367 N 
ATOM      5  H2  UNL     1      34.944  36.726  -8.054  1.00  0.00     0.165 HD
HETATM    6  C13 UNL     1      34.425  38.610  -8.728  1.00  0.00     0.024 A 
HETATM    7  C14 UNL     1      33.696  38.102  -9.926  1.00  0.00     0.070 C 
HETATM    8  C15 UNL     1      34.476  39.981  -8.528  1.00  0.00     0.047 A 
ENDROOT
BRANCH   2   9
HETATM    9  C5  UNL     1      36.502  40.006  -5.343  1.00  0.00     0.254 C 
HETATM   10  O1  UNL     1      37.540  39.377  -5.013  1.00  0.00    -0.268 OA
HETATM   11  N1  UNL     1      36.088  41.113  -4.602  1.00  0.00    -0.345 N 
ATOM     12  H1  UNL     1      35.256  41.634  -4.880  1.00  0.00     0.163 HD
BRANCH  11  13
HETATM   13  C6  UNL     1      36.867  41.526  -3.406  1.00  0.00     0.044 C 
HETATM   14  C7  UNL     1      37.754  42.651  -3.951  1.00  0.00     0.042 C 
HETATM   15  C8  UNL     1      37.705  40.396  -2.951  1.00  0.00     0.042 C 
BRANCH  13  16
HETATM   16  C9  UNL     1      35.924  42.011  -2.375  1.00  0.00     0.015 C 
HETATM   17  C10 UNL     1      36.267  42.242  -0.990  1.00  0.00     0.107 C 
BRANCH  17  18
HETATM   18  S1  UNL     1      37.499  43.383  -0.528  1.00  0.00     0.161 S 
HETATM   19  C11 UNL     1      37.872  43.151   1.248  1.00  0.00     0.166 C 
HETATM   20  O2  UNL     1      37.046  44.796  -0.714  1.00  0.00    -0.224 OA
HETATM   21  O3  UNL     1      38.828  43.172  -1.198  1.00  0.00    -0.224 OA
ENDBRANCH  17  18
ENDBRANCH  13  16
ENDBRANCH  11  13
ENDBRANCH   2   9
BRANCH   1  22
HETATM   22  C2  UNL     1      35.182  41.876  -7.152  1.00  0.00     0.037 C 
HETATM   23  C1  UNL     1      33.789  42.353  -6.722  1.00  0.00     0.010 C 
ENDBRANCH   1  22
BRANCH   8  24
HETATM   24  C16 UNL     1      33.817  40.880  -9.430  1.00  0.00    -0.059 C 
HETATM   25  C17 UNL     1      33.284  41.667 -10.175  1.00  0.00    -0.060 C 
BRANCH  25  26
HETATM   26  C18 UNL     1      32.673  42.637 -11.041  1.00  0.00     0.033 A 
HETATM   27  C19 UNL     1      32.556  42.358 -12.386  1.00  0.00     0.026 A 
HETATM   28  C20 UNL     1      31.987  43.288 -13.257  1.00  0.00     0.049 A 
HETATM   29  C21 UNL     1      31.537  44.499 -12.745  1.00  0.00     0.098 A 
HETATM   30  N4  UNL     1      31.655  44.758 -11.442  1.00  0.00    -0.351 N 
HETATM   31  C22 UNL     1      32.212  43.850 -10.593  1.00  0.00     0.110 A 
ATOM     32  H4  UNL     1      31.322  45.650 -11.076  1.00  0.00     0.166 HD
BRANCH  29  33
HETATM   33  N3  UNL     1      31.020  45.346 -13.558  1.00  0.00    -0.385 N 
ATOM     34  H32 UNL     1      31.482  46.226 -13.784  1.00  0.00     0.157 HD
ATOM     35  H31 UNL     1      30.122  45.116 -13.986  1.00  0.00     0.157 HD
ENDBRANCH  29  33
ENDBRANCH  25  26
ENDBRANCH   8  24
TORSDOF 8
ENDMDL
MODEL 4
REMARK VINA RESULT: -6.989197172      4.572      9.341
REMARK  8 active torsions:
REMARK  status: ('A' for Active; 'I' for Inactive)
REMARK    1  A    between atoms: C2_2  and  C3_3 
REMARK    2  A    between atoms: C4_4  and  C5_5 
REMARK       I    between atoms: C5_5  and  N1_7 
REMARK    3  A    between atoms: N1_7  and  C6_9 
REMARK    4  A    between atoms: C6_9  and  C9_12 
REMARK    5  A    between atoms: C10_13  and  S1_14 
REMARK    6  A    between atoms: C15_23  and  C16_24 
REMARK    7  A    between atoms: C17_25  and  C18_26 
REMARK    8  A    between atoms: C21_29  and  N3_30 
ROOT
HETATM    1  C3  UNL     1      35.106  38.982  -8.545  1.00  0.00    -0.021 A 
HETATM    2  C4  UNL     1      35.787  38.151  -7.701  1.00  0.00     0.055 A 
HETATM    3  C12 UNL     1      36.027  38.627  -6.403  1.00  0.00     0.105 A 
HETATM    4  N2  UNL     1      35.609  39.841  -6.000  1.00  0.00    -0.367 N 
ATOM      5  H2  UNL     1      35.799  40.160  -5.050  1.00  0.00     0.165 HD
HETATM    6  C13 UNL     1      34.935  40.639  -6.865  1.00  0.00     0.024 A 
HETATM    7  C14 UNL     1      34.478  41.986  -6.418  1.00  0.00     0.070 C 
HETATM    8  C15 UNL     1      34.654  40.253  -8.167  1.00  0.00     0.047 A 
ENDROOT
BRANCH   2   9
HETATM    9  C5  UNL     1      36.229  36.823  -8.086  1.00  0.00     0.254 C 
HETATM   10  O1  UNL     1      37.370  36.698  -8.599  1.00  0.00    -0.268 OA
HETATM   11  N1  UNL     1      35.420  35.703  -7.892  1.00  0.00    -0.345 N 
ATOM     12  H1  UNL     1      34.502  35.802  -7.460  1.00  0.00     0.163 HD
BRANCH  11  13
HETATM   13  C6  UNL     1      35.908  34.365  -8.319  1.00  0.00     0.044 C 
HETATM   14  C7  UNL     1      37.144  34.157  -7.436  1.00  0.00     0.042 C 
HETATM   15  C8  UNL     1      36.306  34.419  -9.742  1.00  0.00     0.042 C 
BRANCH  13  16
HETATM   16  C9  UNL     1      34.850  33.369  -8.042  1.00  0.00     0.015 C 
HETATM   17  C10 UNL     1      34.648  32.717  -6.768  1.00  0.00     0.107 C 
BRANCH  17  18
HETATM   18  S1  UNL     1      34.304  33.621  -5.320  1.00  0.00     0.161 S 
HETATM   19  C11 UNL     1      33.354  32.553  -4.177  1.00  0.00     0.166 C 
HETATM   20  O2  UNL     1      33.471  34.831  -5.604  1.00  0.00    -0.224 OA
HETATM   21  O3  UNL     1      35.517  34.004  -4.519  1.00  0.00    -0.224 OA
ENDBRANCH  17  18
ENDBRANCH  13  16
ENDBRANCH  11  13
ENDBRANCH   2   9
BRANCH   1  22
HETATM   22  C2  UNL     1      34.845  38.590  -9.950  1.00  0.00     0.037 C 
HETATM   23  C1  UNL     1      33.491  37.876 -10.054  1.00  0.00     0.010 C 
ENDBRANCH   1  22
BRANCH   8  24
HETATM   24  C16 UNL     1      33.975  41.141  -9.066  1.00  0.00    -0.059 C 
HETATM   25  C17 UNL     1      33.436  41.886  -9.846  1.00  0.00    -0.060 C 
BRANCH  25  26
HETATM   26  C18 UNL     1      32.830  42.774 -10.802  1.00  0.00     0.033 A 
HETATM   27  C19 UNL     1      32.893  42.462 -12.142  1.00  0.00     0.026 A 
HETATM   28  C20 UNL     1      32.333  43.314 -13.096  1.00  0.00     0.049 A 
HETATM   29  C21 UNL     1      31.709  44.480 -12.671  1.00  0.00     0.098 A 
HETATM   30  N4  UNL     1      31.653  44.771 -11.370  1.00  0.00    -0.351 N 
HETATM   31  C22 UNL     1      32.202  43.939 -10.440  1.00  0.00     0.110 A 
ATOM     32  H4  UNL     1      31.193  45.629 -11.067  1.00  0.00     0.166 HD
BRANCH  29  33
HETATM   33  N3  UNL     1      31.202  45.255 -13.558  1.00  0.00    -0.385 N 
ATOM     34  H32 UNL     1      31.603  46.169 -13.765  1.00  0.00     0.157 HD
ATOM     35  H31 UNL     1      30.379  44.931 -14.067  1.00  0.00     0.157 HD
ENDBRANCH  29  33
ENDBRANCH  25  26
ENDBRANCH   8  24
TORSDOF 8
ENDMDL
MODEL 5
REMARK VINA RESULT: -6.891708107      4.946      9.670
REMARK  8 active torsions:
REMARK  status: ('A' for Active; 'I' for Inactive)
REMARK    1  A    between atoms: C2_2  and  C3_3 
REMARK    2  A    between atoms: C4_4  and  C5_5 
REMARK       I    between atoms: C5_5  and  N1_7 
REMARK    3  A    between atoms: N1_7  and  C6_9 
REMARK    4  A    between atoms: C6_9  and  C9_12 
REMARK    5  A    between atoms: C10_13  and  S1_14 
REMARK    6  A    between atoms: C15_23  and  C16_24 
REMARK    7  A    between atoms: C17_25  and  C18_26 
REMARK    8  A    between atoms: C21_29  and  N3_30 
ROOT
HETATM    1  C3  UNL     1      35.165  39.082  -8.284  1.00  0.00    -0.021 A 
HETATM    2  C4  UNL     1      35.853  38.306  -7.394  1.00  0.00     0.055 A 
HETATM    3  C12 UNL     1      36.116  38.870  -6.136  1.00  0.00     0.105 A 
HETATM    4  N2  UNL     1      35.713  40.113  -5.813  1.00  0.00    -0.367 N 
ATOM      5  H2  UNL     1      35.919  40.495  -4.890  1.00  0.00     0.165 HD
HETATM    6  C13 UNL     1      35.032  40.853  -6.722  1.00  0.00     0.024 A 
HETATM    7  C14 UNL     1      34.592  42.233  -6.365  1.00  0.00     0.070 C 
HETATM    8  C15 UNL     1      34.729  40.380  -7.990  1.00  0.00     0.047 A 
ENDROOT
BRANCH   2   9
HETATM    9  C5  UNL     1      36.279  36.951  -7.691  1.00  0.00     0.254 C 
HETATM   10  O1  UNL     1      35.862  36.018  -6.958  1.00  0.00    -0.268 OA
HETATM   11  N1  UNL     1      37.126  36.673  -8.764  1.00  0.00    -0.345 N 
ATOM     12  H1  UNL     1      37.451  37.427  -9.369  1.00  0.00     0.163 HD
BRANCH  11  13
HETATM   13  C6  UNL     1      37.551  35.271  -9.018  1.00  0.00     0.044 C 
HETATM   14  C7  UNL     1      38.151  35.349 -10.426  1.00  0.00     0.042 C 
HETATM   15  C8  UNL     1      36.362  34.391  -9.022  1.00  0.00     0.042 C 
BRANCH  13  16
HETATM   16  C9  UNL     1      38.558  34.894  -8.002  1.00  0.00     0.015 C 
HETATM   17  C10 UNL     1      38.908  33.535  -7.656  1.00  0.00     0.107 C 
BRANCH  17  18
HETATM   18  S1  UNL     1      39.546  32.424  -8.836  1.00  0.00     0.161 S 
HETATM   19  C11 UNL     1      40.208  30.960  -7.959  1.00  0.00     0.166 C 
HETATM   20  O2  UNL     1      40.670  33.028  -9.618  1.00  0.00    -0.224 OA
HETATM   21  O3  UNL     1      38.520  31.843  -9.767  1.00  0.00    -0.224 OA
ENDBRANCH  17  18
ENDBRANCH  13  16
ENDBRANCH  11  13
ENDBRANCH   2   9
BRANCH   1  22
HETATM   22  C2  UNL     1      34.881  38.594  -9.654  1.00  0.00     0.037 C 
HETATM   23  C1  UNL     1      33.578  37.783  -9.664  1.00  0.00     0.010 C 
ENDBRANCH   1  22
BRANCH   8  24
HETATM   24  C16 UNL     1      34.043  41.208  -8.939  1.00  0.00    -0.059 C 
HETATM   25  C17 UNL     1      33.494  41.934  -9.731  1.00  0.00    -0.060 C 
BRANCH  25  26
HETATM   26  C18 UNL     1      32.871  42.830 -10.667  1.00  0.00     0.033 A 
HETATM   27  C19 UNL     1      32.934  42.545 -12.014  1.00  0.00     0.026 A 
HETATM   28  C20 UNL     1      32.356  43.406 -12.949  1.00  0.00     0.049 A 
HETATM   29  C21 UNL     1      31.715  44.554 -12.498  1.00  0.00     0.098 A 
HETATM   30  N4  UNL     1      31.660  44.818 -11.192  1.00  0.00    -0.351 N 
HETATM   31  C22 UNL     1      32.225  43.977 -10.280  1.00  0.00     0.110 A 
ATOM     32  H4  UNL     1      31.187  45.663 -10.871  1.00  0.00     0.166 HD
BRANCH  29  33
HETATM   33  N3  UNL     1      31.192  45.337 -13.369  1.00  0.00    -0.385 N 
ATOM     34  H32 UNL     1      31.564  46.270 -13.544  1.00  0.00     0.157 HD
ATOM     35  H31 UNL     1      30.386  45.002 -13.896  1.00  0.00     0.157 HD
ENDBRANCH  29  33
ENDBRANCH  25  26
ENDBRANCH   8  24
TORSDOF 8
ENDMDL
