MODEL 1
REMARK VINA RESULT: -8.188197201      0.000      0.000
REMARK  10 active torsions:
REMARK  status: ('A' for Active; 'I' for Inactive)
REMARK    1  A    between atoms: C3_5  and  C4_6 
REMARK    2  A    between atoms: C3_5  and  N3_23 
REMARK    3  A    between atoms: C4_6  and  C5_7 
REMARK    4  A    between atoms: C5_7  and  C6_8 
REMARK    5  A    between atoms: C6_8  and  C7_9 
REMARK    6  A    between atoms: C11_14  and  O1_15 
REMARK    7  A    between atoms: O1_15  and  C12_16 
REMARK    8  A    between atoms: C12_16  and  C13_17 
REMARK    9  A    between atoms: N3_23  and  C18_25 
REMARK   10  A    between atoms: C20_27  and  C21_28 
ROOT
HETATM    1  C1  UNL     1      37.400  44.829  -1.182  1.00  0.00     0.037 C 
HETATM    2  C2  UNL     1      36.836  43.989  -1.842  1.00  0.00     0.000 C 
HETATM    3  N1  UNL     1      36.216  43.118  -2.600  1.00  0.00    -0.305 N 
ATOM      4  H1  UNL     1      35.237  43.113  -2.312  1.00  0.00     0.177 HD
HETATM    5  C3  UNL     1      36.325  42.316  -3.500  1.00  0.00     0.090 C 
ENDROOT
BRANCH   5   6
HETATM    6  C4  UNL     1      37.642  42.074  -4.165  1.00  0.00     0.077 C 
BRANCH   6   7
HETATM    7  C5  UNL     1      38.373  40.935  -3.575  1.00  0.00     0.012 C 
BRANCH   7   8
HETATM    8  C6  UNL     1      37.927  39.551  -3.993  1.00  0.00     0.039 C 
BRANCH   8   9
HETATM    9  C7  UNL     1      38.977  38.577  -3.509  1.00  0.00    -0.054 A 
HETATM   10  C8  UNL     1      38.740  37.888  -2.334  1.00  0.00     0.034 A 
HETATM   11  C9  UNL     1      39.765  37.067  -1.780  1.00  0.00     0.049 A 
HETATM   12  N2  UNL     1      39.547  36.382  -0.564  1.00  0.00    -0.102 NA
HETATM   13  C10 UNL     1      40.950  36.989  -2.422  1.00  0.00     0.063 A 
HETATM   14  C11 UNL     1      41.228  37.671  -3.600  1.00  0.00     0.072 A 
HETATM   15  C17 UNL     1      40.184  38.482  -4.140  1.00  0.00     0.044 A 
BRANCH  14  16
HETATM   16  O1  UNL     1      42.412  37.548  -4.148  1.00  0.00    -0.332 OA
BRANCH  16  17
HETATM   17  C12 UNL     1      43.672  37.732  -4.421  1.00  0.00     0.127 A 
HETATM   18  C15 UNL     1      44.270  37.388  -5.803  1.00  0.00     0.050 A 
HETATM   19  C16 UNL     1      44.615  36.539  -4.641  1.00  0.00     0.050 A 
BRANCH  17  20
HETATM   20  C13 UNL     1      44.423  38.881  -3.768  1.00  0.00     0.158 C 
HETATM   21  C14 UNL     1      45.672  38.746  -3.013  1.00  0.00     0.094 C 
HETATM   22  O2  UNL     1      43.921  40.003  -3.926  1.00  0.00    -0.295 OA
ENDBRANCH  17  20
ENDBRANCH  16  17
ENDBRANCH  14  16
ENDBRANCH   8   9
ENDBRANCH   7   8
ENDBRANCH   6   7
ENDBRANCH   5   6
BRANCH   5  23
HETATM   23  N3  UNL     1      35.168  41.627  -3.982  1.00  0.00    -0.331 N 
ATOM     24  H3  UNL     1      34.600  41.097  -3.321  1.00  0.00     0.168 HD
BRANCH  23  25
HETATM   25  C18 UNL     1      34.828  41.653  -5.186  1.00  0.00     0.123 A 
HETATM   26  C19 UNL     1      34.749  40.541  -6.036  1.00  0.00     0.077 A 
HETATM   27  C20 UNL     1      34.315  40.968  -7.265  1.00  0.00     0.037 A 
HETATM   28  N4  UNL     1      34.141  42.286  -7.161  1.00  0.00    -0.302 N 
HETATM   29  N5  UNL     1      34.442  42.689  -5.939  1.00  0.00    -0.285 N 
ATOM     30  H4  UNL     1      33.823  42.895  -7.915  1.00  0.00     0.186 HD
ATOM     31  H5  UNL     1      34.387  43.655  -5.616  1.00  0.00     0.188 HD
BRANCH  27  32
HETATM   32  C21 UNL     1      34.114  40.144  -8.500  1.00  0.00    -0.007 C 
HETATM   33  C22 UNL     1      32.971  39.190  -8.285  1.00  0.00     0.021 C 
HETATM   34  C23 UNL     1      35.306  39.376  -8.923  1.00  0.00     0.021 C 
HETATM   35  C24 UNL     1      33.670  41.081  -9.620  1.00  0.00     0.021 C 
ENDBRANCH  27  32
ENDBRANCH  23  25
ENDBRANCH   5  23
TORSDOF 10
ENDMDL
MODEL 2
REMARK VINA RESULT: -8.168764095      1.549      1.750
REMARK  10 active torsions:
REMARK  status: ('A' for Active; 'I' for Inactive)
REMARK    1  A    between atoms: C3_5  and  C4_6 
REMARK    2  A    between atoms: C3_5  and  N3_23 
REMARK    3  A    between atoms: C4_6  and  C5_7 
REMARK    4  A    between atoms: C5_7  and  C6_8 
REMARK    5  A    between atoms: C6_8  and  C7_9 
REMARK    6  A    between atoms: C11_14  and  O1_15 
REMARK    7  A    between atoms: O1_15  and  C12_16 
REMARK    8  A    between atoms: C12_16  and  C13_17 
REMARK    9  A    between atoms: N3_23  and  C18_25 
REMARK   10  A    between atoms: C20_27  and  C21_28 
ROOT
HETATM    1  C1  UNL     1      37.378  44.703  -1.190  1.00  0.00     0.037 C 
HETATM    2  C2  UNL     1      36.812  43.915  -1.908  1.00  0.00     0.000 C 
HETATM    3  N1  UNL     1      36.194  43.100  -2.729  1.00  0.00    -0.305 N 
ATOM      4  H1  UNL     1      35.197  43.165  -2.523  1.00  0.00     0.177 HD
HETATM    5  C3  UNL     1      36.319  42.301  -3.630  1.00  0.00     0.090 C 
ENDROOT
BRANCH   5   6
HETATM    6  C4  UNL     1      37.666  41.969  -4.188  1.00  0.00     0.077 C 
BRANCH   6   7
HETATM    7  C5  UNL     1      38.415  41.027  -3.334  1.00  0.00     0.012 C 
BRANCH   7   8
HETATM    8  C6  UNL     1      37.912  39.601  -3.290  1.00  0.00     0.039 C 
BRANCH   8   9
HETATM    9  C7  UNL     1      38.798  38.785  -4.205  1.00  0.00    -0.054 A 
HETATM   10  C8  UNL     1      38.200  38.042  -5.205  1.00  0.00     0.034 A 
HETATM   11  C9  UNL     1      38.992  37.159  -5.995  1.00  0.00     0.049 A 
HETATM   12  N2  UNL     1      38.388  36.369  -6.999  1.00  0.00    -0.102 NA
HETATM   13  C10 UNL     1      40.315  37.070  -5.739  1.00  0.00     0.063 A 
HETATM   14  C11 UNL     1      40.950  37.796  -4.739  1.00  0.00     0.072 A 
HETATM   15  C17 UNL     1      40.138  38.678  -3.964  1.00  0.00     0.044 A 
BRANCH  14  16
HETATM   16  O1  UNL     1      42.237  37.636  -4.550  1.00  0.00    -0.332 OA
BRANCH  16  17
HETATM   17  C12 UNL     1      43.465  37.843  -4.170  1.00  0.00     0.127 A 
HETATM   18  C15 UNL     1      44.610  38.069  -5.181  1.00  0.00     0.050 A 
HETATM   19  C16 UNL     1      44.559  36.797  -4.428  1.00  0.00     0.050 A 
BRANCH  17  20
HETATM   20  C13 UNL     1      43.735  38.571  -2.863  1.00  0.00     0.158 C 
HETATM   21  C14 UNL     1      44.436  37.998  -1.711  1.00  0.00     0.094 C 
HETATM   22  O2  UNL     1      43.333  39.743  -2.814  1.00  0.00    -0.295 OA
ENDBRANCH  17  20
ENDBRANCH  16  17
ENDBRANCH  14  16
ENDBRANCH   8   9
ENDBRANCH   7   8
ENDBRANCH   6   7
ENDBRANCH   5   6
BRANCH   5  23
HETATM   23  N3  UNL     1      35.159  41.706  -4.217  1.00  0.00    -0.331 N 
ATOM     24  H3  UNL     1      34.418  41.365  -3.605  1.00  0.00     0.168 HD
BRANCH  23  25
HETATM   25  C18 UNL     1      35.021  41.589  -5.455  1.00  0.00     0.123 A 
HETATM   26  C19 UNL     1      34.702  40.405  -6.133  1.00  0.00     0.077 A 
HETATM   27  C20 UNL     1      34.612  40.685  -7.473  1.00  0.00     0.037 A 
HETATM   28  N4  UNL     1      34.870  41.987  -7.598  1.00  0.00    -0.302 N 
HETATM   29  N5  UNL     1      35.110  42.519  -6.413  1.00  0.00    -0.285 N 
ATOM     30  H4  UNL     1      34.881  42.499  -8.481  1.00  0.00     0.186 HD
ATOM     31  H5  UNL     1      35.331  43.501  -6.251  1.00  0.00     0.188 HD
BRANCH  27  32
HETATM   32  C21 UNL     1      34.329  39.727  -8.590  1.00  0.00    -0.007 C 
HETATM   33  C22 UNL     1      33.251  38.768  -8.165  1.00  0.00     0.021 C 
HETATM   34  C23 UNL     1      35.506  38.954  -9.046  1.00  0.00     0.021 C 
HETATM   35  C24 UNL     1      33.744  40.525  -9.752  1.00  0.00     0.021 C 
ENDBRANCH  27  32
ENDBRANCH  23  25
ENDBRANCH   5  23
TORSDOF 10
ENDMDL
MODEL 3
REMARK VINA RESULT: -8.130122889      0.840      1.611
REMARK  10 active torsions:
REMARK  status: ('A' for Active; 'I' for Inactive)
REMARK    1  A    between atoms: C3_5  and  C4_6 
REMARK    2  A    between atoms: C3_5  and  N3_23 
REMARK    3  A    between atoms: C4_6  and  C5_7 
REMARK    4  A    between atoms: C5_7  and  C6_8 
REMARK    5  A    between atoms: C6_8  and  C7_9 
REMARK    6  A    between atoms: C11_14  and  O1_15 
REMARK    7  A    between atoms: O1_15  and  C12_16 
REMARK    8  A    between atoms: C12_16  and  C13_17 
REMARK    9  A    between atoms: N3_23  and  C18_25 
REMARK   10  A    between atoms: C20_27  and  C21_28 
ROOT
HETATM    1  C1  UNL     1      37.376  44.859  -1.176  1.00  0.00     0.037 C 
HETATM    2  C2  UNL     1      36.820  44.013  -1.835  1.00  0.00     0.000 C 
HETATM    3  N1  UNL     1      36.208  43.135  -2.592  1.00  0.00    -0.305 N 
ATOM      4  H1  UNL     1      35.229  43.125  -2.307  1.00  0.00     0.177 HD
HETATM    5  C3  UNL     1      36.326  42.331  -3.490  1.00  0.00     0.090 C 
ENDROOT
BRANCH   5   6
HETATM    6  C4  UNL     1      37.646  42.096  -4.150  1.00  0.00     0.077 C 
BRANCH   6   7
HETATM    7  C5  UNL     1      38.364  40.938  -3.583  1.00  0.00     0.012 C 
BRANCH   7   8
HETATM    8  C6  UNL     1      37.903  39.568  -4.029  1.00  0.00     0.039 C 
BRANCH   8   9
HETATM    9  C7  UNL     1      38.781  38.551  -3.333  1.00  0.00    -0.054 A 
HETATM   10  C8  UNL     1      38.176  37.609  -2.523  1.00  0.00     0.034 A 
HETATM   11  C9  UNL     1      38.982  36.725  -1.748  1.00  0.00     0.049 A 
HETATM   12  N2  UNL     1      38.378  35.778  -0.892  1.00  0.00    -0.102 NA
HETATM   13  C10 UNL     1      40.326  36.838  -1.825  1.00  0.00     0.063 A 
HETATM   14  C11 UNL     1      40.970  37.777  -2.622  1.00  0.00     0.072 A 
HETATM   15  C17 UNL     1      40.141  38.647  -3.394  1.00  0.00     0.044 A 
BRANCH  14  16
HETATM   16  O1  UNL     1      42.278  37.825  -2.624  1.00  0.00    -0.332 OA
BRANCH  16  17
HETATM   17  C12 UNL     1      43.510  37.956  -3.029  1.00  0.00     0.127 A 
HETATM   18  C15 UNL     1      44.684  38.132  -2.041  1.00  0.00     0.050 A 
HETATM   19  C16 UNL     1      44.259  39.287  -2.863  1.00  0.00     0.050 A 
BRANCH  17  20
HETATM   20  C13 UNL     1      43.962  37.254  -4.299  1.00  0.00     0.158 C 
HETATM   21  C14 UNL     1      44.623  37.910  -5.431  1.00  0.00     0.094 C 
HETATM   22  O2  UNL     1      43.755  36.032  -4.336  1.00  0.00    -0.295 OA
ENDBRANCH  17  20
ENDBRANCH  16  17
ENDBRANCH  14  16
ENDBRANCH   8   9
ENDBRANCH   7   8
ENDBRANCH   6   7
ENDBRANCH   5   6
BRANCH   5  23
HETATM   23  N3  UNL     1      35.175  41.633  -3.973  1.00  0.00    -0.331 N 
ATOM     24  H3  UNL     1      34.613  41.094  -3.313  1.00  0.00     0.168 HD
BRANCH  23  25
HETATM   25  C18 UNL     1      34.833  41.659  -5.176  1.00  0.00     0.123 A 
HETATM   26  C19 UNL     1      34.739  40.547  -6.023  1.00  0.00     0.077 A 
HETATM   27  C20 UNL     1      34.308  40.976  -7.252  1.00  0.00     0.037 A 
HETATM   28  N4  UNL     1      34.151  42.296  -7.151  1.00  0.00    -0.302 N 
HETATM   29  N5  UNL     1      34.458  42.698  -5.931  1.00  0.00    -0.285 N 
ATOM     30  H4  UNL     1      33.838  42.907  -7.906  1.00  0.00     0.186 HD
ATOM     31  H5  UNL     1      34.415  43.665  -5.610  1.00  0.00     0.188 HD
BRANCH  27  32
HETATM   32  C21 UNL     1      34.095  40.151  -8.485  1.00  0.00    -0.007 C 
HETATM   33  C22 UNL     1      35.358  39.402  -8.810  1.00  0.00     0.021 C 
HETATM   34  C23 UNL     1      33.678  40.926  -9.675  1.00  0.00     0.021 C 
HETATM   35  C24 UNL     1      33.050  39.087  -8.161  1.00  0.00     0.021 C 
ENDBRANCH  27  32
ENDBRANCH  23  25
ENDBRANCH   5  23
TORSDOF 10
ENDMDL
MODEL 4
REMARK VINA RESULT: -8.057507799      1.504      1.898
REMARK  10 active torsions:
REMARK  status: ('A' for Active; 'I' for Inactive)
REMARK    1  A    between atoms: C3_5  and  C4_6 
REMARK    2  A    between atoms: C3_5  and  N3_23 
REMARK    3  A    between atoms: C4_6  and  C5_7 
REMARK    4  A    between atoms: C5_7  and  C6_8 
REMARK    5  A    between atoms: C6_8  and  C7_9 
REMARK    6  A    between atoms: C11_14  and  O1_15 
REMARK    7  A    between atoms: O1_15  and  C12_16 
REMARK    8  A    between atoms: C12_16  and  C13_17 
REMARK    9  A    between atoms: N3_23  and  C18_25 
REMARK   10  A    between atoms: C20_27  and  C21_28 
ROOT
HETATM    1  C1  UNL     1      37.422  44.697  -1.187  1.00  0.00     0.037 C 
HETATM    2  C2  UNL     1      36.843  43.920  -1.908  1.00  0.00     0.000 C 
HETATM    3  N1  UNL     1      36.214  43.118  -2.732  1.00  0.00    -0.305 N 
ATOM      4  H1  UNL     1      35.218  43.197  -2.525  1.00  0.00     0.177 HD
HETATM    5  C3  UNL     1      36.327  42.321  -3.637  1.00  0.00     0.090 C 
ENDROOT
BRANCH   5   6
HETATM    6  C4  UNL     1      37.668  41.973  -4.197  1.00  0.00     0.077 C 
BRANCH   6   7
HETATM    7  C5  UNL     1      38.342  40.907  -3.429  1.00  0.00     0.012 C 
BRANCH   7   8
HETATM    8  C6  UNL     1      37.872  39.490  -3.676  1.00  0.00     0.039 C 
BRANCH   8   9
HETATM    9  C7  UNL     1      39.054  38.714  -4.212  1.00  0.00    -0.054 A 
HETATM   10  C8  UNL     1      38.863  37.912  -5.322  1.00  0.00     0.034 A 
HETATM   11  C9  UNL     1      39.919  37.066  -5.768  1.00  0.00     0.049 A 
HETATM   12  N2  UNL     1      39.727  36.218  -6.883  1.00  0.00    -0.102 NA
HETATM   13  C10 UNL     1      41.084  37.067  -5.086  1.00  0.00     0.063 A 
HETATM   14  C11 UNL     1      41.311  37.853  -3.963  1.00  0.00     0.072 A 
HETATM   15  C17 UNL     1      40.241  38.698  -3.538  1.00  0.00     0.044 A 
BRANCH  14  16
HETATM   16  O1  UNL     1      42.468  37.780  -3.353  1.00  0.00    -0.332 OA
BRANCH  16  17
HETATM   17  C12 UNL     1      43.751  37.797  -3.132  1.00  0.00     0.127 A 
HETATM   18  C15 UNL     1      44.467  36.665  -2.363  1.00  0.00     0.050 A 
HETATM   19  C16 UNL     1      44.306  37.983  -1.711  1.00  0.00     0.050 A 
BRANCH  17  20
HETATM   20  C13 UNL     1      44.681  38.446  -4.145  1.00  0.00     0.158 C 
HETATM   21  C14 UNL     1      44.912  37.955  -5.507  1.00  0.00     0.094 C 
HETATM   22  O2  UNL     1      45.253  39.476  -3.761  1.00  0.00    -0.295 OA
ENDBRANCH  17  20
ENDBRANCH  16  17
ENDBRANCH  14  16
ENDBRANCH   8   9
ENDBRANCH   7   8
ENDBRANCH   6   7
ENDBRANCH   5   6
BRANCH   5  23
HETATM   23  N3  UNL     1      35.158  41.746  -4.226  1.00  0.00    -0.331 N 
ATOM     24  H3  UNL     1      34.406  41.425  -3.616  1.00  0.00     0.168 HD
BRANCH  23  25
HETATM   25  C18 UNL     1      35.025  41.621  -5.464  1.00  0.00     0.123 A 
HETATM   26  C19 UNL     1      34.694  40.436  -6.134  1.00  0.00     0.077 A 
HETATM   27  C20 UNL     1      34.615  40.707  -7.477  1.00  0.00     0.037 A 
HETATM   28  N4  UNL     1      34.891  42.005  -7.610  1.00  0.00    -0.302 N 
HETATM   29  N5  UNL     1      35.131  42.543  -6.428  1.00  0.00    -0.285 N 
ATOM     30  H4  UNL     1      34.913  42.509  -8.497  1.00  0.00     0.186 HD
ATOM     31  H5  UNL     1      35.364  43.523  -6.272  1.00  0.00     0.188 HD
BRANCH  27  32
HETATM   32  C21 UNL     1      34.325  39.744  -8.588  1.00  0.00    -0.007 C 
HETATM   33  C22 UNL     1      33.245  38.791  -8.155  1.00  0.00     0.021 C 
HETATM   34  C23 UNL     1      35.498  38.965  -9.043  1.00  0.00     0.021 C 
HETATM   35  C24 UNL     1      33.740  40.538  -9.753  1.00  0.00     0.021 C 
ENDBRANCH  27  32
ENDBRANCH  23  25
ENDBRANCH   5  23
TORSDOF 10
ENDMDL
MODEL 5
REMARK VINA RESULT: -8.023310587      2.549      4.287
REMARK  10 active torsions:
REMARK  status: ('A' for Active; 'I' for Inactive)
REMARK    1  A    between atoms: C3_5  and  C4_6 
REMARK    2  A    between atoms: C3_5  and  N3_23 
REMARK    3  A    between atoms: C4_6  and  C5_7 
REMARK    4  A    between atoms: C5_7  and  C6_8 
REMARK    5  A    between atoms: C6_8  and  C7_9 
REMARK    6  A    between atoms: C11_14  and  O1_15 
REMARK    7  A    between atoms: O1_15  and  C12_16 
REMARK    8  A    between atoms: C12_16  and  C13_17 
REMARK    9  A    between atoms: N3_23  and  C18_25 
REMARK   10  A    between atoms: C20_27  and  C21_28 
ROOT
HETATM    1  C1  UNL     1      37.443  44.832  -1.174  1.00  0.00     0.037 C 
HETATM    2  C2  UNL     1      36.866  44.001  -1.833  1.00  0.00     0.000 C 
HETATM    3  N1  UNL     1      36.230  43.137  -2.587  1.00  0.00    -0.305 N 
ATOM      4  H1  UNL     1      35.256  43.133  -2.283  1.00  0.00     0.177 HD
HETATM    5  C3  UNL     1      36.321  42.343  -3.496  1.00  0.00     0.090 C 
ENDROOT
BRANCH   5   6
HETATM    6  C4  UNL     1      37.626  42.103  -4.185  1.00  0.00     0.077 C 
BRANCH   6   7
HETATM    7  C5  UNL     1      38.508  41.195  -3.426  1.00  0.00     0.012 C 
BRANCH   7   8
HETATM    8  C6  UNL     1      37.972  39.809  -3.140  1.00  0.00     0.039 C 
BRANCH   8   9
HETATM    9  C7  UNL     1      38.804  38.833  -3.942  1.00  0.00    -0.054 A 
HETATM   10  C8  UNL     1      40.165  38.782  -3.705  1.00  0.00     0.034 A 
HETATM   11  C9  UNL     1      40.993  37.973  -4.536  1.00  0.00     0.049 A 
HETATM   12  N2  UNL     1      42.390  37.936  -4.325  1.00  0.00    -0.102 NA
HETATM   13  C10 UNL     1      40.421  37.278  -5.543  1.00  0.00     0.063 A 
HETATM   14  C11 UNL     1      39.059  37.310  -5.816  1.00  0.00     0.072 A 
HETATM   15  C17 UNL     1      38.248  38.122  -4.966  1.00  0.00     0.044 A 
BRANCH  14  16
HETATM   16  O1  UNL     1      38.592  36.615  -6.823  1.00  0.00    -0.332 OA
BRANCH  16  17
HETATM   17  C12 UNL     1      37.768  36.014  -7.633  1.00  0.00     0.127 A 
HETATM   18  C15 UNL     1      38.260  35.098  -8.774  1.00  0.00     0.050 A 
HETATM   19  C16 UNL     1      37.681  36.416  -9.113  1.00  0.00     0.050 A 
BRANCH  17  20
HETATM   20  C13 UNL     1      36.402  35.577  -7.128  1.00  0.00     0.158 C 
HETATM   21  C14 UNL     1      35.139  35.771  -7.846  1.00  0.00     0.094 C 
HETATM   22  O2  UNL     1      36.399  34.998  -6.032  1.00  0.00    -0.295 OA
ENDBRANCH  17  20
ENDBRANCH  16  17
ENDBRANCH  14  16
ENDBRANCH   8   9
ENDBRANCH   7   8
ENDBRANCH   6   7
ENDBRANCH   5   6
BRANCH   5  23
HETATM   23  N3  UNL     1      35.154  41.662  -3.965  1.00  0.00    -0.331 N 
ATOM     24  H3  UNL     1      34.571  41.165  -3.292  1.00  0.00     0.168 HD
BRANCH  23  25
HETATM   25  C18 UNL     1      34.823  41.655  -5.172  1.00  0.00     0.123 A 
HETATM   26  C19 UNL     1      34.774  40.525  -5.998  1.00  0.00     0.077 A 
HETATM   27  C20 UNL     1      34.341  40.917  -7.239  1.00  0.00     0.037 A 
HETATM   28  N4  UNL     1      34.139  42.233  -7.164  1.00  0.00    -0.302 N 
HETATM   29  N5  UNL     1      34.421  42.668  -5.949  1.00  0.00    -0.285 N 
ATOM     30  H4  UNL     1      33.813  42.819  -7.933  1.00  0.00     0.186 HD
ATOM     31  H5  UNL     1      34.343  43.638  -5.646  1.00  0.00     0.188 HD
BRANCH  27  32
HETATM   32  C21 UNL     1      34.168  40.063  -8.459  1.00  0.00    -0.007 C 
HETATM   33  C22 UNL     1      33.054  39.079  -8.226  1.00  0.00     0.021 C 
HETATM   34  C23 UNL     1      35.384  39.323  -8.865  1.00  0.00     0.021 C 
HETATM   35  C24 UNL     1      33.699  40.965  -9.598  1.00  0.00     0.021 C 
ENDBRANCH  27  32
ENDBRANCH  23  25
ENDBRANCH   5  23
TORSDOF 10
ENDMDL
