MODEL 1
REMARK VINA RESULT: -8.710353945      0.000      0.000
REMARK  7 active torsions:
REMARK  status: ('A' for Active; 'I' for Inactive)
REMARK    1  A    between atoms: C2_2  and  C4_4 
REMARK       I    between atoms: C4_4  and  N1_6 
REMARK    2  A    between atoms: N1_6  and  C5_8 
REMARK    3  A    between atoms: C7_13  and  C8_14 
REMARK    4  A    between atoms: C8_14  and  C9_15 
REMARK    5  A    between atoms: N3_20  and  C13_21 
REMARK    6  A    between atoms: C13_21  and  C14_22 
REMARK    7  A    between atoms: C14_22  and  C15_23 
ROOT
HETATM    1  C5  UNL     1      35.520  41.053  -4.560  1.00  0.00     0.215 C 
HETATM    2  C6  UNL     1      35.671  42.573  -4.623  1.00  0.00     0.280 C 
HETATM    3  N2  UNL     1      35.944  43.032  -3.289  1.00  0.00    -0.059 N 
ATOM      4  H21 UNL     1      35.123  42.927  -2.694  1.00  0.00     0.278 HD
ATOM      5  H22 UNL     1      36.039  44.047  -3.266  1.00  0.00     0.278 HD
HETATM    6  C7  UNL     1      37.118  42.384  -2.681  1.00  0.00     0.277 C 
HETATM    7  C12 UNL     1      37.708  41.418  -3.612  1.00  0.00     0.252 C 
HETATM    8  O2  UNL     1      38.948  41.325  -3.716  1.00  0.00    -0.271 OA
HETATM    9  N3  UNL     1      36.876  40.558  -4.431  1.00  0.00    -0.327 N 
ENDROOT
BRANCH   9  10
HETATM   10  C13 UNL     1      37.427  39.382  -4.990  1.00  0.00     0.133 C 
BRANCH  10  11
HETATM   11  C14 UNL     1      38.219  38.528  -4.024  1.00  0.00     0.061 C 
BRANCH  11  12
HETATM   12  C15 UNL     1      39.325  37.866  -4.747  1.00  0.00    -0.020 A 
HETATM   13  C16 UNL     1      40.665  37.936  -4.435  1.00  0.00     0.016 A 
HETATM   14  C17 UNL     1      41.329  38.670  -3.327  1.00  0.00     0.069 C 
HETATM   15  N4  UNL     1      41.329  37.187  -5.350  1.00  0.00    -0.340 N 
HETATM   16  C18 UNL     1      42.773  36.984  -5.393  1.00  0.00     0.158 C 
HETATM   17  C19 UNL     1      40.435  36.658  -6.215  1.00  0.00     0.118 A 
HETATM   18  N5  UNL     1      40.337  35.871  -7.301  1.00  0.00    -0.345 N 
HETATM   19  C23 UNL     1      39.162  37.063  -5.869  1.00  0.00     0.018 A 
HETATM   20  C20 UNL     1      39.056  35.739  -7.689  1.00  0.00     0.008 A 
ATOM     21  H5  UNL     1      41.130  35.433  -7.769  1.00  0.00     0.167 HD
HETATM   22  C21 UNL     1      38.528  34.946  -8.853  1.00  0.00     0.068 C 
HETATM   23  C22 UNL     1      38.318  36.484  -6.793  1.00  0.00     0.040 A 
ENDBRANCH  11  12
ENDBRANCH  10  11
ENDBRANCH   9  10
BRANCH   1  24
HETATM   24  N1  UNL     1      34.822  40.572  -5.717  1.00  0.00    -0.334 N 
HETATM   25  C4  UNL     1      35.126  41.175  -6.979  1.00  0.00     0.248 C 
HETATM   26  O1  UNL     1      35.998  42.115  -7.040  1.00  0.00    -0.268 OA
ATOM     27  H1  UNL     1      34.132  39.824  -5.644  1.00  0.00     0.164 HD
BRANCH  25  28
HETATM   28  C2  UNL     1      34.501  40.789  -8.220  1.00  0.00    -0.004 C 
HETATM   29  C1  UNL     1      34.620  39.580  -8.704  1.00  0.00     0.024 C 
HETATM   30  C3  UNL     1      33.696  41.810  -8.961  1.00  0.00     0.053 C 
ENDBRANCH  25  28
ENDBRANCH   1  24
BRANCH   6  31
HETATM   31  C8  UNL     1      36.707  41.896  -1.338  1.00  0.00     0.046 C 
BRANCH  31  32
HETATM   32  C9  UNL     1      36.783  42.851  -0.216  1.00  0.00    -0.020 C 
HETATM   33  C10 UNL     1      37.739  43.972  -0.298  1.00  0.00     0.009 C 
HETATM   34  C11 UNL     1      37.035  42.100   1.113  1.00  0.00     0.009 C 
ENDBRANCH  31  32
ENDBRANCH   6  31
TORSDOF 7
ENDMDL
MODEL 2
REMARK VINA RESULT: -8.544925855      2.312      3.202
REMARK  7 active torsions:
REMARK  status: ('A' for Active; 'I' for Inactive)
REMARK    1  A    between atoms: C2_2  and  C4_4 
REMARK       I    between atoms: C4_4  and  N1_6 
REMARK    2  A    between atoms: N1_6  and  C5_8 
REMARK    3  A    between atoms: C7_13  and  C8_14 
REMARK    4  A    between atoms: C8_14  and  C9_15 
REMARK    5  A    between atoms: N3_20  and  C13_21 
REMARK    6  A    between atoms: C13_21  and  C14_22 
REMARK    7  A    between atoms: C14_22  and  C15_23 
ROOT
HETATM    1  C5  UNL     1      36.068  40.519  -4.940  1.00  0.00     0.215 C 
HETATM    2  C6  UNL     1      36.154  41.974  -5.402  1.00  0.00     0.280 C 
HETATM    3  N2  UNL     1      35.871  42.803  -4.263  1.00  0.00    -0.059 N 
ATOM      4  H21 UNL     1      34.891  42.725  -3.992  1.00  0.00     0.278 HD
ATOM      5  H22 UNL     1      35.898  43.791  -4.517  1.00  0.00     0.278 HD
HETATM    6  C7  UNL     1      36.755  42.534  -3.117  1.00  0.00     0.277 C 
HETATM    7  C12 UNL     1      37.705  41.467  -3.443  1.00  0.00     0.252 C 
HETATM    8  O2  UNL     1      38.894  41.551  -3.072  1.00  0.00    -0.271 OA
HETATM    9  N3  UNL     1      37.295  40.300  -4.200  1.00  0.00    -0.327 N 
ENDROOT
BRANCH   9  10
HETATM   10  C13 UNL     1      38.078  39.124  -4.148  1.00  0.00     0.133 C 
BRANCH  10  11
HETATM   11  C14 UNL     1      38.076  38.418  -2.809  1.00  0.00     0.061 C 
BRANCH  11  12
HETATM   12  C15 UNL     1      39.182  37.438  -2.771  1.00  0.00    -0.020 A 
HETATM   13  C16 UNL     1      39.061  36.070  -2.659  1.00  0.00     0.016 A 
HETATM   14  C17 UNL     1      37.828  35.248  -2.551  1.00  0.00     0.069 C 
HETATM   15  N4  UNL     1      40.315  35.555  -2.661  1.00  0.00    -0.340 N 
HETATM   16  C18 UNL     1      40.651  34.139  -2.561  1.00  0.00     0.158 C 
HETATM   17  C19 UNL     1      41.205  36.567  -2.772  1.00  0.00     0.118 A 
HETATM   18  N5  UNL     1      42.521  36.829  -2.840  1.00  0.00    -0.345 N 
HETATM   19  C23 UNL     1      40.530  37.769  -2.844  1.00  0.00     0.018 A 
HETATM   20  C20 UNL     1      42.748  38.150  -2.953  1.00  0.00     0.008 A 
ATOM     21  H5  UNL     1      43.253  36.119  -2.810  1.00  0.00     0.167 HD
HETATM   22  C21 UNL     1      44.077  38.846  -3.056  1.00  0.00     0.068 C 
HETATM   23  C22 UNL     1      41.501  38.740  -2.956  1.00  0.00     0.040 A 
ENDBRANCH  11  12
ENDBRANCH  10  11
ENDBRANCH   9  10
BRANCH   1  24
HETATM   24  N1  UNL     1      35.892  39.647  -6.065  1.00  0.00    -0.334 N 
HETATM   25  C4  UNL     1      34.739  39.844  -6.890  1.00  0.00     0.248 C 
HETATM   26  O1  UNL     1      33.907  40.779  -6.605  1.00  0.00    -0.268 OA
ATOM     27  H1  UNL     1      36.567  38.910  -6.270  1.00  0.00     0.164 HD
BRANCH  25  28
HETATM   28  C2  UNL     1      34.440  39.042  -8.050  1.00  0.00    -0.004 C 
HETATM   29  C1  UNL     1      35.294  38.904  -9.031  1.00  0.00     0.024 C 
HETATM   30  C3  UNL     1      33.114  38.353  -8.117  1.00  0.00     0.053 C 
ENDBRANCH  25  28
ENDBRANCH   1  24
BRANCH   6  31
HETATM   31  C8  UNL     1      35.887  42.353  -1.923  1.00  0.00     0.046 C 
BRANCH  31  32
HETATM   32  C9  UNL     1      36.284  43.050  -0.684  1.00  0.00    -0.020 C 
HETATM   33  C10 UNL     1      37.270  44.143  -0.765  1.00  0.00     0.009 C 
HETATM   34  C11 UNL     1      36.780  42.031   0.369  1.00  0.00     0.009 C 
ENDBRANCH  31  32
ENDBRANCH   6  31
TORSDOF 7
ENDMDL
MODEL 3
REMARK VINA RESULT: -8.544168625      0.850      2.834
REMARK  7 active torsions:
REMARK  status: ('A' for Active; 'I' for Inactive)
REMARK    1  A    between atoms: C2_2  and  C4_4 
REMARK       I    between atoms: C4_4  and  N1_6 
REMARK    2  A    between atoms: N1_6  and  C5_8 
REMARK    3  A    between atoms: C7_13  and  C8_14 
REMARK    4  A    between atoms: C8_14  and  C9_15 
REMARK    5  A    between atoms: N3_20  and  C13_21 
REMARK    6  A    between atoms: C13_21  and  C14_22 
REMARK    7  A    between atoms: C14_22  and  C15_23 
ROOT
HETATM    1  C5  UNL     1      35.525  41.060  -4.624  1.00  0.00     0.215 C 
HETATM    2  C6  UNL     1      35.667  42.576  -4.759  1.00  0.00     0.280 C 
HETATM    3  N2  UNL     1      35.908  43.103  -3.444  1.00  0.00    -0.059 N 
ATOM      4  H21 UNL     1      35.075  43.020  -2.861  1.00  0.00     0.278 HD
ATOM      5  H22 UNL     1      35.995  44.119  -3.470  1.00  0.00     0.278 HD
HETATM    6  C7  UNL     1      37.074  42.496  -2.781  1.00  0.00     0.277 C 
HETATM    7  C12 UNL     1      37.691  41.490  -3.651  1.00  0.00     0.252 C 
HETATM    8  O2  UNL     1      38.933  41.403  -3.724  1.00  0.00    -0.271 OA
HETATM    9  N3  UNL     1      36.882  40.584  -4.443  1.00  0.00    -0.327 N 
ENDROOT
BRANCH   9  10
HETATM   10  C13 UNL     1      37.454  39.387  -4.932  1.00  0.00     0.133 C 
BRANCH  10  11
HETATM   11  C14 UNL     1      38.142  38.537  -3.886  1.00  0.00     0.061 C 
BRANCH  11  12
HETATM   12  C15 UNL     1      39.375  37.956  -4.459  1.00  0.00    -0.020 A 
HETATM   13  C16 UNL     1      39.455  37.112  -5.545  1.00  0.00     0.016 A 
HETATM   14  C17 UNL     1      38.360  36.580  -6.397  1.00  0.00     0.069 C 
HETATM   15  N4  UNL     1      40.766  36.821  -5.730  1.00  0.00    -0.340 N 
HETATM   16  C18 UNL     1      41.303  35.956  -6.775  1.00  0.00     0.158 C 
HETATM   17  C19 UNL     1      41.495  37.462  -4.790  1.00  0.00     0.118 A 
HETATM   18  N5  UNL     1      42.755  37.652  -4.361  1.00  0.00    -0.345 N 
HETATM   19  C23 UNL     1      40.655  38.188  -3.970  1.00  0.00     0.018 A 
HETATM   20  C20 UNL     1      42.785  38.471  -3.294  1.00  0.00     0.008 A 
ATOM     21  H5  UNL     1      43.579  37.231  -4.788  1.00  0.00     0.167 HD
HETATM   22  C21 UNL     1      43.993  38.929  -2.524  1.00  0.00     0.068 C 
HETATM   23  C22 UNL     1      41.470  38.808  -3.048  1.00  0.00     0.040 A 
ENDBRANCH  11  12
ENDBRANCH  10  11
ENDBRANCH   9  10
BRANCH   1  24
HETATM   24  N1  UNL     1      34.856  40.517  -5.770  1.00  0.00    -0.334 N 
HETATM   25  C4  UNL     1      35.158  41.080  -7.050  1.00  0.00     0.248 C 
HETATM   26  O1  UNL     1      36.005  42.042  -7.137  1.00  0.00    -0.268 OA
ATOM     27  H1  UNL     1      34.186  39.753  -5.676  1.00  0.00     0.164 HD
BRANCH  25  28
HETATM   28  C2  UNL     1      34.560  40.631  -8.283  1.00  0.00    -0.004 C 
HETATM   29  C1  UNL     1      33.655  41.338  -8.908  1.00  0.00     0.024 C 
HETATM   30  C3  UNL     1      35.000  39.318  -8.851  1.00  0.00     0.053 C 
ENDBRANCH  25  28
ENDBRANCH   1  24
BRANCH   6  31
HETATM   31  C8  UNL     1      36.638  42.071  -1.424  1.00  0.00     0.046 C 
BRANCH  31  32
HETATM   32  C9  UNL     1      37.369  42.631  -0.271  1.00  0.00    -0.020 C 
HETATM   33  C10 UNL     1      36.966  42.233   1.091  1.00  0.00     0.009 C 
HETATM   34  C11 UNL     1      37.375  44.176  -0.339  1.00  0.00     0.009 C 
ENDBRANCH  31  32
ENDBRANCH   6  31
TORSDOF 7
ENDMDL
MODEL 4
REMARK VINA RESULT: -8.184573374      3.283      7.367
REMARK  7 active torsions:
REMARK  status: ('A' for Active; 'I' for Inactive)
REMARK    1  A    between atoms: C2_2  and  C4_4 
REMARK       I    between atoms: C4_4  and  N1_6 
REMARK    2  A    between atoms: N1_6  and  C5_8 
REMARK    3  A    between atoms: C7_13  and  C8_14 
REMARK    4  A    between atoms: C8_14  and  C9_15 
REMARK    5  A    between atoms: N3_20  and  C13_21 
REMARK    6  A    between atoms: C13_21  and  C14_22 
REMARK    7  A    between atoms: C14_22  and  C15_23 
ROOT
HETATM    1  C5  UNL     1      35.042  41.453  -7.116  1.00  0.00     0.215 C 
HETATM    2  C6  UNL     1      33.713  41.989  -6.583  1.00  0.00     0.280 C 
HETATM    3  N2  UNL     1      33.177  42.874  -7.581  1.00  0.00    -0.059 N 
ATOM      4  H21 UNL     1      33.736  43.724  -7.650  1.00  0.00     0.278 HD
ATOM      5  H22 UNL     1      32.293  43.278  -7.272  1.00  0.00     0.278 HD
HETATM    6  C7  UNL     1      33.028  42.237  -8.901  1.00  0.00     0.277 C 
HETATM    7  C12 UNL     1      33.479  40.844  -8.850  1.00  0.00     0.252 C 
HETATM    8  O2  UNL     1      32.840  39.956  -9.451  1.00  0.00    -0.271 OA
HETATM    9  N3  UNL     1      34.664  40.464  -8.105  1.00  0.00    -0.327 N 
ENDROOT
BRANCH   9  10
HETATM   10  C13 UNL     1      35.307  39.239  -8.398  1.00  0.00     0.133 C 
BRANCH  10  11
HETATM   11  C14 UNL     1      35.239  38.205  -7.295  1.00  0.00     0.061 C 
BRANCH  11  12
HETATM   12  C15 UNL     1      34.618  36.970  -7.817  1.00  0.00    -0.020 A 
HETATM   13  C16 UNL     1      35.279  35.856  -8.286  1.00  0.00     0.016 A 
HETATM   14  C17 UNL     1      36.741  35.610  -8.387  1.00  0.00     0.069 C 
HETATM   15  N4  UNL     1      34.335  34.961  -8.667  1.00  0.00    -0.340 N 
HETATM   16  C18 UNL     1      34.596  33.638  -9.225  1.00  0.00     0.158 C 
HETATM   17  C19 UNL     1      33.111  35.492  -8.445  1.00  0.00     0.118 A 
HETATM   18  N5  UNL     1      31.798  35.231  -8.556  1.00  0.00    -0.345 N 
HETATM   19  C23 UNL     1      33.248  36.757  -7.910  1.00  0.00     0.018 A 
HETATM   20  C20 UNL     1      31.059  36.267  -8.119  1.00  0.00     0.008 A 
ATOM     21  H5  UNL     1      31.411  34.361  -8.923  1.00  0.00     0.167 HD
HETATM   22  C21 UNL     1      29.559  36.369  -8.077  1.00  0.00     0.068 C 
HETATM   23  C22 UNL     1      31.966  37.224  -7.714  1.00  0.00     0.040 A 
ENDBRANCH  11  12
ENDBRANCH  10  11
ENDBRANCH   9  10
BRANCH   1  24
HETATM   24  N1  UNL     1      35.840  40.938  -6.041  1.00  0.00    -0.334 N 
HETATM   25  C4  UNL     1      36.372  41.873  -5.097  1.00  0.00     0.248 C 
HETATM   26  O1  UNL     1      36.127  43.126  -5.237  1.00  0.00    -0.268 OA
ATOM     27  H1  UNL     1      36.022  39.939  -5.951  1.00  0.00     0.164 HD
BRANCH  25  28
HETATM   28  C2  UNL     1      37.188  41.494  -3.970  1.00  0.00    -0.004 C 
HETATM   29  C1  UNL     1      37.401  42.308  -2.969  1.00  0.00     0.024 C 
HETATM   30  C3  UNL     1      37.798  40.128  -3.959  1.00  0.00     0.053 C 
ENDBRANCH  25  28
ENDBRANCH   1  24
BRANCH   6  31
HETATM   31  C8  UNL     1      33.661  43.139  -9.900  1.00  0.00     0.046 C 
BRANCH  31  32
HETATM   32  C9  UNL     1      32.907  43.415 -11.138  1.00  0.00    -0.020 C 
HETATM   33  C10 UNL     1      32.903  42.403 -12.210  1.00  0.00     0.009 C 
HETATM   34  C11 UNL     1      33.356  44.763 -11.750  1.00  0.00     0.009 C 
ENDBRANCH  31  32
ENDBRANCH   6  31
TORSDOF 7
ENDMDL
MODEL 5
REMARK VINA RESULT: -8.067430670      1.430      1.589
REMARK  7 active torsions:
REMARK  status: ('A' for Active; 'I' for Inactive)
REMARK    1  A    between atoms: C2_2  and  C4_4 
REMARK       I    between atoms: C4_4  and  N1_6 
REMARK    2  A    between atoms: N1_6  and  C5_8 
REMARK    3  A    between atoms: C7_13  and  C8_14 
REMARK    4  A    between atoms: C8_14  and  C9_15 
REMARK    5  A    between atoms: N3_20  and  C13_21 
REMARK    6  A    between atoms: C13_21  and  C14_22 
REMARK    7  A    between atoms: C14_22  and  C15_23 
ROOT
HETATM    1  C5  UNL     1      36.225  40.323  -4.964  1.00  0.00     0.215 C 
HETATM    2  C6  UNL     1      35.851  41.757  -5.340  1.00  0.00     0.280 C 
HETATM    3  N2  UNL     1      35.362  42.398  -4.151  1.00  0.00    -0.059 N 
ATOM      4  H21 UNL     1      34.460  42.011  -3.874  1.00  0.00     0.278 HD
ATOM      5  H22 UNL     1      35.079  43.359  -4.346  1.00  0.00     0.278 HD
HETATM    6  C7  UNL     1      36.318  42.352  -3.032  1.00  0.00     0.277 C 
HETATM    7  C12 UNL     1      37.538  41.645  -3.431  1.00  0.00     0.252 C 
HETATM    8  O2  UNL     1      38.655  42.069  -3.069  1.00  0.00    -0.271 OA
HETATM    9  N3  UNL     1      37.481  40.451  -4.252  1.00  0.00    -0.327 N 
ENDROOT
BRANCH   9  10
HETATM   10  C13 UNL     1      38.586  39.569  -4.278  1.00  0.00     0.133 C 
BRANCH  10  11
HETATM   11  C14 UNL     1      38.228  38.100  -4.319  1.00  0.00     0.061 C 
BRANCH  11  12
HETATM   12  C15 UNL     1      39.146  37.397  -5.240  1.00  0.00    -0.020 A 
HETATM   13  C16 UNL     1      40.516  37.318  -5.127  1.00  0.00     0.016 A 
HETATM   14  C17 UNL     1      41.403  37.898  -4.086  1.00  0.00     0.069 C 
HETATM   15  N4  UNL     1      40.963  36.584  -6.177  1.00  0.00    -0.340 N 
HETATM   16  C18 UNL     1      42.358  36.253  -6.447  1.00  0.00     0.158 C 
HETATM   17  C19 UNL     1      39.906  36.210  -6.931  1.00  0.00     0.118 A 
HETATM   18  N5  UNL     1      39.575  35.523  -8.038  1.00  0.00    -0.345 N 
HETATM   19  C23 UNL     1      38.744  36.702  -6.374  1.00  0.00     0.018 A 
HETATM   20  C20 UNL     1      38.245  35.540  -8.238  1.00  0.00     0.008 A 
ATOM     21  H5  UNL     1      40.243  35.051  -8.646  1.00  0.00     0.167 HD
HETATM   22  C21 UNL     1      37.478  34.892  -9.359  1.00  0.00     0.068 C 
HETATM   23  C22 UNL     1      37.722  36.278  -7.197  1.00  0.00     0.040 A 
ENDBRANCH  11  12
ENDBRANCH  10  11
ENDBRANCH   9  10
BRANCH   1  24
HETATM   24  N1  UNL     1      36.291  39.500  -6.136  1.00  0.00    -0.334 N 
HETATM   25  C4  UNL     1      35.061  39.156  -6.782  1.00  0.00     0.248 C 
HETATM   26  O1  UNL     1      33.950  39.586  -6.302  1.00  0.00    -0.268 OA
ATOM     27  H1  UNL     1      37.186  39.169  -6.498  1.00  0.00     0.164 HD
BRANCH  25  28
HETATM   28  C2  UNL     1      34.981  38.338  -7.967  1.00  0.00    -0.004 C 
HETATM   29  C1  UNL     1      35.550  38.695  -9.090  1.00  0.00     0.024 C 
HETATM   30  C3  UNL     1      34.228  37.048  -7.893  1.00  0.00     0.053 C 
ENDBRANCH  25  28
ENDBRANCH   1  24
BRANCH   6  31
HETATM   31  C8  UNL     1      35.580  41.852  -1.841  1.00  0.00     0.046 C 
BRANCH  31  32
HETATM   32  C9  UNL     1      36.033  42.319  -0.518  1.00  0.00    -0.020 C 
HETATM   33  C10 UNL     1      36.861  43.537  -0.436  1.00  0.00     0.009 C 
HETATM   34  C11 UNL     1      36.772  41.184   0.229  1.00  0.00     0.009 C 
ENDBRANCH  31  32
ENDBRANCH   6  31
TORSDOF 7
ENDMDL
