MODEL 1
REMARK VINA RESULT: -8.729625270      0.000      0.000
REMARK  9 active torsions:
REMARK  status: ('A' for Active; 'I' for Inactive)
REMARK    1  A    between atoms: C2_3  and  S1_4 
REMARK    2  A    between atoms: S1_4  and  C3_5 
REMARK    3  A    between atoms: C8_15  and  N4_16 
REMARK    4  A    between atoms: C10_23  and  C11_24 
REMARK    5  A    between atoms: C12_25  and  C13_26 
REMARK    6  A    between atoms: N6_27  and  N7_29 
REMARK    7  A    between atoms: N7_29  and  C14_31 
REMARK    8  A    between atoms: C17_38  and  N10_39 
REMARK    9  A    between atoms: N10_39  and  N11_41 
ROOT
HETATM    1  N1  UNL     1      41.290  29.455  17.695  1.00  0.00    -0.197 NA
HETATM    2  C1  UNL     1      42.249  29.134  18.256  1.00  0.00     0.069 C 
HETATM    3  C2  UNL     1      43.461  28.722  18.970  1.00  0.00     0.206 C 
ENDROOT
BRANCH   3   4
HETATM    4  S1  UNL     1      44.053  27.118  18.373  1.00  0.00    -0.080 SA
BRANCH   4   5
HETATM    5  C3  UNL     1      42.646  26.155  17.851  1.00  0.00     0.149 C 
HETATM    6  N2  UNL     1      41.873  25.598  18.838  1.00  0.00    -0.303 N 
HETATM    7  C4  UNL     1      40.658  24.982  18.730  1.00  0.00     0.259 C 
ATOM      8  H2  UNL     1      42.257  25.651  19.781  1.00  0.00     0.171 HD
HETATM    9  O1  UNL     1      40.211  24.385  19.735  1.00  0.00    -0.267 OA
HETATM   10  C5  UNL     1      39.804  24.913  17.628  1.00  0.00     0.063 C 
HETATM   11  C6  UNL     1      38.498  24.339  17.745  1.00  0.00     0.065 A 
HETATM   12  C10 UNL     1      40.158  25.400  16.347  1.00  0.00     0.026 C 
HETATM   13  C7  UNL     1      37.351  25.012  18.119  1.00  0.00     0.124 A 
HETATM   14  C9  UNL     1      38.350  22.980  17.485  1.00  0.00     0.272 A 
HETATM   15  N3  UNL     1      36.204  24.330  18.207  1.00  0.00    -0.201 N 
HETATM   16  C8  UNL     1      36.074  23.009  17.952  1.00  0.00     0.678 A 
ATOM     17  H3  UNL     1      35.367  24.844  18.486  1.00  0.00     0.183 HD
HETATM   18  N5  UNL     1      37.177  22.338  17.586  1.00  0.00    -0.156 N 
ATOM     19  H5  UNL     1      37.123  21.340  17.386  1.00  0.00     0.187 HD
HETATM   20  O2  UNL     1      39.375  22.312  17.136  1.00  0.00    -0.267 OA
HETATM   21  C17 UNL     1      41.447  25.465  15.851  1.00  0.00     0.132 C 
HETATM   22  N12 UNL     1      42.487  26.072  16.496  1.00  0.00    -0.321 N 
ATOM     23  H12 UNL     1      43.208  26.501  15.916  1.00  0.00     0.169 HD
BRANCH  16  24
HETATM   24  N4  UNL     1      34.953  22.406  18.051  1.00  0.00    -0.234 N 
ATOM     25  H42 UNL     1      34.085  22.937  18.120  1.00  0.00     0.174 HD
ATOM     26  H41 UNL     1      34.884  21.389  18.063  1.00  0.00     0.174 HD
ENDBRANCH  16  24
BRANCH  12  27
HETATM   27  C11 UNL     1      39.080  25.742  15.518  1.00  0.00     0.018 C 
HETATM   28  C12 UNL     1      38.549  26.904  15.292  1.00  0.00     0.020 C 
BRANCH  28  29
HETATM   29  C13 UNL     1      38.866  28.213  15.809  1.00  0.00     0.107 C 
HETATM   30  N6  UNL     1      38.133  28.782  16.742  1.00  0.00    -0.309 N 
ATOM     31  H6  UNL     1      38.383  29.709  17.086  1.00  0.00     0.186 HD
BRANCH  30  32
HETATM   32  N7  UNL     1      37.010  28.124  17.266  1.00  0.00    -0.272 N 
ATOM     33  H7  UNL     1      37.097  27.644  18.161  1.00  0.00     0.190 HD
BRANCH  32  34
HETATM   34  C14 UNL     1      35.759  28.100  16.599  1.00  0.00     0.190 C 
HETATM   35  N8  UNL     1      34.948  29.092  16.398  1.00  0.00    -0.360 N 
HETATM   36  C15 UNL     1      33.770  28.694  15.683  1.00  0.00     0.142 C 
ATOM     37  H8  UNL     1      35.127  30.046  16.713  1.00  0.00     0.162 HD
HETATM   38  C16 UNL     1      34.126  27.341  15.116  1.00  0.00     0.142 C 
HETATM   39  N9  UNL     1      35.193  26.930  16.029  1.00  0.00    -0.360 N 
ATOM     40  H9  UNL     1      35.480  25.970  16.223  1.00  0.00     0.162 HD
ENDBRANCH  32  34
ENDBRANCH  30  32
ENDBRANCH  28  29
ENDBRANCH  12  27
BRANCH  21  41
HETATM   41  N10 UNL     1      41.763  24.865  14.783  1.00  0.00    -0.291 N 
ATOM     42  H10 UNL     1      42.345  24.031  14.858  1.00  0.00     0.188 HD
BRANCH  41  43
HETATM   43  N11 UNL     1      41.372  25.266  13.525  1.00  0.00    -0.344 N 
ATOM     44 2H11 UNL     1      42.077  25.724  12.948  1.00  0.00     0.176 HD
ATOM     45 1H11 UNL     1      40.434  25.132  13.146  1.00  0.00     0.176 HD
ENDBRANCH  41  43
ENDBRANCH  21  41
ENDBRANCH   4   5
ENDBRANCH   3   4
TORSDOF 9
ENDMDL
MODEL 2
REMARK VINA RESULT: -8.481956888      1.807      2.307
REMARK  9 active torsions:
REMARK  status: ('A' for Active; 'I' for Inactive)
REMARK    1  A    between atoms: C2_3  and  S1_4 
REMARK    2  A    between atoms: S1_4  and  C3_5 
REMARK    3  A    between atoms: C8_15  and  N4_16 
REMARK    4  A    between atoms: C10_23  and  C11_24 
REMARK    5  A    between atoms: C12_25  and  C13_26 
REMARK    6  A    between atoms: N6_27  and  N7_29 
REMARK    7  A    between atoms: N7_29  and  C14_31 
REMARK    8  A    between atoms: C17_38  and  N10_39 
REMARK    9  A    between atoms: N10_39  and  N11_41 
ROOT
HETATM    1  N1  UNL     1      44.443  26.567  18.408  1.00  0.00    -0.197 NA
HETATM    2  C1  UNL     1      43.972  27.579  18.708  1.00  0.00     0.069 C 
HETATM    3  C2  UNL     1      43.376  28.865  19.082  1.00  0.00     0.206 C 
ENDROOT
BRANCH   3   4
HETATM    4  S1  UNL     1      42.003  29.289  17.980  1.00  0.00    -0.080 SA
BRANCH   4   5
HETATM    5  C3  UNL     1      41.157  27.787  17.525  1.00  0.00     0.149 C 
HETATM    6  N2  UNL     1      41.349  26.696  18.334  1.00  0.00    -0.303 N 
HETATM    7  C4  UNL     1      40.693  25.497  18.327  1.00  0.00     0.259 C 
ATOM      8  H2  UNL     1      42.083  26.791  19.036  1.00  0.00     0.171 HD
HETATM    9  O1  UNL     1      41.151  24.573  19.035  1.00  0.00    -0.267 OA
HETATM   10  C5  UNL     1      39.545  25.131  17.624  1.00  0.00     0.063 C 
HETATM   11  C6  UNL     1      38.916  23.865  17.852  1.00  0.00     0.065 A 
HETATM   12  C10 UNL     1      38.930  25.967  16.662  1.00  0.00     0.026 C 
HETATM   13  C7  UNL     1      37.959  23.601  18.813  1.00  0.00     0.124 A 
HETATM   14  C9  UNL     1      39.302  22.785  17.063  1.00  0.00     0.272 A 
HETATM   15  N3  UNL     1      37.481  22.356  18.921  1.00  0.00    -0.201 N 
HETATM   16  C8  UNL     1      37.866  21.316  18.148  1.00  0.00     0.678 A 
ATOM     17  H3  UNL     1      36.776  22.179  19.637  1.00  0.00     0.183 HD
HETATM   18  N5  UNL     1      38.794  21.553  17.208  1.00  0.00    -0.156 N 
ATOM     19  H5  UNL     1      39.113  20.796  16.604  1.00  0.00     0.187 HD
HETATM   20  O2  UNL     1      40.180  22.974  16.162  1.00  0.00    -0.267 OA
HETATM   21  C17 UNL     1      39.588  26.906  15.890  1.00  0.00     0.132 C 
HETATM   22  N12 UNL     1      40.394  27.886  16.396  1.00  0.00    -0.321 N 
ATOM     23  H12 UNL     1      40.427  28.770  15.887  1.00  0.00     0.169 HD
BRANCH  16  24
HETATM   24  N4  UNL     1      37.376  20.146  18.293  1.00  0.00    -0.234 N 
ATOM     25  H42 UNL     1      37.938  19.396  18.695  1.00  0.00     0.174 HD
ATOM     26  H41 UNL     1      36.420  19.920  18.017  1.00  0.00     0.174 HD
ENDBRANCH  16  24
BRANCH  12  27
HETATM   27  C11 UNL     1      37.567  25.723  16.440  1.00  0.00     0.018 C 
HETATM   28  C12 UNL     1      36.547  26.501  16.636  1.00  0.00     0.020 C 
BRANCH  28  29
HETATM   29  C13 UNL     1      36.461  27.848  17.145  1.00  0.00     0.107 C 
HETATM   30  N6  UNL     1      35.325  28.349  17.583  1.00  0.00    -0.309 N 
ATOM     31  H6  UNL     1      35.297  29.305  17.936  1.00  0.00     0.186 HD
BRANCH  30  32
HETATM   32  N7  UNL     1      34.154  27.577  17.568  1.00  0.00    -0.272 N 
ATOM     33  H7  UNL     1      34.112  26.739  18.147  1.00  0.00     0.190 HD
BRANCH  32  34
HETATM   34  C14 UNL     1      33.026  27.917  16.779  1.00  0.00     0.190 C 
HETATM   35  N8  UNL     1      32.538  29.099  16.561  1.00  0.00    -0.360 N 
HETATM   36  C15 UNL     1      31.386  29.061  15.708  1.00  0.00     0.142 C 
ATOM     37  H8  UNL     1      32.928  29.956  16.951  1.00  0.00     0.162 HD
HETATM   38  C16 UNL     1      31.428  27.682  15.095  1.00  0.00     0.142 C 
HETATM   39  N9  UNL     1      32.236  26.965  16.083  1.00  0.00    -0.360 N 
ATOM     40  H9  UNL     1      32.232  25.958  16.243  1.00  0.00     0.162 HD
ENDBRANCH  32  34
ENDBRANCH  30  32
ENDBRANCH  28  29
ENDBRANCH  12  27
BRANCH  21  41
HETATM   41  N10 UNL     1      39.554  26.848  14.627  1.00  0.00    -0.291 N 
ATOM     42  H10 UNL     1      38.889  27.447  14.138  1.00  0.00     0.188 HD
BRANCH  41  43
HETATM   43  N11 UNL     1      40.360  26.028  13.868  1.00  0.00    -0.344 N 
ATOM     44 2H11 UNL     1      41.277  25.801  14.251  1.00  0.00     0.176 HD
ATOM     45 1H11 UNL     1      40.094  25.643  12.961  1.00  0.00     0.176 HD
ENDBRANCH  41  43
ENDBRANCH  21  41
ENDBRANCH   4   5
ENDBRANCH   3   4
TORSDOF 9
ENDMDL
MODEL 3
REMARK VINA RESULT: -8.345907802      3.205      6.742
REMARK  9 active torsions:
REMARK  status: ('A' for Active; 'I' for Inactive)
REMARK    1  A    between atoms: C2_3  and  S1_4 
REMARK    2  A    between atoms: S1_4  and  C3_5 
REMARK    3  A    between atoms: C8_15  and  N4_16 
REMARK    4  A    between atoms: C10_23  and  C11_24 
REMARK    5  A    between atoms: C12_25  and  C13_26 
REMARK    6  A    between atoms: N6_27  and  N7_29 
REMARK    7  A    between atoms: N7_29  and  C14_31 
REMARK    8  A    between atoms: C17_38  and  N10_39 
REMARK    9  A    between atoms: N10_39  and  N11_41 
ROOT
HETATM    1  N1  UNL     1      37.377  25.677  19.274  1.00  0.00    -0.197 NA
HETATM    2  C1  UNL     1      38.142  25.151  18.585  1.00  0.00     0.069 C 
HETATM    3  C2  UNL     1      39.107  24.484  17.707  1.00  0.00     0.206 C 
ENDROOT
BRANCH   3   4
HETATM    4  S1  UNL     1      39.552  25.543  16.307  1.00  0.00    -0.080 SA
BRANCH   4   5
HETATM    5  C3  UNL     1      39.536  27.240  16.854  1.00  0.00     0.149 C 
HETATM    6  N2  UNL     1      40.733  27.775  17.259  1.00  0.00    -0.303 N 
HETATM    7  C4  UNL     1      41.039  29.076  17.544  1.00  0.00     0.259 C 
ATOM      8  H2  UNL     1      41.500  27.110  17.361  1.00  0.00     0.171 HD
HETATM    9  O1  UNL     1      42.148  29.317  18.069  1.00  0.00    -0.267 OA
HETATM   10  C5  UNL     1      40.273  30.223  17.330  1.00  0.00     0.063 C 
HETATM   11  C6  UNL     1      40.819  31.525  17.565  1.00  0.00     0.065 A 
HETATM   12  C10 UNL     1      38.935  30.183  16.871  1.00  0.00     0.026 C 
HETATM   13  C7  UNL     1      41.527  32.280  16.650  1.00  0.00     0.124 A 
HETATM   14  C9  UNL     1      40.655  32.092  18.826  1.00  0.00     0.272 A 
HETATM   15  N3  UNL     1      41.998  33.475  17.028  1.00  0.00    -0.201 N 
HETATM   16  C8  UNL     1      41.830  34.013  18.256  1.00  0.00     0.678 A 
ATOM     17  H3  UNL     1      42.519  34.018  16.339  1.00  0.00     0.183 HD
HETATM   18  N5  UNL     1      41.145  33.294  19.159  1.00  0.00    -0.156 N 
ATOM     19  H5  UNL     1      40.997  33.664  20.098  1.00  0.00     0.187 HD
HETATM   20  O2  UNL     1      40.009  31.439  19.706  1.00  0.00    -0.267 OA
HETATM   21  C17 UNL     1      38.048  29.148  17.100  1.00  0.00     0.132 C 
HETATM   22  N12 UNL     1      38.308  27.838  16.813  1.00  0.00    -0.321 N 
ATOM     23  H12 UNL     1      37.515  27.255  16.544  1.00  0.00     0.169 HD
BRANCH  16  24
HETATM   24  N4  UNL     1      42.300  35.160  18.564  1.00  0.00    -0.234 N 
ATOM     25  H42 UNL     1      42.750  35.741  17.857  1.00  0.00     0.174 HD
ATOM     26  H41 UNL     1      42.244  35.532  19.512  1.00  0.00     0.174 HD
ENDBRANCH  16  24
BRANCH  12  27
HETATM   27  C11 UNL     1      38.490  31.343  16.220  1.00  0.00     0.018 C 
HETATM   28  C12 UNL     1      38.221  31.534  14.966  1.00  0.00     0.020 C 
BRANCH  28  29
HETATM   29  C13 UNL     1      38.293  30.647  13.831  1.00  0.00     0.107 C 
HETATM   30  N6  UNL     1      37.230  30.013  13.381  1.00  0.00    -0.309 N 
ATOM     31  H6  UNL     1      37.314  29.392  12.577  1.00  0.00     0.186 HD
BRANCH  30  32
HETATM   32  N7  UNL     1      35.984  30.186  14.001  1.00  0.00    -0.272 N 
ATOM     33  H7  UNL     1      35.575  31.120  14.029  1.00  0.00     0.190 HD
BRANCH  32  34
HETATM   34  C14 UNL     1      35.269  29.112  14.590  1.00  0.00     0.190 C 
HETATM   35  N8  UNL     1      34.215  29.179  15.343  1.00  0.00    -0.360 N 
HETATM   36  C15 UNL     1      33.762  27.884  15.759  1.00  0.00     0.142 C 
ATOM     37  H8  UNL     1      33.761  30.053  15.608  1.00  0.00     0.162 HD
HETATM   38  C16 UNL     1      34.481  26.930  14.836  1.00  0.00     0.142 C 
HETATM   39  N9  UNL     1      35.625  27.747  14.430  1.00  0.00    -0.360 N 
ATOM     40  H9  UNL     1      36.521  27.398  14.091  1.00  0.00     0.162 HD
ENDBRANCH  32  34
ENDBRANCH  30  32
ENDBRANCH  28  29
ENDBRANCH  12  27
BRANCH  21  41
HETATM   41  N10 UNL     1      36.950  29.352  17.694  1.00  0.00    -0.291 N 
ATOM     42  H10 UNL     1      36.575  30.301  17.691  1.00  0.00     0.188 HD
BRANCH  41  43
HETATM   43  N11 UNL     1      36.229  28.377  18.345  1.00  0.00    -0.344 N 
ATOM     44 2H11 UNL     1      36.619  27.435  18.340  1.00  0.00     0.176 HD
ATOM     45 1H11 UNL     1      35.342  28.542  18.823  1.00  0.00     0.176 HD
ENDBRANCH  41  43
ENDBRANCH  21  41
ENDBRANCH   4   5
ENDBRANCH   3   4
TORSDOF 9
ENDMDL
MODEL 4
REMARK VINA RESULT: -8.282757716      1.845      2.304
REMARK  9 active torsions:
REMARK  status: ('A' for Active; 'I' for Inactive)
REMARK    1  A    between atoms: C2_3  and  S1_4 
REMARK    2  A    between atoms: S1_4  and  C3_5 
REMARK    3  A    between atoms: C8_15  and  N4_16 
REMARK    4  A    between atoms: C10_23  and  C11_24 
REMARK    5  A    between atoms: C12_25  and  C13_26 
REMARK    6  A    between atoms: N6_27  and  N7_29 
REMARK    7  A    between atoms: N7_29  and  C14_31 
REMARK    8  A    between atoms: C17_38  and  N10_39 
REMARK    9  A    between atoms: N10_39  and  N11_41 
ROOT
HETATM    1  N1  UNL     1      41.869  32.711  17.446  1.00  0.00    -0.197 NA
HETATM    2  C1  UNL     1      41.494  31.710  17.886  1.00  0.00     0.069 C 
HETATM    3  C2  UNL     1      41.017  30.439  18.438  1.00  0.00     0.206 C 
ENDROOT
BRANCH   3   4
HETATM    4  S1  UNL     1      42.227  29.119  18.168  1.00  0.00    -0.080 SA
BRANCH   4   5
HETATM    5  C3  UNL     1      41.356  27.647  17.667  1.00  0.00     0.149 C 
HETATM    6  N2  UNL     1      41.499  26.538  18.462  1.00  0.00    -0.303 N 
HETATM    7  C4  UNL     1      40.813  25.357  18.420  1.00  0.00     0.259 C 
ATOM      8  H2  UNL     1      42.216  26.604  19.185  1.00  0.00     0.171 HD
HETATM    9  O1  UNL     1      41.228  24.411  19.124  1.00  0.00    -0.267 OA
HETATM   10  C5  UNL     1      39.675  25.031  17.681  1.00  0.00     0.063 C 
HETATM   11  C6  UNL     1      39.008  23.779  17.872  1.00  0.00     0.065 A 
HETATM   12  C10 UNL     1      39.107  25.897  16.716  1.00  0.00     0.026 C 
HETATM   13  C7  UNL     1      38.020  23.524  18.803  1.00  0.00     0.124 A 
HETATM   14  C9  UNL     1      39.388  22.701  17.076  1.00  0.00     0.272 A 
HETATM   15  N3  UNL     1      37.508  22.291  18.878  1.00  0.00    -0.201 N 
HETATM   16  C8  UNL     1      37.887  21.253  18.099  1.00  0.00     0.678 A 
ATOM     17  H3  UNL     1      36.780  22.121  19.572  1.00  0.00     0.183 HD
HETATM   18  N5  UNL     1      38.846  21.481  17.188  1.00  0.00    -0.156 N 
ATOM     19  H5  UNL     1      39.161  20.724  16.581  1.00  0.00     0.187 HD
HETATM   20  O2  UNL     1      40.295  22.881  16.202  1.00  0.00    -0.267 OA
HETATM   21  C17 UNL     1      39.810  26.831  15.977  1.00  0.00     0.132 C 
HETATM   22  N12 UNL     1      40.626  27.782  16.520  1.00  0.00    -0.321 N 
ATOM     23  H12 UNL     1      40.696  28.672  16.026  1.00  0.00     0.169 HD
BRANCH  16  24
HETATM   24  N4  UNL     1      37.364  20.094  18.212  1.00  0.00    -0.234 N 
ATOM     25  H42 UNL     1      37.208  19.514  17.387  1.00  0.00     0.174 HD
ATOM     26  H41 UNL     1      37.088  19.709  19.116  1.00  0.00     0.174 HD
ENDBRANCH  16  24
BRANCH  12  27
HETATM   27  C11 UNL     1      37.745  25.692  16.455  1.00  0.00     0.018 C 
HETATM   28  C12 UNL     1      36.731  26.461  16.710  1.00  0.00     0.020 C 
BRANCH  28  29
HETATM   29  C13 UNL     1      36.652  27.754  17.343  1.00  0.00     0.107 C 
HETATM   30  N6  UNL     1      35.496  28.304  17.649  1.00  0.00    -0.309 N 
ATOM     31  H6  UNL     1      35.474  29.220  18.095  1.00  0.00     0.186 HD
BRANCH  30  32
HETATM   32  N7  UNL     1      34.294  27.638  17.365  1.00  0.00    -0.272 N 
ATOM     33  H7  UNL     1      34.112  26.741  17.816  1.00  0.00     0.190 HD
BRANCH  32  34
HETATM   34  C14 UNL     1      33.323  28.162  16.475  1.00  0.00     0.190 C 
HETATM   35  N8  UNL     1      33.214  27.944  15.201  1.00  0.00    -0.360 N 
HETATM   36  C15 UNL     1      32.105  28.645  14.623  1.00  0.00     0.142 C 
ATOM     37  H8  UNL     1      33.845  27.343  14.672  1.00  0.00     0.162 HD
HETATM   38  C16 UNL     1      31.275  29.063  15.813  1.00  0.00     0.142 C 
HETATM   39  N9  UNL     1      32.283  29.042  16.875  1.00  0.00    -0.360 N 
ATOM     40  H9  UNL     1      32.244  29.567  17.748  1.00  0.00     0.162 HD
ENDBRANCH  32  34
ENDBRANCH  30  32
ENDBRANCH  28  29
ENDBRANCH  12  27
BRANCH  21  41
HETATM   41  N10 UNL     1      39.808  26.793  14.712  1.00  0.00    -0.291 N 
ATOM     42  H10 UNL     1      39.326  27.540  14.212  1.00  0.00     0.188 HD
BRANCH  41  43
HETATM   43  N11 UNL     1      40.417  25.808  13.967  1.00  0.00    -0.344 N 
ATOM     44 2H11 UNL     1      40.438  24.872  14.370  1.00  0.00     0.176 HD
ATOM     45 1H11 UNL     1      40.840  25.961  13.050  1.00  0.00     0.176 HD
ENDBRANCH  41  43
ENDBRANCH  21  41
ENDBRANCH   4   5
ENDBRANCH   3   4
TORSDOF 9
ENDMDL
MODEL 5
REMARK VINA RESULT: -8.234862984      2.797      3.978
REMARK  9 active torsions:
REMARK  status: ('A' for Active; 'I' for Inactive)
REMARK    1  A    between atoms: C2_3  and  S1_4 
REMARK    2  A    between atoms: S1_4  and  C3_5 
REMARK    3  A    between atoms: C8_15  and  N4_16 
REMARK    4  A    between atoms: C10_23  and  C11_24 
REMARK    5  A    between atoms: C12_25  and  C13_26 
REMARK    6  A    between atoms: N6_27  and  N7_29 
REMARK    7  A    between atoms: N7_29  and  C14_31 
REMARK    8  A    between atoms: C17_38  and  N10_39 
REMARK    9  A    between atoms: N10_39  and  N11_41 
ROOT
HETATM    1  N1  UNL     1      39.818  33.115  14.251  1.00  0.00    -0.197 NA
HETATM    2  C1  UNL     1      40.357  33.040  15.271  1.00  0.00     0.069 C 
HETATM    3  C2  UNL     1      41.036  32.948  16.567  1.00  0.00     0.206 C 
ENDROOT
BRANCH   3   4
HETATM    4  S1  UNL     1      40.112  31.889  17.709  1.00  0.00    -0.080 SA
BRANCH   4   5
HETATM    5  C3  UNL     1      39.977  30.263  16.990  1.00  0.00     0.149 C 
HETATM    6  N2  UNL     1      40.715  29.263  17.570  1.00  0.00    -0.303 N 
HETATM    7  C4  UNL     1      40.661  27.916  17.346  1.00  0.00     0.259 C 
ATOM      8  H2  UNL     1      41.399  29.566  18.264  1.00  0.00     0.171 HD
HETATM    9  O1  UNL     1      41.552  27.200  17.854  1.00  0.00    -0.267 OA
HETATM   10  C5  UNL     1      39.728  27.188  16.607  1.00  0.00     0.063 C 
HETATM   11  C6  UNL     1      39.752  25.756  16.599  1.00  0.00     0.065 A 
HETATM   12  C10 UNL     1      38.710  27.797  15.834  1.00  0.00     0.026 C 
HETATM   13  C7  UNL     1      39.118  24.934  17.509  1.00  0.00     0.124 A 
HETATM   14  C9  UNL     1      40.493  25.115  15.610  1.00  0.00     0.272 A 
HETATM   15  N3  UNL     1      39.254  23.609  17.384  1.00  0.00    -0.201 N 
HETATM   16  C8  UNL     1      39.977  22.999  16.419  1.00  0.00     0.678 A 
ATOM     17  H3  UNL     1      38.779  23.017  18.066  1.00  0.00     0.183 HD
HETATM   18  N5  UNL     1      40.602  23.781  15.525  1.00  0.00    -0.156 N 
ATOM     19  H5  UNL     1      41.159  23.361  14.781  1.00  0.00     0.187 HD
HETATM   20  O2  UNL     1      41.098  25.826  14.746  1.00  0.00    -0.267 OA
HETATM   21  C17 UNL     1      38.800  29.045  15.245  1.00  0.00     0.132 C 
HETATM   22  N12 UNL     1      39.136  30.187  15.916  1.00  0.00    -0.321 N 
ATOM     23  H12 UNL     1      38.722  31.058  15.585  1.00  0.00     0.169 HD
BRANCH  16  24
HETATM   24  N4  UNL     1      40.075  21.728  16.345  1.00  0.00    -0.234 N 
ATOM     25  H42 UNL     1      40.900  21.251  16.707  1.00  0.00     0.174 HD
ATOM     26  H41 UNL     1      39.343  21.151  15.929  1.00  0.00     0.174 HD
ENDBRANCH  16  24
BRANCH  12  27
HETATM   27  C11 UNL     1      37.581  27.000  15.596  1.00  0.00     0.018 C 
HETATM   28  C12 UNL     1      36.499  26.872  16.299  1.00  0.00     0.020 C 
BRANCH  28  29
HETATM   29  C13 UNL     1      36.093  27.479  17.543  1.00  0.00     0.107 C 
HETATM   30  N6  UNL     1      35.123  28.367  17.594  1.00  0.00    -0.309 N 
ATOM     31  H6  UNL     1      34.860  28.779  18.489  1.00  0.00     0.186 HD
BRANCH  30  32
HETATM   32  N7  UNL     1      34.448  28.751  16.426  1.00  0.00    -0.272 N 
ATOM     33  H7  UNL     1      34.937  29.334  15.746  1.00  0.00     0.190 HD
BRANCH  32  34
HETATM   34  C14 UNL     1      33.112  28.362  16.153  1.00  0.00     0.190 C 
HETATM   35  N8  UNL     1      32.090  29.132  15.940  1.00  0.00    -0.360 N 
HETATM   36  C15 UNL     1      30.890  28.385  15.696  1.00  0.00     0.142 C 
ATOM     37  H8  UNL     1      32.134  30.151  15.946  1.00  0.00     0.162 HD
HETATM   38  C16 UNL     1      31.381  26.987  15.410  1.00  0.00     0.142 C 
HETATM   39  N9  UNL     1      32.687  27.011  16.070  1.00  0.00    -0.360 N 
ATOM     40  H9  UNL     1      33.201  26.199  16.410  1.00  0.00     0.162 HD
ENDBRANCH  32  34
ENDBRANCH  30  32
ENDBRANCH  28  29
ENDBRANCH  12  27
BRANCH  21  41
HETATM   41  N10 UNL     1      38.665  29.184  13.995  1.00  0.00    -0.291 N 
ATOM     42  H10 UNL     1      38.400  28.365  13.449  1.00  0.00     0.188 HD
BRANCH  41  43
HETATM   43  N11 UNL     1      38.853  30.372  13.324  1.00  0.00    -0.344 N 
ATOM     44 2H11 UNL     1      38.293  31.167  13.631  1.00  0.00     0.176 HD
ATOM     45 1H11 UNL     1      39.509  30.497  12.553  1.00  0.00     0.176 HD
ENDBRANCH  41  43
ENDBRANCH  21  41
ENDBRANCH   4   5
ENDBRANCH   3   4
TORSDOF 9
ENDMDL
