MODEL 1
REMARK VINA RESULT: -7.581848225      0.000      0.000
REMARK  15 active torsions:
REMARK  status: ('A' for Active; 'I' for Inactive)
REMARK    1  A    between atoms: N1_1  and  C1_5 
REMARK    2  A    between atoms: C3_7  and  N2_8 
REMARK    3  A    between atoms: C4_12  and  O1_13 
REMARK    4  A    between atoms: O1_13  and  N3_14 
REMARK    5  A    between atoms: N3_14  and  N4_15 
REMARK    6  A    between atoms: N3_14  and  C5_18 
REMARK    7  A    between atoms: C5_18  and  O2_19 
REMARK    8  A    between atoms: C5_18  and  C6_21 
REMARK    9  A    between atoms: C6_21  and  N5_22 
REMARK   10  A    between atoms: C6_21  and  C7_26 
REMARK   11  A    between atoms: C11_32  and  O3_33 
REMARK   12  A    between atoms: O3_33  and  C12_34 
REMARK   13  A    between atoms: C15_37  and  N6_38 
REMARK   14  A    between atoms: N6_38  and  O4_39 
REMARK   15  A    between atoms: C16_41  and  O5_42 
ROOT
HETATM    1  C1  UNL     1      41.751  24.862  16.477  1.00  0.00     0.214 C 
HETATM    2  C2  UNL     1      42.331  25.023  17.864  1.00  0.00     0.070 C 
HETATM    3  C3  UNL     1      42.893  26.371  18.152  1.00  0.00     0.217 C 
HETATM    4  C4  UNL     1      41.991  27.521  17.658  1.00  0.00     0.187 C 
HETATM    5  C10 UNL     1      40.656  26.850  17.341  1.00  0.00     0.070 C 
HETATM    6  C11 UNL     1      40.789  25.958  16.122  1.00  0.00     0.155 C 
ENDROOT
BRANCH   4   7
HETATM    7  O1  UNL     1      41.797  28.448  18.575  1.00  0.00    -0.249 OA
BRANCH   7   8
HETATM    8  N3  UNL     1      42.262  29.653  18.643  1.00  0.00    -0.146 N 
BRANCH   8   9
HETATM    9  N4  UNL     1      43.675  29.747  18.995  1.00  0.00    -0.317 N 
ATOM     10  H42 UNL     1      43.878  29.960  19.971  1.00  0.00     0.179 HD
ATOM     11  H41 UNL     1      44.321  29.575  18.224  1.00  0.00     0.179 HD
ENDBRANCH   8   9
BRANCH   8  12
HETATM   12  C5  UNL     1      41.603  30.863  18.446  1.00  0.00     0.193 C 
BRANCH  12  13
HETATM   13  O2  UNL     1      42.233  31.999  18.554  1.00  0.00    -0.345 OA
ATOM     14  H2  UNL     1      41.759  32.821  18.591  1.00  0.00     0.219 HD
ENDBRANCH  12  13
BRANCH  12  15
HETATM   15  C6  UNL     1      40.162  30.968  18.106  1.00  0.00     0.267 C 
BRANCH  15  16
HETATM   16  N5  UNL     1      39.504  32.059  18.679  1.00  0.00    -0.067 N 
ATOM     17  H53 UNL     1      40.021  32.397  19.491  1.00  0.00     0.275 HD
ATOM     18  H52 UNL     1      39.577  32.875  18.071  1.00  0.00     0.275 HD
ATOM     19  H51 UNL     1      38.530  31.889  18.926  1.00  0.00     0.275 HD
ENDBRANCH  15  16
BRANCH  15  20
HETATM   20  C7  UNL     1      40.079  30.851  16.591  1.00  0.00     0.044 C 
HETATM   21  C8  UNL     1      39.216  29.756  16.089  1.00  0.00     0.094 C 
HETATM   22  S1  UNL     1      37.500  30.368  16.063  1.00  0.00    -0.097 SA
HETATM   23  S2  UNL     1      38.066  32.442  15.796  1.00  0.00    -0.097 SA
HETATM   24  C9  UNL     1      39.853  32.130  15.878  1.00  0.00     0.094 C 
ENDBRANCH  15  20
ENDBRANCH  12  15
ENDBRANCH   8  12
ENDBRANCH   7   8
ENDBRANCH   4   7
BRANCH   3  25
HETATM   25  N2  UNL     1      44.202  26.490  17.554  1.00  0.00    -0.072 N 
ATOM     26  H23 UNL     1      44.949  26.302  18.223  1.00  0.00     0.274 HD
ATOM     27  H22 UNL     1      44.396  25.732  16.900  1.00  0.00     0.274 HD
ATOM     28  H21 UNL     1      44.299  27.408  17.118  1.00  0.00     0.274 HD
ENDBRANCH   3  25
BRANCH   6  29
HETATM   29  O3  UNL     1      39.566  25.412  15.836  1.00  0.00    -0.372 OA
BRANCH  29  30
HETATM   30  C12 UNL     1      38.601  25.649  16.794  1.00  0.00     0.175 C 
HETATM   31  C13 UNL     1      37.304  26.132  16.314  1.00  0.00     0.005 C 
HETATM   32  C14 UNL     1      36.366  25.735  17.205  1.00  0.00    -0.002 C 
HETATM   33  C15 UNL     1      36.989  24.970  18.313  1.00  0.00     0.160 C 
HETATM   34  C16 UNL     1      38.233  24.427  17.600  1.00  0.00     0.176 C 
BRANCH  33  35
HETATM   35  N6  UNL     1      36.152  23.893  18.794  1.00  0.00    -0.092 NA
BRANCH  35  36
HETATM   36  O4  UNL     1      35.037  23.889  17.988  1.00  0.00    -0.295 OA
ATOM     37  H4  UNL     1      35.331  23.585  17.137  1.00  0.00     0.238 HD
ENDBRANCH  35  36
ENDBRANCH  33  35
BRANCH  34  38
HETATM   38  O5  UNL     1      37.799  23.454  16.680  1.00  0.00    -0.391 OA
ATOM     39  H5  UNL     1      38.238  23.642  15.859  1.00  0.00     0.210 HD
ENDBRANCH  34  38
ENDBRANCH  29  30
ENDBRANCH   6  29
BRANCH   1  40
HETATM   40  N1  UNL     1      41.122  23.531  16.467  1.00  0.00    -0.072 N 
ATOM     41  H13 UNL     1      41.526  22.891  15.784  1.00  0.00     0.274 HD
ATOM     42  H12 UNL     1      41.331  22.971  17.295  1.00  0.00     0.274 HD
ATOM     43  H11 UNL     1      40.126  23.702  16.328  1.00  0.00     0.274 HD
ENDBRANCH   1  40
TORSDOF 15
ENDMDL
MODEL 2
REMARK VINA RESULT: -7.539129249      3.232      6.565
REMARK  15 active torsions:
REMARK  status: ('A' for Active; 'I' for Inactive)
REMARK    1  A    between atoms: N1_1  and  C1_5 
REMARK    2  A    between atoms: C3_7  and  N2_8 
REMARK    3  A    between atoms: C4_12  and  O1_13 
REMARK    4  A    between atoms: O1_13  and  N3_14 
REMARK    5  A    between atoms: N3_14  and  N4_15 
REMARK    6  A    between atoms: N3_14  and  C5_18 
REMARK    7  A    between atoms: C5_18  and  O2_19 
REMARK    8  A    between atoms: C5_18  and  C6_21 
REMARK    9  A    between atoms: C6_21  and  N5_22 
REMARK   10  A    between atoms: C6_21  and  C7_26 
REMARK   11  A    between atoms: C11_32  and  O3_33 
REMARK   12  A    between atoms: O3_33  and  C12_34 
REMARK   13  A    between atoms: C15_37  and  N6_38 
REMARK   14  A    between atoms: N6_38  and  O4_39 
REMARK   15  A    between atoms: C16_41  and  O5_42 
ROOT
HETATM    1  C1  UNL     1      39.557  23.649  17.352  1.00  0.00     0.214 C 
HETATM    2  C2  UNL     1      38.171  23.320  16.844  1.00  0.00     0.070 C 
HETATM    3  C3  UNL     1      37.103  24.249  17.304  1.00  0.00     0.217 C 
HETATM    4  C4  UNL     1      37.517  25.734  17.228  1.00  0.00     0.187 C 
HETATM    5  C10 UNL     1      38.784  25.733  16.375  1.00  0.00     0.070 C 
HETATM    6  C11 UNL     1      39.929  25.086  17.129  1.00  0.00     0.155 C 
ENDROOT
BRANCH   4   7
HETATM    7  O1  UNL     1      36.608  26.489  16.644  1.00  0.00    -0.249 OA
BRANCH   7   8
HETATM    8  N3  UNL     1      35.572  27.076  17.150  1.00  0.00    -0.146 N 
BRANCH   8   9
HETATM    9  N4  UNL     1      35.873  28.207  18.022  1.00  0.00    -0.317 N 
ATOM     10  H42 UNL     1      36.749  28.694  17.833  1.00  0.00     0.179 HD
ATOM     11  H41 UNL     1      35.164  28.403  18.729  1.00  0.00     0.179 HD
ENDBRANCH   8   9
BRANCH   8  12
HETATM   12  C5  UNL     1      34.224  26.770  16.994  1.00  0.00     0.193 C 
BRANCH  12  13
HETATM   13  O2  UNL     1      33.713  25.692  17.518  1.00  0.00    -0.345 OA
ATOM     14  H2  UNL     1      32.841  25.398  17.283  1.00  0.00     0.219 HD
ENDBRANCH  12  13
BRANCH  12  15
HETATM   15  C6  UNL     1      33.271  27.618  16.236  1.00  0.00     0.267 C 
BRANCH  15  16
HETATM   16  N5  UNL     1      32.758  28.704  16.950  1.00  0.00    -0.067 N 
ATOM     17  H53 UNL     1      31.755  28.589  17.096  1.00  0.00     0.275 HD
ATOM     18  H52 UNL     1      33.082  28.675  17.917  1.00  0.00     0.275 HD
ATOM     19  H51 UNL     1      32.953  29.616  16.539  1.00  0.00     0.275 HD
ENDBRANCH  15  16
BRANCH  15  20
HETATM   20  C7  UNL     1      33.956  27.944  14.916  1.00  0.00     0.044 C 
HETATM   21  C8  UNL     1      34.080  26.809  13.973  1.00  0.00     0.094 C 
HETATM   22  S1  UNL     1      32.516  26.683  13.045  1.00  0.00    -0.097 SA
HETATM   23  S2  UNL     1      32.041  28.789  13.232  1.00  0.00    -0.097 SA
HETATM   24  C9  UNL     1      33.485  29.186  14.260  1.00  0.00     0.094 C 
ENDBRANCH  15  20
ENDBRANCH  12  15
ENDBRANCH   8  12
ENDBRANCH   7   8
ENDBRANCH   4   7
BRANCH   3  25
HETATM   25  N2  UNL     1      36.721  23.921  18.657  1.00  0.00    -0.072 N 
ATOM     26  H23 UNL     1      35.828  23.429  18.696  1.00  0.00     0.274 HD
ATOM     27  H22 UNL     1      37.309  23.188  19.054  1.00  0.00     0.274 HD
ATOM     28  H21 UNL     1      36.720  24.766  19.229  1.00  0.00     0.274 HD
ENDBRANCH   3  25
BRANCH   6  29
HETATM   29  O3  UNL     1      41.059  25.146  16.358  1.00  0.00    -0.372 OA
BRANCH  29  30
HETATM   30  C12 UNL     1      41.935  26.152  16.713  1.00  0.00     0.175 C 
HETATM   31  C13 UNL     1      41.385  27.249  17.512  1.00  0.00     0.005 C 
HETATM   32  C14 UNL     1      42.396  27.763  18.251  1.00  0.00    -0.002 C 
HETATM   33  C15 UNL     1      43.661  27.034  17.983  1.00  0.00     0.160 C 
HETATM   34  C16 UNL     1      43.101  25.675  17.545  1.00  0.00     0.176 C 
BRANCH  33  35
HETATM   35  N6  UNL     1      44.494  26.901  19.158  1.00  0.00    -0.092 NA
BRANCH  35  36
HETATM   36  O4  UNL     1      45.359  27.969  19.134  1.00  0.00    -0.295 OA
ATOM     37  H4  UNL     1      46.061  27.751  19.736  1.00  0.00     0.238 HD
ENDBRANCH  35  36
ENDBRANCH  33  35
BRANCH  34  38
HETATM   38  O5  UNL     1      42.557  25.058  18.686  1.00  0.00    -0.391 OA
ATOM     39  H5  UNL     1      42.658  25.674  19.402  1.00  0.00     0.210 HD
ENDBRANCH  34  38
ENDBRANCH  29  30
ENDBRANCH   6  29
BRANCH   1  40
HETATM   40  N1  UNL     1      40.460  22.715  16.658  1.00  0.00    -0.072 N 
ATOM     41  H13 UNL     1      40.513  21.794  17.093  1.00  0.00     0.274 HD
ATOM     42  H12 UNL     1      40.109  22.400  15.753  1.00  0.00     0.274 HD
ATOM     43  H11 UNL     1      41.359  23.195  16.606  1.00  0.00     0.274 HD
ENDBRANCH   1  40
TORSDOF 15
ENDMDL
MODEL 3
REMARK VINA RESULT: -7.493857035      1.237      1.614
REMARK  15 active torsions:
REMARK  status: ('A' for Active; 'I' for Inactive)
REMARK    1  A    between atoms: N1_1  and  C1_5 
REMARK    2  A    between atoms: C3_7  and  N2_8 
REMARK    3  A    between atoms: C4_12  and  O1_13 
REMARK    4  A    between atoms: O1_13  and  N3_14 
REMARK    5  A    between atoms: N3_14  and  N4_15 
REMARK    6  A    between atoms: N3_14  and  C5_18 
REMARK    7  A    between atoms: C5_18  and  O2_19 
REMARK    8  A    between atoms: C5_18  and  C6_21 
REMARK    9  A    between atoms: C6_21  and  N5_22 
REMARK   10  A    between atoms: C6_21  and  C7_26 
REMARK   11  A    between atoms: C11_32  and  O3_33 
REMARK   12  A    between atoms: O3_33  and  C12_34 
REMARK   13  A    between atoms: C15_37  and  N6_38 
REMARK   14  A    between atoms: N6_38  and  O4_39 
REMARK   15  A    between atoms: C16_41  and  O5_42 
ROOT
HETATM    1  C1  UNL     1      41.832  24.943  16.529  1.00  0.00     0.214 C 
HETATM    2  C2  UNL     1      42.389  25.098  17.926  1.00  0.00     0.070 C 
HETATM    3  C3  UNL     1      42.984  26.432  18.215  1.00  0.00     0.217 C 
HETATM    4  C4  UNL     1      42.125  27.603  17.695  1.00  0.00     0.187 C 
HETATM    5  C10 UNL     1      40.778  26.968  17.356  1.00  0.00     0.070 C 
HETATM    6  C11 UNL     1      40.909  26.063  16.146  1.00  0.00     0.155 C 
ENDROOT
BRANCH   4   7
HETATM    7  O1  UNL     1      41.940  28.543  18.600  1.00  0.00    -0.249 OA
BRANCH   7   8
HETATM    8  N3  UNL     1      41.817  29.822  18.451  1.00  0.00    -0.146 N 
BRANCH   8   9
HETATM    9  N4  UNL     1      43.056  30.578  18.592  1.00  0.00    -0.317 N 
ATOM     10  H42 UNL     1      43.568  30.435  19.463  1.00  0.00     0.179 HD
ATOM     11  H41 UNL     1      43.293  31.167  17.794  1.00  0.00     0.179 HD
ENDBRANCH   8   9
BRANCH   8  12
HETATM   12  C5  UNL     1      40.673  30.571  18.193  1.00  0.00     0.193 C 
BRANCH  12  13
HETATM   13  O2  UNL     1      39.871  30.929  19.156  1.00  0.00    -0.345 OA
ATOM     14  H2  UNL     1      39.257  31.645  19.044  1.00  0.00     0.219 HD
ENDBRANCH  12  13
BRANCH  12  15
HETATM   15  C6  UNL     1      40.271  31.018  16.837  1.00  0.00     0.267 C 
BRANCH  15  16
HETATM   16  N5  UNL     1      39.388  30.161  16.176  1.00  0.00    -0.067 N 
ATOM     17  H53 UNL     1      38.798  30.688  15.532  1.00  0.00     0.275 HD
ATOM     18  H52 UNL     1      39.895  29.574  15.513  1.00  0.00     0.275 HD
ATOM     19  H51 UNL     1      38.813  29.584  16.789  1.00  0.00     0.275 HD
ENDBRANCH  15  16
BRANCH  15  20
HETATM   20  C7  UNL     1      39.820  32.464  16.987  1.00  0.00     0.044 C 
HETATM   21  C8  UNL     1      40.908  33.468  16.993  1.00  0.00     0.094 C 
HETATM   22  S1  UNL     1      41.319  33.854  15.260  1.00  0.00    -0.097 SA
HETATM   23  S2  UNL     1      39.339  33.392  14.512  1.00  0.00    -0.097 SA
HETATM   24  C9  UNL     1      38.684  32.856  16.119  1.00  0.00     0.094 C 
ENDBRANCH  15  20
ENDBRANCH  12  15
ENDBRANCH   8  12
ENDBRANCH   7   8
ENDBRANCH   4   7
BRANCH   3  25
HETATM   25  N2  UNL     1      44.307  26.509  17.643  1.00  0.00    -0.072 N 
ATOM     26  H23 UNL     1      44.674  27.461  17.650  1.00  0.00     0.274 HD
ATOM     27  H22 UNL     1      45.010  26.076  18.242  1.00  0.00     0.274 HD
ATOM     28  H21 UNL     1      44.300  26.107  16.705  1.00  0.00     0.274 HD
ENDBRANCH   3  25
BRANCH   6  29
HETATM   29  O3  UNL     1      39.677  25.550  15.840  1.00  0.00    -0.372 OA
BRANCH  29  30
HETATM   30  C12 UNL     1      38.699  25.826  16.774  1.00  0.00     0.175 C 
HETATM   31  C13 UNL     1      37.411  26.292  16.257  1.00  0.00     0.005 C 
HETATM   32  C14 UNL     1      36.458  25.932  17.149  1.00  0.00    -0.002 C 
HETATM   33  C15 UNL     1      37.064  25.210  18.296  1.00  0.00     0.160 C 
HETATM   34  C16 UNL     1      38.317  24.637  17.622  1.00  0.00     0.176 C 
BRANCH  33  35
HETATM   35  N6  UNL     1      36.218  24.154  18.807  1.00  0.00    -0.092 NA
BRANCH  35  36
HETATM   36  O4  UNL     1      35.118  24.115  17.982  1.00  0.00    -0.295 OA
ATOM     37  H4  UNL     1      35.085  23.234  17.630  1.00  0.00     0.238 HD
ENDBRANCH  35  36
ENDBRANCH  33  35
BRANCH  34  38
HETATM   38  O5  UNL     1      37.893  23.630  16.736  1.00  0.00    -0.391 OA
ATOM     39  H5  UNL     1      38.544  23.585  16.044  1.00  0.00     0.210 HD
ENDBRANCH  34  38
ENDBRANCH  29  30
ENDBRANCH   6  29
BRANCH   1  40
HETATM   40  N1  UNL     1      41.165  23.630  16.517  1.00  0.00    -0.072 N 
ATOM     41  H13 UNL     1      40.225  23.643  16.912  1.00  0.00     0.274 HD
ATOM     42  H12 UNL     1      40.898  23.313  15.584  1.00  0.00     0.274 HD
ATOM     43  H11 UNL     1      41.804  22.996  16.998  1.00  0.00     0.274 HD
ENDBRANCH   1  40
TORSDOF 15
ENDMDL
MODEL 4
REMARK VINA RESULT: -7.489857149      2.030      2.674
REMARK  15 active torsions:
REMARK  status: ('A' for Active; 'I' for Inactive)
REMARK    1  A    between atoms: N1_1  and  C1_5 
REMARK    2  A    between atoms: C3_7  and  N2_8 
REMARK    3  A    between atoms: C4_12  and  O1_13 
REMARK    4  A    between atoms: O1_13  and  N3_14 
REMARK    5  A    between atoms: N3_14  and  N4_15 
REMARK    6  A    between atoms: N3_14  and  C5_18 
REMARK    7  A    between atoms: C5_18  and  O2_19 
REMARK    8  A    between atoms: C5_18  and  C6_21 
REMARK    9  A    between atoms: C6_21  and  N5_22 
REMARK   10  A    between atoms: C6_21  and  C7_26 
REMARK   11  A    between atoms: C11_32  and  O3_33 
REMARK   12  A    between atoms: O3_33  and  C12_34 
REMARK   13  A    between atoms: C15_37  and  N6_38 
REMARK   14  A    between atoms: N6_38  and  O4_39 
REMARK   15  A    between atoms: C16_41  and  O5_42 
ROOT
HETATM    1  C1  UNL     1      39.931  24.155  16.285  1.00  0.00     0.214 C 
HETATM    2  C2  UNL     1      41.331  23.914  16.804  1.00  0.00     0.070 C 
HETATM    3  C3  UNL     1      42.164  25.141  16.939  1.00  0.00     0.217 C 
HETATM    4  C4  UNL     1      41.402  26.324  17.571  1.00  0.00     0.187 C 
HETATM    5  C10 UNL     1      40.135  25.697  18.150  1.00  0.00     0.070 C 
HETATM    6  C11 UNL     1      39.214  25.240  17.036  1.00  0.00     0.155 C 
ENDROOT
BRANCH   4   7
HETATM    7  O1  UNL     1      42.075  26.905  18.544  1.00  0.00    -0.249 OA
BRANCH   7   8
HETATM    8  N3  UNL     1      42.920  27.884  18.495  1.00  0.00    -0.146 N 
BRANCH   8   9
HETATM    9  N4  UNL     1      44.314  27.484  18.337  1.00  0.00    -0.317 N 
ATOM     10  H42 UNL     1      44.524  26.509  18.549  1.00  0.00     0.179 HD
ATOM     11  H41 UNL     1      44.938  28.224  18.016  1.00  0.00     0.179 HD
ENDBRANCH   8   9
BRANCH   8  12
HETATM   12  C5  UNL     1      42.686  29.252  18.588  1.00  0.00     0.193 C 
BRANCH  12  13
HETATM   13  O2  UNL     1      43.370  29.998  19.409  1.00  0.00    -0.345 OA
ATOM     14  H2  UNL     1      44.315  29.929  19.465  1.00  0.00     0.219 HD
ENDBRANCH  12  13
BRANCH  12  15
HETATM   15  C6  UNL     1      41.664  29.968  17.785  1.00  0.00     0.267 C 
BRANCH  15  16
HETATM   16  N5  UNL     1      40.479  29.258  17.578  1.00  0.00    -0.067 N 
ATOM     17  H53 UNL     1      39.917  29.252  18.429  1.00  0.00     0.275 HD
ATOM     18  H52 UNL     1      39.858  29.779  16.959  1.00  0.00     0.275 HD
ATOM     19  H51 UNL     1      40.606  28.307  17.232  1.00  0.00     0.275 HD
ENDBRANCH  15  16
BRANCH  15  20
HETATM   20  C7  UNL     1      41.522  31.345  18.417  1.00  0.00     0.044 C 
HETATM   21  C8  UNL     1      42.005  32.474  17.588  1.00  0.00     0.094 C 
HETATM   22  S1  UNL     1      40.662  32.940  16.448  1.00  0.00    -0.097 SA
HETATM   23  S2  UNL     1      39.081  32.256  17.762  1.00  0.00    -0.097 SA
HETATM   24  C9  UNL     1      40.203  31.613  19.037  1.00  0.00     0.094 C 
ENDBRANCH  15  20
ENDBRANCH  12  15
ENDBRANCH   8  12
ENDBRANCH   7   8
ENDBRANCH   4   7
BRANCH   3  25
HETATM   25  N2  UNL     1      42.673  25.528  15.644  1.00  0.00    -0.072 N 
ATOM     26  H23 UNL     1      41.927  25.652  14.959  1.00  0.00     0.274 HD
ATOM     27  H22 UNL     1      43.033  26.482  15.644  1.00  0.00     0.274 HD
ATOM     28  H21 UNL     1      43.372  24.853  15.333  1.00  0.00     0.274 HD
ENDBRANCH   3  25
BRANCH   6  29
HETATM   29  O3  UNL     1      38.069  24.728  17.587  1.00  0.00    -0.372 OA
BRANCH  29  30
HETATM   30  C12 UNL     1      36.908  25.143  16.968  1.00  0.00     0.175 C 
HETATM   31  C13 UNL     1      35.661  24.531  17.434  1.00  0.00     0.005 C 
HETATM   32  C14 UNL     1      34.663  25.418  17.212  1.00  0.00    -0.002 C 
HETATM   33  C15 UNL     1      35.194  26.658  16.593  1.00  0.00     0.160 C 
HETATM   34  C16 UNL     1      36.636  26.621  17.113  1.00  0.00     0.176 C 
BRANCH  33  35
HETATM   35  N6  UNL     1      34.508  27.849  17.042  1.00  0.00    -0.092 NA
BRANCH  35  36
HETATM   36  O4  UNL     1      33.768  27.472  18.137  1.00  0.00    -0.295 OA
ATOM     37  H4  UNL     1      32.966  27.980  18.098  1.00  0.00     0.238 HD
ENDBRANCH  35  36
ENDBRANCH  33  35
BRANCH  34  38
HETATM   38  O5  UNL     1      36.592  26.889  18.493  1.00  0.00    -0.391 OA
ATOM     39  H5  UNL     1      36.889  27.785  18.605  1.00  0.00     0.210 HD
ENDBRANCH  34  38
ENDBRANCH  29  30
ENDBRANCH   6  29
BRANCH   1  40
HETATM   40  N1  UNL     1      39.248  22.853  16.382  1.00  0.00    -0.072 N 
ATOM     41  H13 UNL     1      38.345  22.897  16.853  1.00  0.00     0.274 HD
ATOM     42  H12 UNL     1      38.901  22.504  15.488  1.00  0.00     0.274 HD
ATOM     43  H11 UNL     1      39.916  22.229  16.835  1.00  0.00     0.274 HD
ENDBRANCH   1  40
TORSDOF 15
ENDMDL
MODEL 5
REMARK VINA RESULT: -7.431560670      3.320      6.756
REMARK  15 active torsions:
REMARK  status: ('A' for Active; 'I' for Inactive)
REMARK    1  A    between atoms: N1_1  and  C1_5 
REMARK    2  A    between atoms: C3_7  and  N2_8 
REMARK    3  A    between atoms: C4_12  and  O1_13 
REMARK    4  A    between atoms: O1_13  and  N3_14 
REMARK    5  A    between atoms: N3_14  and  N4_15 
REMARK    6  A    between atoms: N3_14  and  C5_18 
REMARK    7  A    between atoms: C5_18  and  O2_19 
REMARK    8  A    between atoms: C5_18  and  C6_21 
REMARK    9  A    between atoms: C6_21  and  N5_22 
REMARK   10  A    between atoms: C6_21  and  C7_26 
REMARK   11  A    between atoms: C11_32  and  O3_33 
REMARK   12  A    between atoms: O3_33  and  C12_34 
REMARK   13  A    between atoms: C15_37  and  N6_38 
REMARK   14  A    between atoms: N6_38  and  O4_39 
REMARK   15  A    between atoms: C16_41  and  O5_42 
ROOT
HETATM    1  C1  UNL     1      39.743  24.049  17.390  1.00  0.00     0.214 C 
HETATM    2  C2  UNL     1      38.351  23.826  16.842  1.00  0.00     0.070 C 
HETATM    3  C3  UNL     1      37.323  24.774  17.350  1.00  0.00     0.217 C 
HETATM    4  C4  UNL     1      37.811  26.238  17.381  1.00  0.00     0.187 C 
HETATM    5  C10 UNL     1      39.090  26.232  16.548  1.00  0.00     0.070 C 
HETATM    6  C11 UNL     1      40.190  25.478  17.271  1.00  0.00     0.155 C 
ENDROOT
BRANCH   4   7
HETATM    7  O1  UNL     1      36.950  27.076  16.839  1.00  0.00    -0.249 OA
BRANCH   7   8
HETATM    8  N3  UNL     1      35.905  27.636  17.355  1.00  0.00    -0.146 N 
BRANCH   8   9
HETATM    9  N4  UNL     1      36.186  28.606  18.409  1.00  0.00    -0.317 N 
ATOM     10  H42 UNL     1      36.857  29.337  18.174  1.00  0.00     0.179 HD
ATOM     11  H41 UNL     1      35.669  28.459  19.276  1.00  0.00     0.179 HD
ENDBRANCH   8   9
BRANCH   8  12
HETATM   12  C5  UNL     1      34.561  27.432  17.059  1.00  0.00     0.193 C 
BRANCH  12  13
HETATM   13  O2  UNL     1      33.645  27.540  17.979  1.00  0.00    -0.345 OA
ATOM     14  H2  UNL     1      32.901  26.950  18.004  1.00  0.00     0.219 HD
ENDBRANCH  12  13
BRANCH  12  15
HETATM   15  C6  UNL     1      34.061  27.081  15.707  1.00  0.00     0.267 C 
BRANCH  15  16
HETATM   16  N5  UNL     1      34.255  25.747  15.340  1.00  0.00    -0.067 N 
ATOM     17  H53 UNL     1      34.302  25.663  14.324  1.00  0.00     0.275 HD
ATOM     18  H52 UNL     1      35.198  25.447  15.586  1.00  0.00     0.275 HD
ATOM     19  H51 UNL     1      33.567  25.096  15.717  1.00  0.00     0.275 HD
ENDBRANCH  15  16
BRANCH  15  20
HETATM   20  C7  UNL     1      32.631  27.596  15.641  1.00  0.00     0.044 C 
HETATM   21  C8  UNL     1      32.461  28.904  14.967  1.00  0.00     0.094 C 
HETATM   22  S1  UNL     1      32.355  28.596  13.174  1.00  0.00    -0.097 SA
HETATM   23  S2  UNL     1      31.545  26.599  13.395  1.00  0.00    -0.097 SA
HETATM   24  C9  UNL     1      31.627  26.596  15.209  1.00  0.00     0.094 C 
ENDBRANCH  15  20
ENDBRANCH  12  15
ENDBRANCH   8  12
ENDBRANCH   7   8
ENDBRANCH   4   7
BRANCH   3  25
HETATM   25  N2  UNL     1      36.903  24.375  18.673  1.00  0.00    -0.072 N 
ATOM     26  H23 UNL     1      36.653  25.175  19.255  1.00  0.00     0.274 HD
ATOM     27  H22 UNL     1      35.995  23.910  18.663  1.00  0.00     0.274 HD
ATOM     28  H21 UNL     1      37.626  23.798  19.104  1.00  0.00     0.274 HD
ENDBRANCH   3  25
BRANCH   6  29
HETATM   29  O3  UNL     1      41.334  25.533  16.520  1.00  0.00    -0.372 OA
BRANCH  29  30
HETATM   30  C12 UNL     1      42.215  26.524  16.903  1.00  0.00     0.175 C 
HETATM   31  C13 UNL     1      41.663  27.623  17.697  1.00  0.00     0.005 C 
HETATM   32  C14 UNL     1      42.663  28.118  18.462  1.00  0.00    -0.002 C 
HETATM   33  C15 UNL     1      43.924  27.374  18.218  1.00  0.00     0.160 C 
HETATM   34  C16 UNL     1      43.356  26.026  17.758  1.00  0.00     0.176 C 
BRANCH  33  35
HETATM   35  N6  UNL     1      44.728  27.221  19.411  1.00  0.00    -0.092 NA
BRANCH  35  36
HETATM   36  O4  UNL     1      45.608  28.277  19.414  1.00  0.00    -0.295 OA
ATOM     37  H4  UNL     1      46.458  27.909  19.628  1.00  0.00     0.238 HD
ENDBRANCH  35  36
ENDBRANCH  33  35
BRANCH  34  38
HETATM   38  O5  UNL     1      42.776  25.409  18.881  1.00  0.00    -0.391 OA
ATOM     39  H5  UNL     1      43.001  24.487  18.831  1.00  0.00     0.210 HD
ENDBRANCH  34  38
ENDBRANCH  29  30
ENDBRANCH   6  29
BRANCH   1  40
HETATM   40  N1  UNL     1      40.611  23.120  16.646  1.00  0.00    -0.072 N 
ATOM     41  H13 UNL     1      40.216  22.813  15.758  1.00  0.00     0.274 HD
ATOM     42  H12 UNL     1      41.447  23.560  16.260  1.00  0.00     0.274 HD
ATOM     43  H11 UNL     1      40.809  22.357  17.293  1.00  0.00     0.274 HD
ENDBRANCH   1  40
TORSDOF 15
ENDMDL
