MODEL 1
REMARK VINA RESULT: -9.474208356      0.000      0.000
REMARK  10 active torsions:
REMARK  status: ('A' for Active; 'I' for Inactive)
REMARK    1  A    between atoms: C2_4  and  N2_5 
REMARK    2  A    between atoms: C2_4  and  C6_17 
REMARK    3  A    between atoms: N2_5  and  C3_7 
REMARK       I    between atoms: N4_10  and  C4_11 
REMARK    4  A    between atoms: C9_20  and  N7_21 
REMARK    5  A    between atoms: N7_21  and  N8_23 
REMARK    6  A    between atoms: C10_25  and  C12_27 
REMARK    7  A    between atoms: N11_34  and  C14_35 
REMARK    8  A    between atoms: C14_35  and  C15_36 
REMARK    9  A    between atoms: C15_36  and  O3_37 
REMARK   10  A    between atoms: C15_36  and  O4_39 
ROOT
HETATM    1  C6  UNL     1      40.684  30.580  17.967  1.00  0.00     0.008 A 
HETATM    2  C7  UNL     1      41.934  30.294  18.436  1.00  0.00     0.017 A 
HETATM    3  C8  UNL     1      42.433  28.996  18.305  1.00  0.00     0.032 A 
HETATM    4  C9  UNL     1      41.725  27.982  17.723  1.00  0.00     0.048 A 
HETATM    5  C16 UNL     1      40.469  28.305  17.262  1.00  0.00     0.032 A 
HETATM    6  C17 UNL     1      39.937  29.560  17.367  1.00  0.00     0.017 A 
ENDROOT
BRANCH   4   7
HETATM    7  N7  UNL     1      42.175  26.653  17.589  1.00  0.00    -0.301 N 
ATOM      8  H7  UNL     1      43.184  26.504  17.580  1.00  0.00     0.187 HD
BRANCH   7   9
HETATM    9  N8  UNL     1      41.384  25.550  17.469  1.00  0.00    -0.301 N 
HETATM   10  C10 UNL     1      41.019  24.865  16.494  1.00  0.00     0.067 C 
HETATM   11  C11 UNL     1      41.522  25.294  15.138  1.00  0.00     0.074 C 
ATOM     12  H8  UNL     1      41.015  25.217  18.360  1.00  0.00     0.186 HD
BRANCH  10  13
HETATM   13  C12 UNL     1      40.157  23.691  16.563  1.00  0.00     0.150 A 
HETATM   14  N9  UNL     1      40.579  22.432  16.209  1.00  0.00    -0.280 N 
HETATM   15  N10 UNL     1      39.617  21.561  16.393  1.00  0.00    -0.249 N 
ATOM     16  H9  UNL     1      41.509  22.207  15.853  1.00  0.00     0.189 HD
HETATM   17  C13 UNL     1      38.554  22.197  16.860  1.00  0.00     0.343 A 
ATOM     18  H10 UNL     1      39.677  20.560  16.208  1.00  0.00     0.192 HD
HETATM   19  O2  UNL     1      37.412  21.758  17.178  1.00  0.00    -0.245 OA
HETATM   20  N11 UNL     1      38.894  23.522  16.962  1.00  0.00    -0.277 N 
BRANCH  20  21
HETATM   21  C14 UNL     1      37.989  24.560  17.389  1.00  0.00     0.196 C 
BRANCH  21  22
HETATM   22  C15 UNL     1      37.861  24.674  18.893  1.00  0.00     0.272 C 
BRANCH  22  23
HETATM   23  O3  UNL     1      39.120  24.385  19.482  1.00  0.00    -0.370 OA
ATOM     24  H3  UNL     1      39.223  24.921  20.260  1.00  0.00     0.212 HD
ENDBRANCH  22  23
BRANCH  22  25
HETATM   25  O4  UNL     1      36.896  23.890  19.466  1.00  0.00    -0.370 OA
ATOM     26  H4  UNL     1      37.209  23.236  20.080  1.00  0.00     0.212 HD
ENDBRANCH  22  25
ENDBRANCH  21  22
ENDBRANCH  20  21
ENDBRANCH  10  13
ENDBRANCH   7   9
ENDBRANCH   4   7
BRANCH   1  27
HETATM   27  C2  UNL     1      40.119  31.907  18.075  1.00  0.00     0.113 C 
HETATM   28  N1  UNL     1      39.249  32.398  17.371  1.00  0.00    -0.380 N 
HETATM   29  C1  UNL     1      38.379  32.222  16.321  1.00  0.00     0.147 C 
ATOM     30  H1  UNL     1      39.108  33.351  17.707  1.00  0.00     0.160 HD
BRANCH  27  31
HETATM   31  N2  UNL     1      40.675  32.762  19.130  1.00  0.00    -0.312 N 
ATOM     32  H2  UNL     1      40.479  32.546  20.107  1.00  0.00     0.170 HD
BRANCH  31  33
HETATM   33  C3  UNL     1      41.482  33.886  18.807  1.00  0.00     0.214 C 
HETATM   34  N3  UNL     1      41.706  34.984  19.431  1.00  0.00    -0.247 N 
HETATM   35  N4  UNL     1      42.585  35.766  18.681  1.00  0.00    -0.142 N 
ATOM     36  H3  UNL     1      41.305  35.244  20.332  1.00  0.00     0.192 HD
HETATM   37  C4  UNL     1      43.427  36.827  19.116  1.00  0.00     0.252 C 
HETATM   38  N5  UNL     1      42.484  35.292  17.360  1.00  0.00     0.006 NA
HETATM   39  C5  UNL     1      43.457  37.245  20.541  1.00  0.00     0.121 C 
HETATM   40  O1  UNL     1      44.154  37.412  18.272  1.00  0.00    -0.271 OA
HETATM   41  N6  UNL     1      42.241  33.933  17.589  1.00  0.00    -0.252 N 
ATOM     42  H6  UNL     1      42.538  33.145  17.014  1.00  0.00     0.187 HD
ENDBRANCH  31  33
ENDBRANCH  27  31
ENDBRANCH   1  27
TORSDOF 10
ENDMDL
MODEL 2
REMARK VINA RESULT: -9.418737621      3.402      4.616
REMARK  10 active torsions:
REMARK  status: ('A' for Active; 'I' for Inactive)
REMARK    1  A    between atoms: C2_4  and  N2_5 
REMARK    2  A    between atoms: C2_4  and  C6_17 
REMARK    3  A    between atoms: N2_5  and  C3_7 
REMARK       I    between atoms: N4_10  and  C4_11 
REMARK    4  A    between atoms: C9_20  and  N7_21 
REMARK    5  A    between atoms: N7_21  and  N8_23 
REMARK    6  A    between atoms: C10_25  and  C12_27 
REMARK    7  A    between atoms: N11_34  and  C14_35 
REMARK    8  A    between atoms: C14_35  and  C15_36 
REMARK    9  A    between atoms: C15_36  and  O3_37 
REMARK   10  A    between atoms: C15_36  and  O4_39 
ROOT
HETATM    1  C6  UNL     1      39.146  30.100  16.334  1.00  0.00     0.008 A 
HETATM    2  C7  UNL     1      39.372  29.155  15.375  1.00  0.00     0.017 A 
HETATM    3  C8  UNL     1      38.631  27.972  15.392  1.00  0.00     0.032 A 
HETATM    4  C9  UNL     1      37.675  27.706  16.332  1.00  0.00     0.048 A 
HETATM    5  C16 UNL     1      37.472  28.680  17.284  1.00  0.00     0.032 A 
HETATM    6  C17 UNL     1      38.173  29.854  17.310  1.00  0.00     0.017 A 
ENDROOT
BRANCH   4   7
HETATM    7  N7  UNL     1      36.917  26.520  16.405  1.00  0.00    -0.301 N 
ATOM      8  H7  UNL     1      35.903  26.619  16.444  1.00  0.00     0.187 HD
BRANCH   7   9
HETATM    9  N8  UNL     1      37.417  25.253  16.428  1.00  0.00    -0.301 N 
HETATM   10  C10 UNL     1      38.304  24.700  17.107  1.00  0.00     0.067 C 
HETATM   11  C11 UNL     1      39.007  25.555  18.130  1.00  0.00     0.074 C 
ATOM     12  H8  UNL     1      36.975  24.630  15.752  1.00  0.00     0.186 HD
BRANCH  10  13
HETATM   13  C12 UNL     1      38.706  23.302  16.991  1.00  0.00     0.150 A 
HETATM   14  N9  UNL     1      39.706  22.880  16.147  1.00  0.00    -0.280 N 
HETATM   15  N10 UNL     1      39.879  21.586  16.261  1.00  0.00    -0.249 N 
ATOM     16  H9  UNL     1      40.236  23.487  15.522  1.00  0.00     0.189 HD
HETATM   17  C13 UNL     1      39.024  21.121  17.157  1.00  0.00     0.343 A 
ATOM     18  H10 UNL     1      40.561  21.029  15.745  1.00  0.00     0.192 HD
HETATM   19  O2  UNL     1      38.841  19.944  17.581  1.00  0.00    -0.245 OA
HETATM   20  N11 UNL     1      38.295  22.192  17.607  1.00  0.00    -0.277 N 
BRANCH  20  21
HETATM   21  C14 UNL     1      37.218  22.096  18.562  1.00  0.00     0.196 C 
BRANCH  21  22
HETATM   22  C15 UNL     1      35.868  22.478  17.995  1.00  0.00     0.272 C 
BRANCH  22  23
HETATM   23  O3  UNL     1      35.908  22.333  16.583  1.00  0.00    -0.370 OA
ATOM     24  H3  UNL     1      36.363  23.080  16.213  1.00  0.00     0.212 HD
ENDBRANCH  22  23
BRANCH  22  25
HETATM   25  O4  UNL     1      35.425  23.733  18.316  1.00  0.00    -0.370 OA
ATOM     26  H4  UNL     1      35.512  24.387  17.632  1.00  0.00     0.212 HD
ENDBRANCH  22  25
ENDBRANCH  21  22
ENDBRANCH  20  21
ENDBRANCH  10  13
ENDBRANCH   7   9
ENDBRANCH   4   7
BRANCH   1  27
HETATM   27  C2  UNL     1      39.884  31.344  16.363  1.00  0.00     0.113 C 
HETATM   28  N1  UNL     1      39.881  32.223  15.515  1.00  0.00    -0.380 N 
HETATM   29  C1  UNL     1      39.385  32.663  14.311  1.00  0.00     0.147 C 
ATOM     30  H1  UNL     1      40.527  32.942  15.842  1.00  0.00     0.160 HD
BRANCH  27  31
HETATM   31  N2  UNL     1      40.750  31.553  17.528  1.00  0.00    -0.312 N 
ATOM     32  H2  UNL     1      40.688  32.427  18.051  1.00  0.00     0.170 HD
BRANCH  31  33
HETATM   33  C3  UNL     1      41.675  30.555  17.939  1.00  0.00     0.214 C 
HETATM   34  N3  UNL     1      41.597  29.275  17.960  1.00  0.00    -0.247 N 
HETATM   35  N4  UNL     1      42.791  28.751  18.458  1.00  0.00    -0.142 N 
ATOM     36  H3  UNL     1      40.790  28.727  17.661  1.00  0.00     0.192 HD
HETATM   37  C4  UNL     1      43.330  27.445  18.288  1.00  0.00     0.252 C 
HETATM   38  N5  UNL     1      43.390  29.795  19.188  1.00  0.00     0.006 NA
HETATM   39  C5  UNL     1      42.612  26.418  17.492  1.00  0.00     0.121 C 
HETATM   40  O1  UNL     1      44.435  27.170  18.824  1.00  0.00    -0.271 OA
HETATM   41  N6  UNL     1      42.973  30.904  18.444  1.00  0.00    -0.252 N 
ATOM     42  H6  UNL     1      43.482  31.775  18.292  1.00  0.00     0.187 HD
ENDBRANCH  31  33
ENDBRANCH  27  31
ENDBRANCH   1  27
TORSDOF 10
ENDMDL
MODEL 3
REMARK VINA RESULT: -9.327652859      2.269     10.215
REMARK  10 active torsions:
REMARK  status: ('A' for Active; 'I' for Inactive)
REMARK    1  A    between atoms: C2_4  and  N2_5 
REMARK    2  A    between atoms: C2_4  and  C6_17 
REMARK    3  A    between atoms: N2_5  and  C3_7 
REMARK       I    between atoms: N4_10  and  C4_11 
REMARK    4  A    between atoms: C9_20  and  N7_21 
REMARK    5  A    between atoms: N7_21  and  N8_23 
REMARK    6  A    between atoms: C10_25  and  C12_27 
REMARK    7  A    between atoms: N11_34  and  C14_35 
REMARK    8  A    between atoms: C14_35  and  C15_36 
REMARK    9  A    between atoms: C15_36  and  O3_37 
REMARK   10  A    between atoms: C15_36  and  O4_39 
ROOT
HETATM    1  C6  UNL     1      41.658  26.928  17.705  1.00  0.00     0.008 A 
HETATM    2  C7  UNL     1      42.880  27.081  18.296  1.00  0.00     0.017 A 
HETATM    3  C8  UNL     1      43.323  28.362  18.628  1.00  0.00     0.032 A 
HETATM    4  C9  UNL     1      42.588  29.489  18.389  1.00  0.00     0.048 A 
HETATM    5  C16 UNL     1      41.362  29.299  17.793  1.00  0.00     0.032 A 
HETATM    6  C17 UNL     1      40.884  28.065  17.449  1.00  0.00     0.017 A 
ENDROOT
BRANCH   4   7
HETATM    7  N7  UNL     1      43.001  30.804  18.684  1.00  0.00    -0.301 N 
ATOM      8  H7  UNL     1      43.562  30.936  19.526  1.00  0.00     0.187 HD
BRANCH   7   9
HETATM    9  N8  UNL     1      42.718  31.914  17.947  1.00  0.00    -0.301 N 
HETATM   10  C10 UNL     1      41.777  32.732  17.964  1.00  0.00     0.067 C 
HETATM   11  C11 UNL     1      40.696  32.498  18.989  1.00  0.00     0.074 C 
ATOM     12  H8  UNL     1      43.420  32.119  17.236  1.00  0.00     0.186 HD
BRANCH  10  13
HETATM   13  C12 UNL     1      41.646  33.886  17.083  1.00  0.00     0.150 A 
HETATM   14  N9  UNL     1      40.934  33.851  15.907  1.00  0.00    -0.280 N 
HETATM   15  N10 UNL     1      40.956  35.027  15.328  1.00  0.00    -0.249 N 
ATOM     16  H9  UNL     1      40.457  33.028  15.539  1.00  0.00     0.189 HD
HETATM   17  C13 UNL     1      41.665  35.855  16.078  1.00  0.00     0.343 A 
ATOM     18  H10 UNL     1      40.502  35.264  14.446  1.00  0.00     0.192 HD
HETATM   19  O2  UNL     1      41.945  37.076  15.908  1.00  0.00    -0.245 OA
HETATM   20  N11 UNL     1      42.094  35.141  17.167  1.00  0.00    -0.277 N 
BRANCH  20  21
HETATM   21  C14 UNL     1      42.942  35.675  18.204  1.00  0.00     0.196 C 
BRANCH  21  22
HETATM   22  C15 UNL     1      42.189  36.094  19.449  1.00  0.00     0.272 C 
BRANCH  22  23
HETATM   23  O3  UNL     1      42.577  35.250  20.522  1.00  0.00    -0.370 OA
ATOM     24  H3  UNL     1      43.289  35.666  20.995  1.00  0.00     0.212 HD
ENDBRANCH  22  23
BRANCH  22  25
HETATM   25  O4  UNL     1      40.825  36.102  19.341  1.00  0.00    -0.370 OA
ATOM     26  H4  UNL     1      40.368  36.680  19.941  1.00  0.00     0.212 HD
ENDBRANCH  22  25
ENDBRANCH  21  22
ENDBRANCH  20  21
ENDBRANCH  10  13
ENDBRANCH   7   9
ENDBRANCH   4   7
BRANCH   1  27
HETATM   27  C2  UNL     1      41.149  25.624  17.342  1.00  0.00     0.113 C 
HETATM   28  N1  UNL     1      41.256  25.065  16.261  1.00  0.00    -0.380 N 
HETATM   29  C1  UNL     1      41.753  25.115  14.980  1.00  0.00     0.147 C 
ATOM     30  H1  UNL     1      40.764  24.175  16.345  1.00  0.00     0.160 HD
BRANCH  27  31
HETATM   31  N2  UNL     1      40.398  24.911  18.382  1.00  0.00    -0.312 N 
ATOM     32  H2  UNL     1      40.901  24.469  19.152  1.00  0.00     0.170 HD
BRANCH  31  33
HETATM   33  C3  UNL     1      38.980  24.830  18.331  1.00  0.00     0.214 C 
HETATM   34  N3  UNL     1      38.098  25.606  17.818  1.00  0.00    -0.247 N 
HETATM   35  N4  UNL     1      36.829  25.069  18.042  1.00  0.00    -0.142 N 
ATOM     36  H3  UNL     1      38.292  26.478  17.325  1.00  0.00     0.192 HD
HETATM   37  C4  UNL     1      35.618  25.321  17.339  1.00  0.00     0.252 C 
HETATM   38  N5  UNL     1      36.974  24.194  19.134  1.00  0.00     0.006 NA
HETATM   39  C5  UNL     1      35.580  26.266  16.194  1.00  0.00     0.121 C 
HETATM   40  O1  UNL     1      34.570  24.727  17.702  1.00  0.00    -0.271 OA
HETATM   41  N6  UNL     1      38.276  23.727  18.923  1.00  0.00    -0.252 N 
ATOM     42  H6  UNL     1      38.647  22.803  19.143  1.00  0.00     0.187 HD
ENDBRANCH  31  33
ENDBRANCH  27  31
ENDBRANCH   1  27
TORSDOF 10
ENDMDL
MODEL 4
REMARK VINA RESULT: -9.276429291      2.074     10.650
REMARK  10 active torsions:
REMARK  status: ('A' for Active; 'I' for Inactive)
REMARK    1  A    between atoms: C2_4  and  N2_5 
REMARK    2  A    between atoms: C2_4  and  C6_17 
REMARK    3  A    between atoms: N2_5  and  C3_7 
REMARK       I    between atoms: N4_10  and  C4_11 
REMARK    4  A    between atoms: C9_20  and  N7_21 
REMARK    5  A    between atoms: N7_21  and  N8_23 
REMARK    6  A    between atoms: C10_25  and  C12_27 
REMARK    7  A    between atoms: N11_34  and  C14_35 
REMARK    8  A    between atoms: C14_35  and  C15_36 
REMARK    9  A    between atoms: C15_36  and  O3_37 
REMARK   10  A    between atoms: C15_36  and  O4_39 
ROOT
HETATM    1  C6  UNL     1      42.421  26.720  17.811  1.00  0.00     0.008 A 
HETATM    2  C7  UNL     1      43.554  27.114  18.463  1.00  0.00     0.017 A 
HETATM    3  C8  UNL     1      43.694  28.448  18.848  1.00  0.00     0.032 A 
HETATM    4  C9  UNL     1      42.741  29.397  18.602  1.00  0.00     0.048 A 
HETATM    5  C16 UNL     1      41.612  28.967  17.944  1.00  0.00     0.032 A 
HETATM    6  C17 UNL     1      41.429  27.672  17.546  1.00  0.00     0.017 A 
ENDROOT
BRANCH   4   7
HETATM    7  N7  UNL     1      42.845  30.760  18.950  1.00  0.00    -0.301 N 
ATOM      8  H7  UNL     1      43.126  30.974  19.907  1.00  0.00     0.187 HD
BRANCH   7   9
HETATM    9  N8  UNL     1      42.605  31.815  18.123  1.00  0.00    -0.301 N 
HETATM   10  C10 UNL     1      41.623  32.565  17.962  1.00  0.00     0.067 C 
HETATM   11  C11 UNL     1      40.420  32.302  18.831  1.00  0.00     0.074 C 
ATOM     12  H8  UNL     1      43.390  32.037  17.510  1.00  0.00     0.186 HD
BRANCH  10  13
HETATM   13  C12 UNL     1      41.552  33.669  17.011  1.00  0.00     0.150 A 
HETATM   14  N9  UNL     1      40.941  33.559  15.784  1.00  0.00    -0.280 N 
HETATM   15  N10 UNL     1      40.997  34.703  15.146  1.00  0.00    -0.249 N 
ATOM     16  H9  UNL     1      40.507  32.710  15.422  1.00  0.00     0.189 HD
HETATM   17  C13 UNL     1      41.629  35.583  15.906  1.00  0.00     0.343 A 
ATOM     18  H10 UNL     1      40.615  34.886  14.218  1.00  0.00     0.192 HD
HETATM   19  O2  UNL     1      41.907  36.797  15.695  1.00  0.00    -0.245 OA
HETATM   20  N11 UNL     1      41.974  34.934  17.065  1.00  0.00    -0.277 N 
BRANCH  20  21
HETATM   21  C14 UNL     1      42.725  35.537  18.138  1.00  0.00     0.196 C 
BRANCH  21  22
HETATM   22  C15 UNL     1      41.866  35.999  19.296  1.00  0.00     0.272 C 
BRANCH  22  23
HETATM   23  O3  UNL     1      41.996  35.069  20.360  1.00  0.00    -0.370 OA
ATOM     24  H3  UNL     1      42.833  35.209  20.787  1.00  0.00     0.212 HD
ENDBRANCH  22  23
BRANCH  22  25
HETATM   25  O4  UNL     1      40.541  36.188  19.011  1.00  0.00    -0.370 OA
ATOM     26  H4  UNL     1      39.969  36.288  19.763  1.00  0.00     0.212 HD
ENDBRANCH  22  25
ENDBRANCH  21  22
ENDBRANCH  20  21
ENDBRANCH  10  13
ENDBRANCH   7   9
ENDBRANCH   4   7
BRANCH   1  27
HETATM   27  C2  UNL     1      42.223  25.350  17.392  1.00  0.00     0.113 C 
HETATM   28  N1  UNL     1      42.901  24.381  17.696  1.00  0.00    -0.380 N 
HETATM   29  C1  UNL     1      43.973  23.901  18.411  1.00  0.00     0.147 C 
ATOM     30  H1  UNL     1      42.497  23.581  17.208  1.00  0.00     0.160 HD
BRANCH  27  31
HETATM   31  N2  UNL     1      41.100  25.111  16.478  1.00  0.00    -0.312 N 
ATOM     32  H2  UNL     1      41.141  25.471  15.525  1.00  0.00     0.170 HD
BRANCH  31  33
HETATM   33  C3  UNL     1      39.956  24.383  16.904  1.00  0.00     0.214 C 
HETATM   34  N3  UNL     1      39.609  23.161  16.733  1.00  0.00    -0.247 N 
HETATM   35  N4  UNL     1      38.381  22.941  17.360  1.00  0.00    -0.142 N 
ATOM     36  H3  UNL     1      40.145  22.460  16.221  1.00  0.00     0.192 HD
HETATM   37  C4  UNL     1      37.810  21.713  17.796  1.00  0.00     0.252 C 
HETATM   38  N5  UNL     1      37.787  24.210  17.487  1.00  0.00     0.006 NA
HETATM   39  C5  UNL     1      38.530  20.427  17.612  1.00  0.00     0.121 C 
HETATM   40  O1  UNL     1      36.679  21.730  18.346  1.00  0.00    -0.271 OA
HETATM   41  N6  UNL     1      38.920  25.010  17.675  1.00  0.00    -0.252 N 
ATOM     42  H6  UNL     1      38.993  25.857  18.239  1.00  0.00     0.187 HD
ENDBRANCH  31  33
ENDBRANCH  27  31
ENDBRANCH   1  27
TORSDOF 10
ENDMDL
MODEL 5
REMARK VINA RESULT: -9.084377887      3.785      8.857
REMARK  10 active torsions:
REMARK  status: ('A' for Active; 'I' for Inactive)
REMARK    1  A    between atoms: C2_4  and  N2_5 
REMARK    2  A    between atoms: C2_4  and  C6_17 
REMARK    3  A    between atoms: N2_5  and  C3_7 
REMARK       I    between atoms: N4_10  and  C4_11 
REMARK    4  A    between atoms: C9_20  and  N7_21 
REMARK    5  A    between atoms: N7_21  and  N8_23 
REMARK    6  A    between atoms: C10_25  and  C12_27 
REMARK    7  A    between atoms: N11_34  and  C14_35 
REMARK    8  A    between atoms: C14_35  and  C15_36 
REMARK    9  A    between atoms: C15_36  and  O3_37 
REMARK   10  A    between atoms: C15_36  and  O4_39 
ROOT
HETATM    1  C6  UNL     1      35.768  27.451  15.874  1.00  0.00     0.008 A 
HETATM    2  C7  UNL     1      35.855  28.307  16.935  1.00  0.00     0.017 A 
HETATM    3  C8  UNL     1      36.992  29.104  17.079  1.00  0.00     0.032 A 
HETATM    4  C9  UNL     1      38.040  29.071  16.202  1.00  0.00     0.048 A 
HETATM    5  C16 UNL     1      37.920  28.198  15.146  1.00  0.00     0.032 A 
HETATM    6  C17 UNL     1      36.827  27.397  14.960  1.00  0.00     0.017 A 
ENDROOT
BRANCH   4   7
HETATM    7  N7  UNL     1      39.218  29.837  16.318  1.00  0.00    -0.301 N 
ATOM      8  H7  UNL     1      39.190  30.789  15.952  1.00  0.00     0.187 HD
BRANCH   7   9
HETATM    9  N8  UNL     1      40.390  29.421  16.873  1.00  0.00    -0.301 N 
HETATM   10  C10 UNL     1      41.015  29.760  17.897  1.00  0.00     0.067 C 
HETATM   11  C11 UNL     1      40.399  30.850  18.737  1.00  0.00     0.074 C 
ATOM     12  H8  UNL     1      40.850  28.681  16.343  1.00  0.00     0.186 HD
BRANCH  10  13
HETATM   13  C12 UNL     1      42.279  29.184  18.343  1.00  0.00     0.150 A 
HETATM   14  N9  UNL     1      43.371  29.949  18.677  1.00  0.00    -0.280 N 
HETATM   15  N10 UNL     1      44.360  29.182  19.068  1.00  0.00    -0.249 N 
ATOM     16  H9  UNL     1      43.407  30.968  18.628  1.00  0.00     0.189 HD
HETATM   17  C13 UNL     1      43.967  27.920  19.006  1.00  0.00     0.343 A 
ATOM     18  H10 UNL     1      45.279  29.505  19.371  1.00  0.00     0.192 HD
HETATM   19  O2  UNL     1      44.588  26.855  19.287  1.00  0.00    -0.245 OA
HETATM   20  N11 UNL     1      42.673  27.926  18.552  1.00  0.00    -0.277 N 
BRANCH  20  21
HETATM   21  C14 UNL     1      41.897  26.737  18.299  1.00  0.00     0.196 C 
BRANCH  21  22
HETATM   22  C15 UNL     1      42.071  26.185  16.900  1.00  0.00     0.272 C 
BRANCH  22  23
HETATM   23  O3  UNL     1      40.934  26.538  16.127  1.00  0.00    -0.370 OA
ATOM     24  H3  UNL     1      40.433  25.751  15.945  1.00  0.00     0.212 HD
ENDBRANCH  22  23
BRANCH  22  25
HETATM   25  O4  UNL     1      42.282  24.835  16.819  1.00  0.00    -0.370 OA
ATOM     26  H4  UNL     1      42.996  24.564  16.254  1.00  0.00     0.212 HD
ENDBRANCH  22  25
ENDBRANCH  21  22
ENDBRANCH  20  21
ENDBRANCH  10  13
ENDBRANCH   7   9
ENDBRANCH   4   7
BRANCH   1  27
HETATM   27  C2  UNL     1      34.612  26.605  15.675  1.00  0.00     0.113 C 
HETATM   28  N1  UNL     1      33.809  26.659  14.756  1.00  0.00    -0.380 N 
HETATM   29  C1  UNL     1      33.436  27.271  13.583  1.00  0.00     0.147 C 
ATOM     30  H1  UNL     1      33.111  25.937  14.939  1.00  0.00     0.160 HD
BRANCH  27  31
HETATM   31  N2  UNL     1      34.369  25.591  16.707  1.00  0.00    -0.312 N 
ATOM     32  H2  UNL     1      33.466  25.562  17.181  1.00  0.00     0.170 HD
BRANCH  31  33
HETATM   33  C3  UNL     1      35.374  24.647  17.054  1.00  0.00     0.214 C 
HETATM   34  N3  UNL     1      36.606  24.792  17.375  1.00  0.00    -0.247 N 
HETATM   35  N4  UNL     1      37.164  23.538  17.627  1.00  0.00    -0.142 N 
ATOM     36  H3  UNL     1      37.101  25.682  17.438  1.00  0.00     0.192 HD
HETATM   37  C4  UNL     1      38.322  23.214  18.389  1.00  0.00     0.252 C 
HETATM   38  N5  UNL     1      36.338  22.613  16.962  1.00  0.00     0.006 NA
HETATM   39  C5  UNL     1      39.122  24.274  19.053  1.00  0.00     0.121 C 
HETATM   40  O1  UNL     1      38.661  22.007  18.496  1.00  0.00    -0.271 OA
HETATM   41  N6  UNL     1      35.093  23.240  17.089  1.00  0.00    -0.252 N 
ATOM     42  H6  UNL     1      34.181  22.793  17.186  1.00  0.00     0.187 HD
ENDBRANCH  31  33
ENDBRANCH  27  31
ENDBRANCH   1  27
TORSDOF 10
ENDMDL
