MODEL 1
REMARK VINA RESULT: -4.453872203      0.000      0.000
REMARK  5 active torsions:
REMARK  status: ('A' for Active; 'I' for Inactive)
REMARK    1  A    between atoms: C2_2  and  N1_3 
REMARK    2  A    between atoms: C2_2  and  C4_10 
REMARK    3  A    between atoms: N1_3  and  C3_5 
REMARK    4  A    between atoms: C3_5  and  N2_6 
REMARK    5  A    between atoms: N2_6  and  N3_7 
ROOT
HETATM    1  N1  UNL     1      73.640  44.590  26.089  1.00  0.00    -0.361 N 
ATOM      2  H1  UNL     1      74.235  44.465  26.908  1.00  0.00     0.162 HD
ENDROOT
BRANCH   1   3
HETATM    3  C2  UNL     1      73.063  45.881  25.831  1.00  0.00     0.168 C 
HETATM    4  C1  UNL     1      71.871  45.673  24.899  1.00  0.00     0.042 C 
BRANCH   3   5
HETATM    5  C4  UNL     1      72.648  46.539  27.092  1.00  0.00     0.253 C 
HETATM    6  N4  UNL     1      72.881  47.911  27.358  1.00  0.00    -0.060 NA
HETATM    7  O1  UNL     1      72.060  45.876  27.985  1.00  0.00    -0.275 OA
ENDBRANCH   3   5
ENDBRANCH   1   3
BRANCH   1   8
HETATM    8  C3  UNL     1      73.402  43.490  25.238  1.00  0.00     0.297 C 
BRANCH   8   9
HETATM    9  N2  UNL     1      74.348  42.803  24.833  1.00  0.00    -0.329 NA
BRANCH   9  10
HETATM   10  N3  UNL     1      75.419  42.367  24.429  1.00  0.00    -0.279 N 
ATOM     11  H32 UNL     1      75.005  42.093  23.539  1.00  0.00     0.191 HD
ATOM     12  H31 UNL     1      76.388  42.074  24.301  1.00  0.00     0.191 HD
ENDBRANCH   9  10
ENDBRANCH   8   9
ENDBRANCH   1   8
TORSDOF 5
ENDMDL
MODEL 2
REMARK VINA RESULT: -4.397250478      1.080      1.080
REMARK  5 active torsions:
REMARK  status: ('A' for Active; 'I' for Inactive)
REMARK    1  A    between atoms: C2_2  and  N1_3 
REMARK    2  A    between atoms: C2_2  and  C4_10 
REMARK    3  A    between atoms: N1_3  and  C3_5 
REMARK    4  A    between atoms: C3_5  and  N2_6 
REMARK    5  A    between atoms: N2_6  and  N3_7 
ROOT
HETATM    1  N1  UNL     1      73.609  44.631  25.995  1.00  0.00    -0.361 N 
ATOM      2  H1  UNL     1      74.192  44.552  26.828  1.00  0.00     0.162 HD
ENDROOT
BRANCH   1   3
HETATM    3  C2  UNL     1      73.031  45.905  25.661  1.00  0.00     0.168 C 
HETATM    4  C1  UNL     1      71.840  45.642  24.742  1.00  0.00     0.042 C 
BRANCH   3   5
HETATM    5  C4  UNL     1      72.616  46.636  26.881  1.00  0.00     0.253 C 
HETATM    6  N4  UNL     1      72.091  45.987  28.026  1.00  0.00    -0.060 NA
HETATM    7  O1  UNL     1      72.723  47.888  26.932  1.00  0.00    -0.275 OA
ENDBRANCH   3   5
ENDBRANCH   1   3
BRANCH   1   8
HETATM    8  C3  UNL     1      73.388  43.488  25.199  1.00  0.00     0.297 C 
BRANCH   8   9
HETATM    9  N2  UNL     1      74.345  42.800  24.821  1.00  0.00    -0.329 NA
BRANCH   9  10
HETATM   10  N3  UNL     1      75.426  42.364  24.445  1.00  0.00    -0.279 N 
ATOM     11  H32 UNL     1      75.736  42.223  25.407  1.00  0.00     0.191 HD
ATOM     12  H31 UNL     1      76.238  42.039  23.921  1.00  0.00     0.191 HD
ENDBRANCH   9  10
ENDBRANCH   8   9
ENDBRANCH   1   8
TORSDOF 5
ENDMDL
MODEL 3
REMARK VINA RESULT: -4.305198891      1.645      4.352
REMARK  5 active torsions:
REMARK  status: ('A' for Active; 'I' for Inactive)
REMARK    1  A    between atoms: C2_2  and  N1_3 
REMARK    2  A    between atoms: C2_2  and  C4_10 
REMARK    3  A    between atoms: N1_3  and  C3_5 
REMARK    4  A    between atoms: C3_5  and  N2_6 
REMARK    5  A    between atoms: N2_6  and  N3_7 
ROOT
HETATM    1  N1  UNL     1      73.114  45.647  26.880  1.00  0.00    -0.361 N 
ATOM      2  H1  UNL     1      73.947  45.437  27.429  1.00  0.00     0.162 HD
ENDROOT
BRANCH   1   3
HETATM    3  C2  UNL     1      72.629  44.672  25.940  1.00  0.00     0.168 C 
HETATM    4  C1  UNL     1      72.033  45.433  24.757  1.00  0.00     0.042 C 
BRANCH   3   5
HETATM    5  C4  UNL     1      73.720  43.769  25.502  1.00  0.00     0.253 C 
HETATM    6  N4  UNL     1      73.559  42.813  24.469  1.00  0.00    -0.060 NA
HETATM    7  O1  UNL     1      74.849  43.832  26.053  1.00  0.00    -0.275 OA
ENDBRANCH   3   5
ENDBRANCH   1   3
BRANCH   1   8
HETATM    8  C3  UNL     1      72.465  46.886  27.060  1.00  0.00     0.297 C 
BRANCH   8   9
HETATM    9  N2  UNL     1      73.090  47.853  27.515  1.00  0.00    -0.329 NA
BRANCH   9  10
HETATM   10  N3  UNL     1      73.859  48.612  28.091  1.00  0.00    -0.279 N 
ATOM     11  H32 UNL     1      73.522  48.306  29.004  1.00  0.00     0.191 HD
ATOM     12  H31 UNL     1      74.564  49.301  28.355  1.00  0.00     0.191 HD
ENDBRANCH   9  10
ENDBRANCH   8   9
ENDBRANCH   1   8
TORSDOF 5
ENDMDL
MODEL 4
REMARK VINA RESULT: -4.163977516      1.977      4.291
REMARK  5 active torsions:
REMARK  status: ('A' for Active; 'I' for Inactive)
REMARK    1  A    between atoms: C2_2  and  N1_3 
REMARK    2  A    between atoms: C2_2  and  C4_10 
REMARK    3  A    between atoms: N1_3  and  C3_5 
REMARK    4  A    between atoms: C3_5  and  N2_6 
REMARK    5  A    between atoms: N2_6  and  N3_7 
ROOT
HETATM    1  N1  UNL     1      73.270  45.267  26.742  1.00  0.00    -0.361 N 
ATOM      2  H1  UNL     1      74.259  45.203  26.983  1.00  0.00     0.162 HD
ENDROOT
BRANCH   1   3
HETATM    3  C2  UNL     1      72.730  44.379  25.749  1.00  0.00     0.168 C 
HETATM    4  C1  UNL     1      72.089  45.241  24.662  1.00  0.00     0.042 C 
BRANCH   3   5
HETATM    5  C4  UNL     1      73.787  43.506  25.186  1.00  0.00     0.253 C 
HETATM    6  N4  UNL     1      75.123  43.514  25.657  1.00  0.00    -0.060 NA
HETATM    7  O1  UNL     1      73.516  42.712  24.248  1.00  0.00    -0.275 OA
ENDBRANCH   3   5
ENDBRANCH   1   3
BRANCH   1   8
HETATM    8  C3  UNL     1      72.465  46.226  27.392  1.00  0.00     0.297 C 
BRANCH   8   9
HETATM    9  N2  UNL     1      72.889  47.375  27.570  1.00  0.00    -0.329 NA
BRANCH   9  10
HETATM   10  N3  UNL     1      73.547  48.381  27.806  1.00  0.00    -0.279 N 
ATOM     11  H32 UNL     1      74.422  47.878  27.657  1.00  0.00     0.191 HD
ATOM     12  H31 UNL     1      73.886  49.316  28.032  1.00  0.00     0.191 HD
ENDBRANCH   9  10
ENDBRANCH   8   9
ENDBRANCH   1   8
TORSDOF 5
ENDMDL
MODEL 5
REMARK VINA RESULT: -3.668857538      2.031      4.395
REMARK  5 active torsions:
REMARK  status: ('A' for Active; 'I' for Inactive)
REMARK    1  A    between atoms: C2_2  and  N1_3 
REMARK    2  A    between atoms: C2_2  and  C4_10 
REMARK    3  A    between atoms: N1_3  and  C3_5 
REMARK    4  A    between atoms: C3_5  and  N2_6 
REMARK    5  A    between atoms: N2_6  and  N3_7 
ROOT
HETATM    1  N1  UNL     1      73.650  45.589  25.400  1.00  0.00    -0.361 N 
ATOM      2  H1  UNL     1      74.477  45.845  24.861  1.00  0.00     0.162 HD
ENDROOT
BRANCH   1   3
HETATM    3  C2  UNL     1      73.520  44.243  25.889  1.00  0.00     0.168 C 
HETATM    4  C1  UNL     1      72.028  43.935  25.994  1.00  0.00     0.042 C 
BRANCH   3   5
HETATM    5  C4  UNL     1      74.203  43.283  24.990  1.00  0.00     0.253 C 
HETATM    6  N4  UNL     1      75.578  42.962  25.108  1.00  0.00    -0.060 NA
HETATM    7  O1  UNL     1      73.559  42.713  24.071  1.00  0.00    -0.275 OA
ENDBRANCH   3   5
ENDBRANCH   1   3
BRANCH   1   8
HETATM    8  C3  UNL     1      72.661  46.563  25.647  1.00  0.00     0.297 C 
BRANCH   8   9
HETATM    9  N2  UNL     1      72.798  47.364  26.582  1.00  0.00    -0.329 NA
BRANCH   9  10
HETATM   10  N3  UNL     1      73.204  48.089  27.481  1.00  0.00    -0.279 N 
ATOM     11  H32 UNL     1      73.757  47.332  27.882  1.00  0.00     0.191 HD
ATOM     12  H31 UNL     1      73.410  48.854  28.124  1.00  0.00     0.191 HD
ENDBRANCH   9  10
ENDBRANCH   8   9
ENDBRANCH   1   8
TORSDOF 5
ENDMDL
