MODEL 1
REMARK VINA RESULT: -5.364801236      0.000      0.000
REMARK  1 active torsions:
REMARK  status: ('A' for Active; 'I' for Inactive)
REMARK    1  A    between atoms: C2_2  and  C3_3 
REMARK       I    between atoms: C3_3  and  N1_5 
ROOT
HETATM    1  C3  UNL     1      73.183  44.610  25.751  1.00  0.00     0.246 C 
HETATM    2  O1  UNL     1      72.086  43.994  25.814  1.00  0.00    -0.268 OA
HETATM    3  N1  UNL     1      73.222  46.013  25.955  1.00  0.00    -0.300 N 
ATOM      4  H1  UNL     1      73.656  46.587  25.234  1.00  0.00     0.171 HD
HETATM    5  C4  UNL     1      72.749  46.603  26.983  1.00  0.00     0.203 C 
HETATM    6  N2  UNL     1      72.147  45.822  27.988  1.00  0.00    -0.066 NA
HETATM    7  N3  UNL     1      72.851  48.005  27.065  1.00  0.00    -0.066 NA
ENDROOT
BRANCH   1   8
HETATM    8  C2  UNL     1      74.445  43.940  25.472  1.00  0.00     0.064 C 
HETATM    9  C1  UNL     1      74.471  42.768  24.864  1.00  0.00     0.017 C 
ENDBRANCH   1   8
TORSDOF 1
ENDMDL
MODEL 2
REMARK VINA RESULT: -5.069091419      9.015      9.784
REMARK  1 active torsions:
REMARK  status: ('A' for Active; 'I' for Inactive)
REMARK    1  A    between atoms: C2_2  and  C3_3 
REMARK       I    between atoms: C3_3  and  N1_5 
ROOT
HETATM    1  C3  UNL     1      68.369  44.084  18.672  1.00  0.00     0.246 C 
HETATM    2  O1  UNL     1      68.711  44.627  19.758  1.00  0.00    -0.268 OA
HETATM    3  N1  UNL     1      68.845  42.789  18.346  1.00  0.00    -0.300 N 
ATOM      4  H1  UNL     1      69.317  42.667  17.451  1.00  0.00     0.171 HD
HETATM    5  C4  UNL     1      68.720  41.766  19.099  1.00  0.00     0.203 C 
HETATM    6  N2  UNL     1      68.068  41.920  20.337  1.00  0.00    -0.066 NA
HETATM    7  N3  UNL     1      69.237  40.534  18.656  1.00  0.00    -0.066 NA
ENDROOT
BRANCH   1   8
HETATM    8  C2  UNL     1      67.490  44.736  17.712  1.00  0.00     0.064 C 
HETATM    9  C1  UNL     1      66.673  45.703  18.088  1.00  0.00     0.017 C 
ENDBRANCH   1   8
TORSDOF 1
ENDMDL
MODEL 3
REMARK VINA RESULT: -4.081255852      2.096      3.861
REMARK  1 active torsions:
REMARK  status: ('A' for Active; 'I' for Inactive)
REMARK    1  A    between atoms: C2_2  and  C3_3 
REMARK       I    between atoms: C3_3  and  N1_5 
ROOT
HETATM    1  C3  UNL     1      72.924  45.011  26.087  1.00  0.00     0.246 C 
HETATM    2  O1  UNL     1      71.898  44.322  26.333  1.00  0.00    -0.268 OA
HETATM    3  N1  UNL     1      74.185  44.379  25.943  1.00  0.00    -0.300 N 
ATOM      4  H1  UNL     1      74.954  44.712  26.523  1.00  0.00     0.171 HD
HETATM    5  C4  UNL     1      74.421  43.420  25.134  1.00  0.00     0.203 C 
HETATM    6  N2  UNL     1      73.368  42.951  24.325  1.00  0.00    -0.066 NA
HETATM    7  N3  UNL     1      75.719  42.879  25.086  1.00  0.00    -0.066 NA
ENDROOT
BRANCH   1   8
HETATM    8  C2  UNL     1      72.881  46.458  25.941  1.00  0.00     0.064 C 
HETATM    9  C1  UNL     1      72.571  47.235  26.963  1.00  0.00     0.017 C 
ENDBRANCH   1   8
TORSDOF 1
ENDMDL
MODEL 4
REMARK VINA RESULT: -4.021574988      8.661      9.173
REMARK  1 active torsions:
REMARK  status: ('A' for Active; 'I' for Inactive)
REMARK    1  A    between atoms: C2_2  and  C3_3 
REMARK       I    between atoms: C3_3  and  N1_5 
ROOT
HETATM    1  C3  UNL     1      68.334  42.310  19.282  1.00  0.00     0.246 C 
HETATM    2  O1  UNL     1      67.939  42.243  20.477  1.00  0.00    -0.268 OA
HETATM    3  N1  UNL     1      67.799  43.293  18.412  1.00  0.00    -0.300 N 
ATOM      4  H1  UNL     1      67.398  42.980  17.528  1.00  0.00     0.171 HD
HETATM    5  C4  UNL     1      67.786  44.545  18.661  1.00  0.00     0.203 C 
HETATM    6  N2  UNL     1      68.338  44.992  19.878  1.00  0.00    -0.066 NA
HETATM    7  N3  UNL     1      67.225  45.419  17.712  1.00  0.00    -0.066 NA
ENDROOT
BRANCH   1   8
HETATM    8  C2  UNL     1      69.337  41.407  18.735  1.00  0.00     0.064 C 
HETATM    9  C1  UNL     1      69.042  40.149  18.466  1.00  0.00     0.017 C 
ENDBRANCH   1   8
TORSDOF 1
ENDMDL
MODEL 5
REMARK VINA RESULT: -3.612281253      1.394      1.735
REMARK  1 active torsions:
REMARK  status: ('A' for Active; 'I' for Inactive)
REMARK    1  A    between atoms: C2_2  and  C3_3 
REMARK       I    between atoms: C3_3  and  N1_5 
ROOT
HETATM    1  C3  UNL     1      73.702  44.358  25.622  1.00  0.00     0.246 C 
HETATM    2  O1  UNL     1      74.653  44.856  24.960  1.00  0.00    -0.268 OA
HETATM    3  N1  UNL     1      73.161  45.063  26.727  1.00  0.00    -0.300 N 
ATOM      4  H1  UNL     1      73.117  44.580  27.624  1.00  0.00     0.171 HD
HETATM    5  C4  UNL     1      72.726  46.261  26.672  1.00  0.00     0.203 C 
HETATM    6  N2  UNL     1      72.781  46.939  25.439  1.00  0.00    -0.066 NA
HETATM    7  N3  UNL     1      72.212  46.848  27.843  1.00  0.00    -0.066 NA
ENDROOT
BRANCH   1   8
HETATM    8  C2  UNL     1      73.118  43.064  25.303  1.00  0.00     0.064 C 
HETATM    9  C1  UNL     1      73.881  42.035  24.982  1.00  0.00     0.017 C 
ENDBRANCH   1   8
TORSDOF 1
ENDMDL
