MODEL 1
REMARK VINA RESULT: -4.329876332      0.000      0.000
REMARK  3 active torsions:
REMARK  status: ('A' for Active; 'I' for Inactive)
REMARK    1  A    between atoms: C2_2  and  N1_3 
REMARK    2  A    between atoms: C2_2  and  C3_7 
REMARK    3  A    between atoms: C2_2  and  C4_9 
ROOT
HETATM    1  C1  UNL     1      71.553  45.696  24.733  1.00  0.00     0.054 C 
HETATM    2  C2  UNL     1      72.812  45.772  25.607  1.00  0.00     0.175 C 
ENDROOT
BRANCH   2   3
HETATM    3  N1  UNL     1      73.314  47.116  25.531  1.00  0.00    -0.064 N 
ATOM      4  H13 UNL     1      72.920  47.644  24.753  1.00  0.00     0.275 HD
ATOM      5  H12 UNL     1      72.971  47.711  26.285  1.00  0.00     0.275 HD
ATOM      6  H11 UNL     1      74.333  47.064  25.499  1.00  0.00     0.275 HD
ENDBRANCH   2   3
BRANCH   2   7
HETATM    7  C3  UNL     1      72.435  45.473  26.996  1.00  0.00     0.269 C 
HETATM    8  O1  UNL     1      72.439  46.337  27.857  1.00  0.00    -0.304 OA
ENDBRANCH   2   7
BRANCH   2   9
HETATM    9  C4  UNL     1      73.779  44.761  25.033  1.00  0.00     0.028 A 
HETATM   10  C5  UNL     1      73.264  43.325  25.135  1.00  0.00     0.008 A 
HETATM   11  C6  UNL     1      74.475  43.786  25.894  1.00  0.00     0.008 A 
ENDBRANCH   2   9
TORSDOF 3
ENDMDL
MODEL 2
REMARK VINA RESULT: -4.259924371      8.237      8.846
REMARK  3 active torsions:
REMARK  status: ('A' for Active; 'I' for Inactive)
REMARK    1  A    between atoms: C2_2  and  N1_3 
REMARK    2  A    between atoms: C2_2  and  C3_7 
REMARK    3  A    between atoms: C2_2  and  C4_9 
ROOT
HETATM    1  C1  UNL     1      69.950  43.815  18.836  1.00  0.00     0.054 C 
HETATM    2  C2  UNL     1      68.418  43.863  18.878  1.00  0.00     0.175 C 
ENDROOT
BRANCH   2   3
HETATM    3  N1  UNL     1      68.036  44.552  20.080  1.00  0.00    -0.064 N 
ATOM      4  H13 UNL     1      68.002  43.940  20.895  1.00  0.00     0.275 HD
ATOM      5  H12 UNL     1      68.757  45.187  20.419  1.00  0.00     0.275 HD
ATOM      6  H11 UNL     1      67.147  45.020  19.899  1.00  0.00     0.275 HD
ENDBRANCH   2   3
BRANCH   2   7
HETATM    7  C3  UNL     1      67.942  44.620  17.712  1.00  0.00     0.269 C 
HETATM    8  O1  UNL     1      67.137  45.529  17.829  1.00  0.00    -0.304 OA
ENDBRANCH   2   7
BRANCH   2   9
HETATM    9  C4  UNL     1      67.957  42.422  18.867  1.00  0.00     0.028 A 
HETATM   10  C5  UNL     1      68.308  41.677  20.156  1.00  0.00     0.008 A 
HETATM   11  C6  UNL     1      68.920  41.305  18.836  1.00  0.00     0.008 A 
ENDBRANCH   2   9
TORSDOF 3
ENDMDL
MODEL 3
REMARK VINA RESULT: -3.872188593      0.944      1.015
REMARK  3 active torsions:
REMARK  status: ('A' for Active; 'I' for Inactive)
REMARK    1  A    between atoms: C2_2  and  N1_3 
REMARK    2  A    between atoms: C2_2  and  C3_7 
REMARK    3  A    between atoms: C2_2  and  C4_9 
ROOT
HETATM    1  C1  UNL     1      71.712  44.126  26.078  1.00  0.00     0.054 C 
HETATM    2  C2  UNL     1      72.741  45.241  25.853  1.00  0.00     0.175 C 
ENDROOT
BRANCH   2   3
HETATM    3  N1  UNL     1      72.105  46.273  25.082  1.00  0.00    -0.064 N 
ATOM      4  H13 UNL     1      72.322  46.216  24.087  1.00  0.00     0.275 HD
ATOM      5  H12 UNL     1      71.096  46.147  25.007  1.00  0.00     0.275 HD
ATOM      6  H11 UNL     1      72.364  47.171  25.493  1.00  0.00     0.275 HD
ENDBRANCH   2   3
BRANCH   2   7
HETATM    7  C3  UNL     1      73.134  45.785  27.162  1.00  0.00     0.269 C 
HETATM    8  O1  UNL     1      72.490  46.668  27.702  1.00  0.00    -0.304 OA
ENDBRANCH   2   7
BRANCH   2   9
HETATM    9  C4  UNL     1      73.896  44.599  25.117  1.00  0.00     0.028 A 
HETATM   10  C5  UNL     1      73.662  43.116  24.825  1.00  0.00     0.008 A 
HETATM   11  C6  UNL     1      74.745  43.577  25.758  1.00  0.00     0.008 A 
ENDBRANCH   2   9
TORSDOF 3
ENDMDL
MODEL 4
REMARK VINA RESULT: -3.858565157      0.803      1.124
REMARK  3 active torsions:
REMARK  status: ('A' for Active; 'I' for Inactive)
REMARK    1  A    between atoms: C2_2  and  N1_3 
REMARK    2  A    between atoms: C2_2  and  C3_7 
REMARK    3  A    between atoms: C2_2  and  C4_9 
ROOT
HETATM    1  C1  UNL     1      71.760  45.463  24.829  1.00  0.00     0.054 C 
HETATM    2  C2  UNL     1      72.907  45.195  25.811  1.00  0.00     0.175 C 
ENDROOT
BRANCH   2   3
HETATM    3  N1  UNL     1      74.031  45.989  25.398  1.00  0.00    -0.064 N 
ATOM      4  H13 UNL     1      74.012  46.217  24.403  1.00  0.00     0.275 HD
ATOM      5  H12 UNL     1      73.995  46.943  25.755  1.00  0.00     0.275 HD
ATOM      6  H11 UNL     1      74.879  45.493  25.674  1.00  0.00     0.275 HD
ENDBRANCH   2   3
BRANCH   2   7
HETATM    7  C3  UNL     1      72.481  45.618  27.153  1.00  0.00     0.269 C 
HETATM    8  O1  UNL     1      72.546  46.784  27.502  1.00  0.00    -0.304 OA
ENDBRANCH   2   7
BRANCH   2   9
HETATM    9  C4  UNL     1      73.187  43.711  25.728  1.00  0.00     0.028 A 
HETATM   10  C5  UNL     1      74.648  43.401  25.397  1.00  0.00     0.008 A 
HETATM   11  C6  UNL     1      73.533  43.062  24.449  1.00  0.00     0.008 A 
ENDBRANCH   2   9
TORSDOF 3
ENDMDL
MODEL 5
REMARK VINA RESULT: -3.699004201      8.134      9.295
REMARK  3 active torsions:
REMARK  status: ('A' for Active; 'I' for Inactive)
REMARK    1  A    between atoms: C2_2  and  N1_3 
REMARK    2  A    between atoms: C2_2  and  C3_7 
REMARK    3  A    between atoms: C2_2  and  C4_9 
ROOT
HETATM    1  C1  UNL     1      68.316  44.757  19.985  1.00  0.00     0.054 C 
HETATM    2  C2  UNL     1      68.518  43.639  18.954  1.00  0.00     0.175 C 
ENDROOT
BRANCH   2   3
HETATM    3  N1  UNL     1      69.931  43.502  18.731  1.00  0.00    -0.064 N 
ATOM      4  H13 UNL     1      70.150  42.965  17.891  1.00  0.00     0.275 HD
ATOM      5  H12 UNL     1      70.375  44.376  18.450  1.00  0.00     0.275 HD
ATOM      6  H11 UNL     1      70.340  43.102  19.575  1.00  0.00     0.275 HD
ENDBRANCH   2   3
BRANCH   2   7
HETATM    7  C3  UNL     1      67.991  42.386  19.515  1.00  0.00     0.269 C 
HETATM    8  O1  UNL     1      68.480  41.307  19.228  1.00  0.00    -0.304 OA
ENDBRANCH   2   7
BRANCH   2   9
HETATM    9  C4  UNL     1      67.777  44.080  17.712  1.00  0.00     0.028 A 
HETATM   10  C5  UNL     1      67.187  45.485  17.840  1.00  0.00     0.008 A 
HETATM   11  C6  UNL     1      66.314  44.270  17.714  1.00  0.00     0.008 A 
ENDBRANCH   2   9
TORSDOF 3
ENDMDL
