MODEL 1
REMARK VINA RESULT: -5.553928168      0.000      0.000
REMARK  2 active torsions:
REMARK  status: ('A' for Active; 'I' for Inactive)
REMARK       I    between atoms: C1_2  and  N1_3 
REMARK       I    between atoms: C1_2  and  N2_7 
REMARK    1  A    between atoms: N1_3  and  O2_5 
REMARK    2  A    between atoms: N2_7  and  C2_9 
ROOT
HETATM    1  O1  UNL     1      72.533  45.220  27.144  1.00  0.00    -0.245 OA
HETATM    2  C1  UNL     1      73.062  45.765  26.152  1.00  0.00     0.340 C 
HETATM    3  N1  UNL     1      72.776  47.097  25.817  1.00  0.00    -0.219 N 
ATOM      4  H1  UNL     1      73.235  47.493  24.996  1.00  0.00     0.199 HD
HETATM    5  N2  UNL     1      73.955  45.005  25.374  1.00  0.00    -0.337 N 
ATOM      6  H2  UNL     1      74.389  45.447  24.563  1.00  0.00     0.164 HD
ENDROOT
BRANCH   3   7
HETATM    7  O2  UNL     1      71.932  47.888  26.513  1.00  0.00    -0.286 OA
ATOM      8  H2  UNL     1      71.578  48.705  26.185  1.00  0.00     0.244 HD
ENDBRANCH   3   7
BRANCH   5   9
HETATM    9  C2  UNL     1      74.292  43.622  25.668  1.00  0.00     0.086 A 
HETATM   10  C3  UNL     1      73.807  42.633  24.612  1.00  0.00     0.027 A 
HETATM   11  C4  UNL     1      75.246  42.868  24.847  1.00  0.00     0.027 A 
ENDBRANCH   5   9
TORSDOF 2
ENDMDL
MODEL 2
REMARK VINA RESULT: -5.296817160      8.766      9.151
REMARK  2 active torsions:
REMARK  status: ('A' for Active; 'I' for Inactive)
REMARK       I    between atoms: C1_2  and  N1_3 
REMARK       I    between atoms: C1_2  and  N2_7 
REMARK    1  A    between atoms: N1_3  and  O2_5 
REMARK    2  A    between atoms: N2_7  and  C2_9 
ROOT
HETATM    1  O1  UNL     1      68.192  44.992  19.550  1.00  0.00    -0.245 OA
HETATM    2  C1  UNL     1      67.727  44.526  18.488  1.00  0.00     0.340 C 
HETATM    3  N1  UNL     1      66.816  45.257  17.712  1.00  0.00    -0.219 N 
ATOM      4  H1  UNL     1      66.466  44.830  16.854  1.00  0.00     0.199 HD
HETATM    5  N2  UNL     1      68.141  43.241  18.088  1.00  0.00    -0.337 N 
ATOM      6  H2  UNL     1      67.763  42.858  17.222  1.00  0.00     0.164 HD
ENDROOT
BRANCH   3   7
HETATM    7  O2  UNL     1      66.373  46.492  18.029  1.00  0.00    -0.286 OA
ATOM      8  H2  UNL     1      66.428  47.242  17.449  1.00  0.00     0.244 HD
ENDBRANCH   3   7
BRANCH   5   9
HETATM    9  C2  UNL     1      69.081  42.433  18.848  1.00  0.00     0.086 A 
HETATM   10  C3  UNL     1      68.430  41.616  19.961  1.00  0.00     0.027 A 
HETATM   11  C4  UNL     1      69.059  40.967  18.793  1.00  0.00     0.027 A 
ENDBRANCH   5   9
TORSDOF 2
ENDMDL
MODEL 3
REMARK VINA RESULT: -5.206007851      1.209      1.413
REMARK  2 active torsions:
REMARK  status: ('A' for Active; 'I' for Inactive)
REMARK       I    between atoms: C1_2  and  N1_3 
REMARK       I    between atoms: C1_2  and  N2_7 
REMARK    1  A    between atoms: N1_3  and  O2_5 
REMARK    2  A    between atoms: N2_7  and  C2_9 
ROOT
HETATM    1  O1  UNL     1      72.362  45.656  25.194  1.00  0.00    -0.245 OA
HETATM    2  C1  UNL     1      73.018  45.414  26.230  1.00  0.00     0.340 C 
HETATM    3  N1  UNL     1      72.722  46.054  27.442  1.00  0.00    -0.219 N 
ATOM      4  H1  UNL     1      73.289  45.821  28.257  1.00  0.00     0.199 HD
HETATM    5  N2  UNL     1      74.067  44.479  26.149  1.00  0.00    -0.337 N 
ATOM      6  H2  UNL     1      74.605  44.280  26.992  1.00  0.00     0.164 HD
ENDROOT
BRANCH   3   7
HETATM    7  O2  UNL     1      71.733  46.960  27.597  1.00  0.00    -0.286 OA
ATOM      8  H2  UNL     1      70.940  46.801  28.094  1.00  0.00     0.244 HD
ENDBRANCH   3   7
BRANCH   5   9
HETATM    9  C2  UNL     1      74.423  43.784  24.923  1.00  0.00     0.086 A 
HETATM   10  C3  UNL     1      75.328  42.574  25.143  1.00  0.00     0.027 A 
HETATM   11  C4  UNL     1      73.947  42.425  24.641  1.00  0.00     0.027 A 
ENDBRANCH   5   9
TORSDOF 2
ENDMDL
MODEL 4
REMARK VINA RESULT: -4.852233651      1.477      1.649
REMARK  2 active torsions:
REMARK  status: ('A' for Active; 'I' for Inactive)
REMARK       I    between atoms: C1_2  and  N1_3 
REMARK       I    between atoms: C1_2  and  N2_7 
REMARK    1  A    between atoms: N1_3  and  O2_5 
REMARK    2  A    between atoms: N2_7  and  C2_9 
ROOT
HETATM    1  O1  UNL     1      72.433  45.999  28.038  1.00  0.00    -0.245 OA
HETATM    2  C1  UNL     1      72.832  46.583  27.008  1.00  0.00     0.340 C 
HETATM    3  N1  UNL     1      73.198  47.937  27.035  1.00  0.00    -0.219 N 
ATOM      4  H1  UNL     1      73.516  48.364  26.166  1.00  0.00     0.199 HD
HETATM    5  N2  UNL     1      72.904  45.844  25.811  1.00  0.00    -0.337 N 
ATOM      6  H2  UNL     1      73.229  46.318  24.968  1.00  0.00     0.164 HD
ENDROOT
BRANCH   3   7
HETATM    7  O2  UNL     1      73.155  48.708  28.142  1.00  0.00    -0.286 OA
ATOM      8  H2  UNL     1      73.843  49.312  28.396  1.00  0.00     0.244 HD
ENDBRANCH   3   7
BRANCH   5   9
HETATM    9  C2  UNL     1      72.539  44.440  25.717  1.00  0.00     0.086 A 
HETATM   10  C3  UNL     1      72.940  43.788  24.396  1.00  0.00     0.027 A 
HETATM   11  C4  UNL     1      73.553  43.381  25.677  1.00  0.00     0.027 A 
ENDBRANCH   5   9
TORSDOF 2
ENDMDL
MODEL 5
REMARK VINA RESULT: -4.727737285      2.469      4.283
REMARK  2 active torsions:
REMARK  status: ('A' for Active; 'I' for Inactive)
REMARK       I    between atoms: C1_2  and  N1_3 
REMARK       I    between atoms: C1_2  and  N2_7 
REMARK    1  A    between atoms: N1_3  and  O2_5 
REMARK    2  A    between atoms: N2_7  and  C2_9 
ROOT
HETATM    1  O1  UNL     1      73.118  43.486  24.553  1.00  0.00    -0.245 OA
HETATM    2  C1  UNL     1      74.092  43.833  25.255  1.00  0.00     0.340 C 
HETATM    3  N1  UNL     1      75.367  43.283  25.051  1.00  0.00    -0.219 N 
ATOM      4  H1  UNL     1      76.127  43.601  25.652  1.00  0.00     0.199 HD
HETATM    5  N2  UNL     1      73.878  44.795  26.260  1.00  0.00    -0.337 N 
ATOM      6  H2  UNL     1      74.671  45.081  26.835  1.00  0.00     0.164 HD
ENDROOT
BRANCH   3   7
HETATM    7  O2  UNL     1      75.649  42.358  24.109  1.00  0.00    -0.286 OA
ATOM      8  H2  UNL     1      75.057  42.117  23.407  1.00  0.00     0.244 HD
ENDBRANCH   3   7
BRANCH   5   9
HETATM    9  C2  UNL     1      72.583  45.402  26.521  1.00  0.00     0.086 A 
HETATM   10  C3  UNL     1      72.542  46.241  27.795  1.00  0.00     0.027 A 
HETATM   11  C4  UNL     1      72.386  46.854  26.460  1.00  0.00     0.027 A 
ENDBRANCH   5   9
TORSDOF 2
ENDMDL
