MODEL 1
REMARK VINA RESULT: -7.208169622      0.000      0.000
REMARK  18 active torsions:
REMARK  status: ('A' for Active; 'I' for Inactive)
REMARK    1  A    between atoms: O1_2  and  C2_3 
REMARK    2  A    between atoms: C3_4  and  N1_5 
REMARK       I    between atoms: N1_5  and  C4_7 
REMARK    3  A    between atoms: C6_10  and  O3_11 
REMARK    4  A    between atoms: C7_13  and  C8_14 
REMARK    5  A    between atoms: C8_14  and  N2_15 
REMARK    6  A    between atoms: C8_14  and  N4_19 
REMARK    7  A    between atoms: N4_19  and  N5_21 
REMARK    8  A    between atoms: N5_21  and  C10_23 
REMARK    9  A    between atoms: C12_27  and  C13_28 
REMARK   10  A    between atoms: C13_28  and  O6_29 
REMARK   11  A    between atoms: O6_29  and  C14_30 
REMARK   12  A    between atoms: C15_31  and  O7_32 
REMARK   13  A    between atoms: C19_39  and  C20_40 
REMARK   14  A    between atoms: C21_43  and  O10_44 
REMARK   15  A    between atoms: C21_43  and  O11_46 
REMARK   16  A    between atoms: O11_46  and  C22_47 
REMARK   17  A    between atoms: C22_47  and  O12_49 
REMARK   18  A    between atoms: C24_51  and  N7_52 
ROOT
HETATM    1  N2  UNL     1       4.816 -22.821  14.291  1.00  0.00    -0.277 N 
ATOM      2  H2  UNL     1       5.556 -22.934  13.598  1.00  0.00     0.179 HD
HETATM    3  C9  UNL     1       4.893 -23.506  15.493  1.00  0.00     0.183 C 
HETATM    4  N3  UNL     1       4.958 -24.076  16.472  1.00  0.00    -0.172 NA
ENDROOT
BRANCH   1   5
HETATM    5  C8  UNL     1       3.710 -21.956  14.010  1.00  0.00     0.146 C 
BRANCH   5   6
HETATM    6  C7  UNL     1       3.761 -20.680  14.222  1.00  0.00     0.096 C 
HETATM    7  C6  UNL     1       3.861 -20.179  15.517  1.00  0.00     0.113 C 
HETATM    8  C3  UNL     1       4.807 -19.243  15.981  1.00  0.00     0.105 C 
HETATM    9  C2  UNL     1       5.497 -18.309  15.178  1.00  0.00     0.132 C 
HETATM   10  C24 UNL     1       5.342 -18.131  13.815  1.00  0.00     0.155 C 
HETATM   11  C12 UNL     1       4.233 -18.492  13.088  1.00  0.00     0.089 C 
HETATM   12  C11 UNL     1       3.763 -19.847  13.062  1.00  0.00     0.204 C 
HETATM   13  O5  UNL     1       3.344 -20.301  12.007  1.00  0.00    -0.286 OA
BRANCH   7  14
HETATM   14  O3  UNL     1       2.942 -20.653  16.398  1.00  0.00    -0.357 OA
ATOM     15  H3  UNL     1       3.254 -21.051  17.201  1.00  0.00     0.217 HD
ENDBRANCH   7  14
BRANCH   8  16
HETATM   16  N1  UNL     1       5.028 -19.231  17.369  1.00  0.00    -0.323 N 
HETATM   17  C4  UNL     1       4.277 -18.407  18.247  1.00  0.00     0.218 C 
HETATM   18  C5  UNL     1       4.503 -18.392  19.706  1.00  0.00     0.117 C 
HETATM   19  O2  UNL     1       3.374 -17.650  17.783  1.00  0.00    -0.274 OA
ATOM     20  H1  UNL     1       5.753 -19.834  17.758  1.00  0.00     0.169 HD
ENDBRANCH   8  16
BRANCH   9  21
HETATM   21  O1  UNL     1       6.417 -17.493  15.778  1.00  0.00    -0.351 OA
HETATM   22  C1  UNL     1       6.273 -16.173  16.210  1.00  0.00     0.210 C 
ENDBRANCH   9  21
BRANCH  10  23
HETATM   23  N7  UNL     1       6.419 -17.641  13.090  1.00  0.00    -0.112 N 
HETATM   24  O13 UNL     1       6.555 -16.416  13.010  1.00  0.00    -0.532 OA
HETATM   25  O14 UNL     1       7.378 -18.389  12.468  1.00  0.00    -0.532 OA
ENDBRANCH  10  23
BRANCH  11  26
HETATM   26  C13 UNL     1       3.604 -17.678  12.302  1.00  0.00     0.144 C 
HETATM   27  C21 UNL     1       3.956 -17.396  10.935  1.00  0.00     0.216 C 
BRANCH  26  28
HETATM   28  O6  UNL     1       2.564 -17.033  12.844  1.00  0.00    -0.335 OA
BRANCH  28  29
HETATM   29  C14 UNL     1       1.334 -17.082  13.269  1.00  0.00     0.194 C 
HETATM   30  C15 UNL     1       0.342 -16.162  12.532  1.00  0.00     0.183 C 
HETATM   31  C16 UNL     1      -0.813 -16.336  13.495  1.00  0.00     0.182 C 
HETATM   32  S1  UNL     1      -2.394 -15.958  12.749  1.00  0.00    -0.112 SA
HETATM   33  N6  UNL     1      -0.856 -17.784  13.523  1.00  0.00    -0.356 N 
HETATM   34  C17 UNL     1      -3.089 -17.568  13.048  1.00  0.00     0.064 C 
HETATM   35  C18 UNL     1      -2.119 -18.359  13.442  1.00  0.00     0.095 C 
HETATM   36  C19 UNL     1       0.554 -18.257  13.635  1.00  0.00     0.218 C 
BRANCH  30  37
HETATM   37  O7  UNL     1       0.835 -14.863  12.486  1.00  0.00    -0.390 OA
ATOM     38  H7  UNL     1       0.132 -14.251  12.301  1.00  0.00     0.210 HD
ENDBRANCH  30  37
BRANCH  36  39
HETATM   39  C20 UNL     1       0.765 -18.676  15.073  1.00  0.00     0.199 C 
HETATM   40  O8  UNL     1       1.321 -17.878  15.871  1.00  0.00    -0.646 OA
HETATM   41  O9  UNL     1       0.342 -19.926  15.480  1.00  0.00    -0.646 OA
ENDBRANCH  36  39
ENDBRANCH  28  29
ENDBRANCH  26  28
BRANCH  27  42
HETATM   42  O10 UNL     1       3.199 -16.623  10.214  1.00  0.00    -0.339 OA
ATOM     43  H10 UNL     1       3.475 -15.735  10.020  1.00  0.00     0.220 HD
ENDBRANCH  27  42
BRANCH  27  44
HETATM   44  O11 UNL     1       5.043 -17.825  10.210  1.00  0.00    -0.297 OA
BRANCH  44  45
HETATM   45  C22 UNL     1       5.957 -16.921   9.646  1.00  0.00     0.261 C 
HETATM   46  C23 UNL     1       5.764 -15.498  10.090  1.00  0.00     0.071 C 
BRANCH  45  47
HETATM   47  O12 UNL     1       7.285 -17.286   9.963  1.00  0.00    -0.371 OA
ATOM     48  H12 UNL     1       7.905 -16.806   9.426  1.00  0.00     0.212 HD
ENDBRANCH  45  47
ENDBRANCH  44  45
ENDBRANCH  27  44
ENDBRANCH  11  26
ENDBRANCH   5   6
BRANCH   5  49
HETATM   49  N4  UNL     1       2.540 -22.624  13.580  1.00  0.00    -0.282 N 
ATOM     50  H4  UNL     1       2.519 -23.134  12.696  1.00  0.00     0.188 HD
BRANCH  49  51
HETATM   51  N5  UNL     1       1.386 -22.560  14.426  1.00  0.00    -0.276 N 
ATOM     52  H5  UNL     1       0.694 -21.821  14.306  1.00  0.00     0.189 HD
BRANCH  51  53
HETATM   53  C10 UNL     1       1.226 -23.538  15.423  1.00  0.00     0.368 C 
HETATM   54  O4  UNL     1       1.468 -23.288  16.607  1.00  0.00    -0.282 OA
ENDBRANCH  51  53
ENDBRANCH  49  51
ENDBRANCH   5  49
ENDBRANCH   1   5
TORSDOF 18
ENDMDL
MODEL 2
REMARK VINA RESULT: -7.170120018      6.073      9.197
REMARK  18 active torsions:
REMARK  status: ('A' for Active; 'I' for Inactive)
REMARK    1  A    between atoms: O1_2  and  C2_3 
REMARK    2  A    between atoms: C3_4  and  N1_5 
REMARK       I    between atoms: N1_5  and  C4_7 
REMARK    3  A    between atoms: C6_10  and  O3_11 
REMARK    4  A    between atoms: C7_13  and  C8_14 
REMARK    5  A    between atoms: C8_14  and  N2_15 
REMARK    6  A    between atoms: C8_14  and  N4_19 
REMARK    7  A    between atoms: N4_19  and  N5_21 
REMARK    8  A    between atoms: N5_21  and  C10_23 
REMARK    9  A    between atoms: C12_27  and  C13_28 
REMARK   10  A    between atoms: C13_28  and  O6_29 
REMARK   11  A    between atoms: O6_29  and  C14_30 
REMARK   12  A    between atoms: C15_31  and  O7_32 
REMARK   13  A    between atoms: C19_39  and  C20_40 
REMARK   14  A    between atoms: C21_43  and  O10_44 
REMARK   15  A    between atoms: C21_43  and  O11_46 
REMARK   16  A    between atoms: O11_46  and  C22_47 
REMARK   17  A    between atoms: C22_47  and  O12_49 
REMARK   18  A    between atoms: C24_51  and  N7_52 
ROOT
HETATM    1  N2  UNL     1       1.396 -22.322  14.709  1.00  0.00    -0.277 N 
ATOM      2  H2  UNL     1       2.037 -22.223  13.922  1.00  0.00     0.179 HD
HETATM    3  C9  UNL     1       1.137 -21.231  15.524  1.00  0.00     0.183 C 
HETATM    4  N3  UNL     1       0.937 -20.336  16.192  1.00  0.00    -0.172 NA
ENDROOT
BRANCH   1   5
HETATM    5  C8  UNL     1       0.773 -23.587  14.959  1.00  0.00     0.146 C 
BRANCH   5   6
HETATM    6  C7  UNL     1      -0.498 -23.773  14.801  1.00  0.00     0.096 C 
HETATM    7  C6  UNL     1      -1.310 -24.088  15.888  1.00  0.00     0.113 C 
HETATM    8  C3  UNL     1      -2.505 -23.438  16.255  1.00  0.00     0.105 C 
HETATM    9  C2  UNL     1      -3.337 -22.700  15.384  1.00  0.00     0.132 C 
HETATM   10  C24 UNL     1      -3.141 -22.516  14.027  1.00  0.00     0.155 C 
HETATM   11  C12 UNL     1      -2.392 -23.334  13.215  1.00  0.00     0.089 C 
HETATM   12  C11 UNL     1      -1.005 -23.585  13.480  1.00  0.00     0.204 C 
HETATM   13  O5  UNL     1      -0.230 -23.645  12.536  1.00  0.00    -0.286 OA
BRANCH   7  14
HETATM   14  O3  UNL     1      -0.886 -25.129  16.650  1.00  0.00    -0.357 OA
ATOM     15  H3  UNL     1      -1.442 -25.897  16.710  1.00  0.00     0.217 HD
ENDBRANCH   7  14
BRANCH   8  16
HETATM   16  N1  UNL     1      -2.902 -23.592  17.594  1.00  0.00    -0.323 N 
HETATM   17  C4  UNL     1      -2.437 -22.735  18.625  1.00  0.00     0.218 C 
HETATM   18  C5  UNL     1      -2.852 -22.889  20.032  1.00  0.00     0.117 C 
HETATM   19  O2  UNL     1      -1.635 -21.794  18.347  1.00  0.00    -0.274 OA
ATOM     20  H1  UNL     1      -3.546 -24.346  17.834  1.00  0.00     0.169 HD
ENDBRANCH   8  16
BRANCH   9  21
HETATM   21  O1  UNL     1      -4.447 -22.094  15.906  1.00  0.00    -0.351 OA
HETATM   22  C1  UNL     1      -5.784 -22.490  15.832  1.00  0.00     0.210 C 
ENDBRANCH   9  21
BRANCH  10  23
HETATM   23  N7  UNL     1      -3.651 -21.367  13.439  1.00  0.00    -0.112 N 
HETATM   24  O13 UNL     1      -2.918 -20.376  13.373  1.00  0.00    -0.532 OA
HETATM   25  O14 UNL     1      -4.894 -21.227  12.890  1.00  0.00    -0.532 OA
ENDBRANCH  10  23
BRANCH  11  26
HETATM   26  C13 UNL     1      -2.841 -23.843  12.112  1.00  0.00     0.144 C 
HETATM   27  C21 UNL     1      -2.956 -23.149  10.857  1.00  0.00     0.216 C 
BRANCH  26  28
HETATM   28  O6  UNL     1      -3.259 -25.112  12.186  1.00  0.00    -0.335 OA
BRANCH  28  29
HETATM   29  C14 UNL     1      -4.250 -25.941  12.356  1.00  0.00     0.194 C 
HETATM   30  C15 UNL     1      -4.767 -26.063  13.803  1.00  0.00     0.183 C 
HETATM   31  C16 UNL     1      -5.658 -27.265  13.572  1.00  0.00     0.182 C 
HETATM   32  S1  UNL     1      -6.948 -27.413  14.803  1.00  0.00    -0.112 SA
HETATM   33  N6  UNL     1      -6.409 -26.764  12.439  1.00  0.00    -0.356 N 
HETATM   34  C17 UNL     1      -8.283 -27.338  13.630  1.00  0.00     0.064 C 
HETATM   35  C18 UNL     1      -7.781 -26.985  12.470  1.00  0.00     0.095 C 
HETATM   36  C19 UNL     1      -5.428 -26.119  11.520  1.00  0.00     0.218 C 
BRANCH  30  37
HETATM   37  O7  UNL     1      -3.711 -26.313  14.672  1.00  0.00    -0.390 OA
ATOM     38  H7  UNL     1      -3.870 -27.113  15.159  1.00  0.00     0.210 HD
ENDBRANCH  30  37
BRANCH  36  39
HETATM   39  C20 UNL     1      -5.195 -27.082  10.376  1.00  0.00     0.199 C 
HETATM   40  O8  UNL     1      -5.982 -27.073   9.395  1.00  0.00    -0.646 OA
HETATM   41  O9  UNL     1      -4.124 -27.951  10.435  1.00  0.00    -0.646 OA
ENDBRANCH  36  39
ENDBRANCH  28  29
ENDBRANCH  26  28
BRANCH  27  42
HETATM   42  O10 UNL     1      -3.343 -23.788   9.793  1.00  0.00    -0.339 OA
ATOM     43  H10 UNL     1      -4.269 -23.876   9.602  1.00  0.00     0.220 HD
ENDBRANCH  27  42
BRANCH  27  44
HETATM   44  O11 UNL     1      -2.723 -21.824  10.570  1.00  0.00    -0.297 OA
BRANCH  44  45
HETATM   45  C22 UNL     1      -3.482 -21.131   9.614  1.00  0.00     0.261 C 
HETATM   46  C23 UNL     1      -3.757 -19.698   9.973  1.00  0.00     0.071 C 
BRANCH  45  47
HETATM   47  O12 UNL     1      -2.835 -21.135   8.358  1.00  0.00    -0.371 OA
ATOM     48  H12 UNL     1      -1.939 -21.440   8.441  1.00  0.00     0.212 HD
ENDBRANCH  45  47
ENDBRANCH  44  45
ENDBRANCH  27  44
ENDBRANCH  11  26
ENDBRANCH   5   6
BRANCH   5  49
HETATM   49  N4  UNL     1       1.641 -24.573  15.482  1.00  0.00    -0.282 N 
ATOM     50  H4  UNL     1       1.287 -25.330  16.068  1.00  0.00     0.188 HD
BRANCH  49  51
HETATM   51  N5  UNL     1       3.034 -24.475  15.162  1.00  0.00    -0.276 N 
ATOM     52  H5  UNL     1       3.403 -24.899  14.311  1.00  0.00     0.189 HD
BRANCH  51  53
HETATM   53  C10 UNL     1       3.881 -23.781  16.043  1.00  0.00     0.368 C 
HETATM   54  O4  UNL     1       5.014 -24.197  16.300  1.00  0.00    -0.282 OA
ENDBRANCH  51  53
ENDBRANCH  49  51
ENDBRANCH   5  49
ENDBRANCH   1   5
TORSDOF 18
ENDMDL
MODEL 3
REMARK VINA RESULT: -7.066690887      4.776      9.194
REMARK  18 active torsions:
REMARK  status: ('A' for Active; 'I' for Inactive)
REMARK    1  A    between atoms: O1_2  and  C2_3 
REMARK    2  A    between atoms: C3_4  and  N1_5 
REMARK       I    between atoms: N1_5  and  C4_7 
REMARK    3  A    between atoms: C6_10  and  O3_11 
REMARK    4  A    between atoms: C7_13  and  C8_14 
REMARK    5  A    between atoms: C8_14  and  N2_15 
REMARK    6  A    between atoms: C8_14  and  N4_19 
REMARK    7  A    between atoms: N4_19  and  N5_21 
REMARK    8  A    between atoms: N5_21  and  C10_23 
REMARK    9  A    between atoms: C12_27  and  C13_28 
REMARK   10  A    between atoms: C13_28  and  O6_29 
REMARK   11  A    between atoms: O6_29  and  C14_30 
REMARK   12  A    between atoms: C15_31  and  O7_32 
REMARK   13  A    between atoms: C19_39  and  C20_40 
REMARK   14  A    between atoms: C21_43  and  O10_44 
REMARK   15  A    between atoms: C21_43  and  O11_46 
REMARK   16  A    between atoms: O11_46  and  C22_47 
REMARK   17  A    between atoms: C22_47  and  O12_49 
REMARK   18  A    between atoms: C24_51  and  N7_52 
ROOT
HETATM    1  N2  UNL     1      -3.584 -20.198  11.722  1.00  0.00    -0.277 N 
ATOM      2  H2  UNL     1      -2.928 -20.654  11.088  1.00  0.00     0.179 HD
HETATM    3  C9  UNL     1      -4.849 -19.856  11.269  1.00  0.00     0.183 C 
HETATM    4  N3  UNL     1      -5.879 -19.571  10.889  1.00  0.00    -0.172 NA
ENDROOT
BRANCH   1   5
HETATM    5  C8  UNL     1      -3.188 -19.918  13.069  1.00  0.00     0.146 C 
BRANCH   5   6
HETATM    6  C7  UNL     1      -2.891 -20.856  13.909  1.00  0.00     0.096 C 
HETATM    7  C6  UNL     1      -3.811 -21.859  14.209  1.00  0.00     0.113 C 
HETATM    8  C3  UNL     1      -3.576 -23.247  14.170  1.00  0.00     0.105 C 
HETATM    9  C2  UNL     1      -2.313 -23.869  14.287  1.00  0.00     0.132 C 
HETATM   10  C24 UNL     1      -1.103 -23.230  14.491  1.00  0.00     0.155 C 
HETATM   11  C12 UNL     1      -0.949 -21.977  15.036  1.00  0.00     0.089 C 
HETATM   12  C11 UNL     1      -1.570 -20.824  14.451  1.00  0.00     0.204 C 
HETATM   13  O5  UNL     1      -0.945 -19.774  14.422  1.00  0.00    -0.286 OA
BRANCH   7  14
HETATM   14  O3  UNL     1      -5.045 -21.427  14.575  1.00  0.00    -0.357 OA
ATOM     15  H3  UNL     1      -5.329 -21.584  15.467  1.00  0.00     0.217 HD
ENDBRANCH   7  14
BRANCH   8  16
HETATM   16  N1  UNL     1      -4.717 -24.060  14.049  1.00  0.00    -0.323 N 
HETATM   17  C4  UNL     1      -5.356 -24.286  12.803  1.00  0.00     0.218 C 
HETATM   18  C5  UNL     1      -6.552 -25.140  12.669  1.00  0.00     0.117 C 
HETATM   19  O2  UNL     1      -4.898 -23.745  11.753  1.00  0.00    -0.274 OA
ATOM     20  H1  UNL     1      -5.099 -24.501  14.886  1.00  0.00     0.169 HD
ENDBRANCH   8  16
BRANCH   9  21
HETATM   21  O1  UNL     1      -2.250 -25.232  14.189  1.00  0.00    -0.351 OA
HETATM   22  C1  UNL     1      -2.312 -26.037  13.049  1.00  0.00     0.210 C 
ENDBRANCH   9  21
BRANCH  10  23
HETATM   23  N7  UNL     1       0.051 -23.843  14.025  1.00  0.00    -0.112 N 
HETATM   24  O13 UNL     1       0.364 -23.666  12.844  1.00  0.00    -0.532 OA
HETATM   25  O14 UNL     1       0.907 -24.613  14.761  1.00  0.00    -0.532 OA
ENDBRANCH  10  23
BRANCH  11  26
HETATM   26  C13 UNL     1      -0.161 -21.729  16.034  1.00  0.00     0.144 C 
HETATM   27  C21 UNL     1       1.212 -21.315  15.930  1.00  0.00     0.216 C 
BRANCH  26  28
HETATM   28  O6  UNL     1      -0.687 -21.918  17.250  1.00  0.00    -0.335 OA
BRANCH  28  29
HETATM   29  C14 UNL     1      -1.439 -22.643  18.027  1.00  0.00     0.194 C 
HETATM   30  C15 UNL     1      -0.777 -23.915  18.590  1.00  0.00     0.183 C 
HETATM   31  C16 UNL     1      -2.035 -24.536  19.158  1.00  0.00     0.182 C 
HETATM   32  S1  UNL     1      -1.693 -25.724  20.451  1.00  0.00    -0.112 SA
HETATM   33  N6  UNL     1      -2.502 -23.405  19.935  1.00  0.00    -0.356 N 
HETATM   34  C17 UNL     1      -2.641 -24.872  21.692  1.00  0.00     0.064 C 
HETATM   35  C18 UNL     1      -2.959 -23.692  21.217  1.00  0.00     0.095 C 
HETATM   36  C19 UNL     1      -2.343 -22.195  19.078  1.00  0.00     0.218 C 
BRANCH  30  37
HETATM   37  O7  UNL     1      -0.209 -24.657  17.560  1.00  0.00    -0.390 OA
ATOM     38  H7  UNL     1       0.447 -24.140  17.107  1.00  0.00     0.210 HD
ENDBRANCH  30  37
BRANCH  36  39
HETATM   39  C20 UNL     1      -3.719 -21.841  18.556  1.00  0.00     0.199 C 
HETATM   40  O8  UNL     1      -3.959 -21.956  17.326  1.00  0.00    -0.646 OA
HETATM   41  O9  UNL     1      -4.682 -21.400  19.441  1.00  0.00    -0.646 OA
ENDBRANCH  36  39
ENDBRANCH  28  29
ENDBRANCH  26  28
BRANCH  27  42
HETATM   42  O10 UNL     1       1.883 -21.012  17.003  1.00  0.00    -0.339 OA
ATOM     43  H10 UNL     1       2.645 -21.524  17.247  1.00  0.00     0.220 HD
ENDBRANCH  27  42
BRANCH  27  44
HETATM   44  O11 UNL     1       2.002 -21.186  14.812  1.00  0.00    -0.297 OA
BRANCH  44  45
HETATM   45  C22 UNL     1       3.109 -22.019  14.589  1.00  0.00     0.261 C 
HETATM   46  C23 UNL     1       4.423 -21.290  14.542  1.00  0.00     0.071 C 
BRANCH  45  47
HETATM   47  O12 UNL     1       3.208 -23.003  15.598  1.00  0.00    -0.371 OA
ATOM     48  H12 UNL     1       2.708 -23.776  15.366  1.00  0.00     0.212 HD
ENDBRANCH  45  47
ENDBRANCH  44  45
ENDBRANCH  27  44
ENDBRANCH  11  26
ENDBRANCH   5   6
BRANCH   5  49
HETATM   49  N4  UNL     1      -3.246 -18.550  13.423  1.00  0.00    -0.282 N 
ATOM     50  H4  UNL     1      -3.923 -18.211  14.106  1.00  0.00     0.188 HD
BRANCH  49  51
HETATM   51  N5  UNL     1      -2.320 -17.657  12.792  1.00  0.00    -0.276 N 
ATOM     52  H5  UNL     1      -1.890 -17.900  11.900  1.00  0.00     0.189 HD
BRANCH  51  53
HETATM   53  C10 UNL     1      -2.019 -16.440  13.426  1.00  0.00     0.368 C 
HETATM   54  O4  UNL     1      -2.786 -15.476  13.355  1.00  0.00    -0.282 OA
ENDBRANCH  51  53
ENDBRANCH  49  51
ENDBRANCH   5  49
ENDBRANCH   1   5
TORSDOF 18
ENDMDL
MODEL 4
REMARK VINA RESULT: -7.018141277      5.650      8.934
REMARK  18 active torsions:
REMARK  status: ('A' for Active; 'I' for Inactive)
REMARK    1  A    between atoms: O1_2  and  C2_3 
REMARK    2  A    between atoms: C3_4  and  N1_5 
REMARK       I    between atoms: N1_5  and  C4_7 
REMARK    3  A    between atoms: C6_10  and  O3_11 
REMARK    4  A    between atoms: C7_13  and  C8_14 
REMARK    5  A    between atoms: C8_14  and  N2_15 
REMARK    6  A    between atoms: C8_14  and  N4_19 
REMARK    7  A    between atoms: N4_19  and  N5_21 
REMARK    8  A    between atoms: N5_21  and  C10_23 
REMARK    9  A    between atoms: C12_27  and  C13_28 
REMARK   10  A    between atoms: C13_28  and  O6_29 
REMARK   11  A    between atoms: O6_29  and  C14_30 
REMARK   12  A    between atoms: C15_31  and  O7_32 
REMARK   13  A    between atoms: C19_39  and  C20_40 
REMARK   14  A    between atoms: C21_43  and  O10_44 
REMARK   15  A    between atoms: C21_43  and  O11_46 
REMARK   16  A    between atoms: O11_46  and  C22_47 
REMARK   17  A    between atoms: C22_47  and  O12_49 
REMARK   18  A    between atoms: C24_51  and  N7_52 
ROOT
HETATM    1  N2  UNL     1       2.558 -24.339  15.139  1.00  0.00    -0.277 N 
ATOM      2  H2  UNL     1       2.328 -25.310  14.928  1.00  0.00     0.179 HD
HETATM    3  C9  UNL     1       3.815 -24.025  15.631  1.00  0.00     0.183 C 
HETATM    4  N3  UNL     1       4.843 -23.776  16.042  1.00  0.00    -0.172 NA
ENDROOT
BRANCH   1   5
HETATM    5  C8  UNL     1       1.580 -23.317  14.922  1.00  0.00     0.146 C 
BRANCH   5   6
HETATM    6  C7  UNL     1       0.309 -23.552  14.991  1.00  0.00     0.096 C 
HETATM    7  C6  UNL     1      -0.310 -23.756  16.222  1.00  0.00     0.113 C 
HETATM    8  C3  UNL     1      -1.460 -23.097  16.699  1.00  0.00     0.105 C 
HETATM    9  C2  UNL     1      -2.448 -22.488  15.895  1.00  0.00     0.132 C 
HETATM   10  C24 UNL     1      -2.474 -22.461  14.512  1.00  0.00     0.155 C 
HETATM   11  C12 UNL     1      -1.826 -23.350  13.688  1.00  0.00     0.089 C 
HETATM   12  C11 UNL     1      -0.405 -23.533  13.755  1.00  0.00     0.204 C 
HETATM   13  O5  UNL     1       0.215 -23.685  12.712  1.00  0.00    -0.286 OA
BRANCH   7  14
HETATM   14  O3  UNL     1       0.272 -24.689  17.019  1.00  0.00    -0.357 OA
ATOM     15  H3  UNL     1       0.947 -25.241  16.644  1.00  0.00     0.217 HD
ENDBRANCH   7  14
BRANCH   8  16
HETATM   16  N1  UNL     1      -1.636 -23.102  18.094  1.00  0.00    -0.323 N 
HETATM   17  C4  UNL     1      -2.159 -24.224  18.787  1.00  0.00     0.218 C 
HETATM   18  C5  UNL     1      -2.343 -24.236  20.251  1.00  0.00     0.117 C 
HETATM   19  O2  UNL     1      -2.484 -25.266  18.143  1.00  0.00    -0.274 OA
ATOM     20  H1  UNL     1      -1.380 -22.270  18.626  1.00  0.00     0.169 HD
ENDBRANCH   8  16
BRANCH   9  21
HETATM   21  O1  UNL     1      -3.488 -21.852  16.516  1.00  0.00    -0.351 OA
HETATM   22  C1  UNL     1      -4.826 -22.241  16.614  1.00  0.00     0.210 C 
ENDBRANCH   9  21
BRANCH  10  23
HETATM   23  N7  UNL     1      -3.118 -21.402  13.888  1.00  0.00    -0.112 N 
HETATM   24  O13 UNL     1      -2.464 -20.382  13.654  1.00  0.00    -0.532 OA
HETATM   25  O14 UNL     1      -4.419 -21.384  13.470  1.00  0.00    -0.532 OA
ENDBRANCH  10  23
BRANCH  11  26
HETATM   26  C13 UNL     1      -2.419 -23.997  12.736  1.00  0.00     0.144 C 
HETATM   27  C21 UNL     1      -2.706 -23.477  11.425  1.00  0.00     0.216 C 
BRANCH  26  28
HETATM   28  O6  UNL     1      -2.818 -25.238  13.037  1.00  0.00    -0.335 OA
BRANCH  28  29
HETATM   29  C14 UNL     1      -3.803 -26.082  13.159  1.00  0.00     0.194 C 
HETATM   30  C15 UNL     1      -4.818 -25.759  14.272  1.00  0.00     0.183 C 
HETATM   31  C16 UNL     1      -5.561 -27.077  14.224  1.00  0.00     0.182 C 
HETATM   32  S1  UNL     1      -7.214 -26.959  14.899  1.00  0.00    -0.112 SA
HETATM   33  N6  UNL     1      -5.841 -27.116  12.803  1.00  0.00    -0.356 N 
HETATM   34  C17 UNL     1      -8.022 -27.488  13.405  1.00  0.00     0.064 C 
HETATM   35  C18 UNL     1      -7.128 -27.500  12.445  1.00  0.00     0.095 C 
HETATM   36  C19 UNL     1      -4.590 -26.705  12.104  1.00  0.00     0.218 C 
BRANCH  30  37
HETATM   37  O7  UNL     1      -4.157 -25.538  15.475  1.00  0.00    -0.390 OA
ATOM     38  H7  UNL     1      -4.735 -25.105  16.092  1.00  0.00     0.210 HD
ENDBRANCH  30  37
BRANCH  36  39
HETATM   39  C20 UNL     1      -3.952 -27.968  11.564  1.00  0.00     0.199 C 
HETATM   40  O8  UNL     1      -2.817 -28.310  11.983  1.00  0.00    -0.646 OA
HETATM   41  O9  UNL     1      -4.632 -28.716  10.624  1.00  0.00    -0.646 OA
ENDBRANCH  36  39
ENDBRANCH  28  29
ENDBRANCH  26  28
BRANCH  27  42
HETATM   42  O10 UNL     1      -3.232 -24.248  10.520  1.00  0.00    -0.339 OA
ATOM     43  H10 UNL     1      -4.012 -23.971  10.054  1.00  0.00     0.220 HD
ENDBRANCH  27  42
BRANCH  27  44
HETATM   44  O11 UNL     1      -2.519 -22.207  10.931  1.00  0.00    -0.297 OA
BRANCH  44  45
HETATM   45  C22 UNL     1      -3.450 -21.604  10.072  1.00  0.00     0.261 C 
HETATM   46  C23 UNL     1      -3.556 -20.114  10.233  1.00  0.00     0.071 C 
BRANCH  45  47
HETATM   47  O12 UNL     1      -3.128 -21.861   8.720  1.00  0.00    -0.371 OA
ATOM     48  H12 UNL     1      -3.422 -21.152   8.162  1.00  0.00     0.212 HD
ENDBRANCH  45  47
ENDBRANCH  44  45
ENDBRANCH  27  44
ENDBRANCH  11  26
ENDBRANCH   5   6
BRANCH   5  49
HETATM   49  N4  UNL     1       2.116 -22.067  14.535  1.00  0.00    -0.282 N 
ATOM     50  H4  UNL     1       2.729 -21.985  13.724  1.00  0.00     0.188 HD
BRANCH  49  51
HETATM   51  N5  UNL     1       1.768 -20.919  15.319  1.00  0.00    -0.276 N 
ATOM     52  H5  UNL     1       0.951 -20.356  15.083  1.00  0.00     0.189 HD
BRANCH  51  53
HETATM   53  C10 UNL     1       2.576 -20.585  16.419  1.00  0.00     0.368 C 
HETATM   54  O4  UNL     1       2.516 -19.468  16.940  1.00  0.00    -0.282 OA
ENDBRANCH  51  53
ENDBRANCH  49  51
ENDBRANCH   5  49
ENDBRANCH   1   5
TORSDOF 18
ENDMDL
MODEL 5
REMARK VINA RESULT: -6.974310583      4.384      7.529
REMARK  18 active torsions:
REMARK  status: ('A' for Active; 'I' for Inactive)
REMARK    1  A    between atoms: O1_2  and  C2_3 
REMARK    2  A    between atoms: C3_4  and  N1_5 
REMARK       I    between atoms: N1_5  and  C4_7 
REMARK    3  A    between atoms: C6_10  and  O3_11 
REMARK    4  A    between atoms: C7_13  and  C8_14 
REMARK    5  A    between atoms: C8_14  and  N2_15 
REMARK    6  A    between atoms: C8_14  and  N4_19 
REMARK    7  A    between atoms: N4_19  and  N5_21 
REMARK    8  A    between atoms: N5_21  and  C10_23 
REMARK    9  A    between atoms: C12_27  and  C13_28 
REMARK   10  A    between atoms: C13_28  and  O6_29 
REMARK   11  A    between atoms: O6_29  and  C14_30 
REMARK   12  A    between atoms: C15_31  and  O7_32 
REMARK   13  A    between atoms: C19_39  and  C20_40 
REMARK   14  A    between atoms: C21_43  and  O10_44 
REMARK   15  A    between atoms: C21_43  and  O11_46 
REMARK   16  A    between atoms: O11_46  and  C22_47 
REMARK   17  A    between atoms: C22_47  and  O12_49 
REMARK   18  A    between atoms: C24_51  and  N7_52 
ROOT
HETATM    1  N2  UNL     1      -0.665 -26.187  17.707  1.00  0.00    -0.277 N 
ATOM      2  H2  UNL     1      -0.187 -26.623  16.919  1.00  0.00     0.179 HD
HETATM    3  C9  UNL     1      -1.148 -26.978  18.738  1.00  0.00     0.183 C 
HETATM    4  N3  UNL     1      -1.548 -27.632  19.574  1.00  0.00    -0.172 NA
ENDROOT
BRANCH   1   5
HETATM    5  C8  UNL     1      -0.830 -24.765  17.736  1.00  0.00     0.146 C 
BRANCH   5   6
HETATM    6  C7  UNL     1      -0.569 -24.019  16.711  1.00  0.00     0.096 C 
HETATM    7  C6  UNL     1       0.250 -22.899  16.838  1.00  0.00     0.113 C 
HETATM    8  C3  UNL     1       1.371 -22.589  16.043  1.00  0.00     0.105 C 
HETATM    9  C2  UNL     1       1.599 -23.056  14.730  1.00  0.00     0.132 C 
HETATM   10  C24 UNL     1       0.754 -23.866  13.992  1.00  0.00     0.155 C 
HETATM   11  C12 UNL     1      -0.597 -24.003  14.202  1.00  0.00     0.089 C 
HETATM   12  C11 UNL     1      -1.118 -24.444  15.464  1.00  0.00     0.204 C 
HETATM   13  O5  UNL     1      -2.073 -25.208  15.468  1.00  0.00    -0.286 OA
BRANCH   7  14
HETATM   14  O3  UNL     1      -0.091 -22.039  17.831  1.00  0.00    -0.357 OA
ATOM     15  H3  UNL     1      -0.456 -22.398  18.631  1.00  0.00     0.217 HD
ENDBRANCH   7  14
BRANCH   8  16
HETATM   16  N1  UNL     1       2.301 -21.702  16.613  1.00  0.00    -0.323 N 
HETATM   17  C4  UNL     1       2.179 -20.294  16.486  1.00  0.00     0.218 C 
HETATM   18  C5  UNL     1       3.150 -19.357  17.085  1.00  0.00     0.117 C 
HETATM   19  O2  UNL     1       1.206 -19.802  15.840  1.00  0.00    -0.274 OA
ATOM     20  H1  UNL     1       3.090 -22.083  17.135  1.00  0.00     0.169 HD
ENDBRANCH   8  16
BRANCH   9  21
HETATM   21  O1  UNL     1       2.761 -22.693  14.105  1.00  0.00    -0.351 OA
HETATM   22  C1  UNL     1       4.064 -23.136  14.342  1.00  0.00     0.210 C 
ENDBRANCH   9  21
BRANCH  10  23
HETATM   23  N7  UNL     1       1.312 -24.687  13.023  1.00  0.00    -0.112 N 
HETATM   24  O13 UNL     1       1.786 -24.155  12.015  1.00  0.00    -0.532 OA
HETATM   25  O14 UNL     1       1.418 -26.048  13.085  1.00  0.00    -0.532 OA
ENDBRANCH  10  23
BRANCH  11  26
HETATM   26  C13 UNL     1      -1.480 -23.853  13.266  1.00  0.00     0.144 C 
HETATM   27  C21 UNL     1      -2.135 -24.920  12.556  1.00  0.00     0.216 C 
BRANCH  26  28
HETATM   28  O6  UNL     1      -1.759 -22.589  12.928  1.00  0.00    -0.335 OA
BRANCH  28  29
HETATM   29  C14 UNL     1      -2.609 -21.601  12.953  1.00  0.00     0.194 C 
HETATM   30  C15 UNL     1      -2.051 -20.263  13.475  1.00  0.00     0.183 C 
HETATM   31  C16 UNL     1      -3.380 -19.546  13.583  1.00  0.00     0.182 C 
HETATM   32  S1  UNL     1      -3.206 -17.766  13.558  1.00  0.00    -0.112 SA
HETATM   33  N6  UNL     1      -3.872 -19.798  12.244  1.00  0.00    -0.356 N 
HETATM   34  C17 UNL     1      -4.229 -17.536  12.122  1.00  0.00     0.064 C 
HETATM   35  C18 UNL     1      -4.455 -18.716  11.595  1.00  0.00     0.095 C 
HETATM   36  C19 UNL     1      -3.587 -21.230  11.940  1.00  0.00     0.218 C 
BRANCH  30  37
HETATM   37  O7  UNL     1      -1.420 -20.451  14.700  1.00  0.00    -0.390 OA
ATOM     38  H7  UNL     1      -1.986 -20.165  15.408  1.00  0.00     0.210 HD
ENDBRANCH  30  37
BRANCH  36  39
HETATM   39  C20 UNL     1      -4.894 -21.979  12.084  1.00  0.00     0.199 C 
HETATM   40  O8  UNL     1      -5.789 -21.827  11.214  1.00  0.00    -0.646 OA
HETATM   41  O9  UNL     1      -5.075 -22.815  13.168  1.00  0.00    -0.646 OA
ENDBRANCH  36  39
ENDBRANCH  28  29
ENDBRANCH  26  28
BRANCH  27  42
HETATM   42  O10 UNL     1      -3.069 -24.650  11.692  1.00  0.00    -0.339 OA
ATOM     43  H10 UNL     1      -3.981 -24.769  11.927  1.00  0.00     0.220 HD
ENDBRANCH  27  42
BRANCH  27  44
HETATM   44  O11 UNL     1      -1.919 -26.276  12.629  1.00  0.00    -0.297 OA
BRANCH  44  45
HETATM   45  C22 UNL     1      -2.747 -27.193  11.963  1.00  0.00     0.261 C 
HETATM   46  C23 UNL     1      -2.121 -28.542  11.751  1.00  0.00     0.071 C 
BRANCH  45  47
HETATM   47  O12 UNL     1      -3.951 -27.393  12.676  1.00  0.00    -0.371 OA
ATOM     48  H12 UNL     1      -4.693 -27.057  12.187  1.00  0.00     0.212 HD
ENDBRANCH  45  47
ENDBRANCH  44  45
ENDBRANCH  27  44
ENDBRANCH  11  26
ENDBRANCH   5   6
BRANCH   5  49
HETATM   49  N4  UNL     1      -1.205 -24.245  18.997  1.00  0.00    -0.282 N 
ATOM     50  H4  UNL     1      -0.568 -24.284  19.792  1.00  0.00     0.188 HD
BRANCH  49  51
HETATM   51  N5  UNL     1      -2.508 -23.662  19.118  1.00  0.00    -0.276 N 
ATOM     52  H5  UNL     1      -3.047 -23.417  18.288  1.00  0.00     0.189 HD
BRANCH  51  53
HETATM   53  C10 UNL     1      -3.027 -23.435  20.405  1.00  0.00     0.368 C 
HETATM   54  O4  UNL     1      -2.895 -24.272  21.303  1.00  0.00    -0.282 OA
ENDBRANCH  51  53
ENDBRANCH  49  51
ENDBRANCH   5  49
ENDBRANCH   1   5
TORSDOF 18
ENDMDL
