MODEL 1
REMARK VINA RESULT: -8.613729036      0.000      0.000
REMARK  14 active torsions:
REMARK  status: ('A' for Active; 'I' for Inactive)
REMARK    1  A    between atoms: C3_3  and  C4_4 
REMARK    2  A    between atoms: C4_4  and  C5_5 
REMARK    3  A    between atoms: C11_12  and  O1_13 
REMARK    4  A    between atoms: C12_17  and  C13_18 
REMARK    5  A    between atoms: C13_18  and  C14_19 
REMARK    6  A    between atoms: C14_19  and  C15_20 
REMARK    7  A    between atoms: C15_20  and  N2_21 
REMARK    8  A    between atoms: C19_30  and  C20_31 
REMARK    9  A    between atoms: C22_36  and  C23_37 
REMARK   10  A    between atoms: C23_37  and  C24_38 
REMARK   11  A    between atoms: C24_38  and  C25_39 
REMARK   12  A    between atoms: C25_39  and  C26_40 
REMARK   13  A    between atoms: C26_40  and  N7_41 
REMARK   14  A    between atoms: C27_45  and  N8_46 
ROOT
HETATM    1  C1  UNL     1       3.755 -14.142   9.251  1.00  0.00     0.017 C 
HETATM    2  C2  UNL     1       4.155 -14.388  10.472  1.00  0.00    -0.046 C 
HETATM    3  C3  UNL     1       5.020 -13.317  11.123  1.00  0.00     0.095 C 
HETATM    4  C11 UNL     1       4.446 -11.980  10.973  1.00  0.00     0.124 C 
HETATM    5  N1  UNL     1       3.491 -11.278  11.727  1.00  0.00    -0.339 N 
ATOM      6  H1  UNL     1       3.908 -10.551  12.308  1.00  0.00     0.167 HD
HETATM    7  C12 UNL     1       2.083 -11.347  11.869  1.00  0.00     0.079 C 
HETATM    8  C17 UNL     1       1.584 -11.957  13.148  1.00  0.00     0.267 C 
HETATM    9  O2  UNL     1       2.067 -11.366  14.167  1.00  0.00    -0.266 OA
HETATM   10  N5  UNL     1       0.716 -13.010  13.410  1.00  0.00    -0.332 N 
HETATM   11  C18 UNL     1      -0.591 -12.766  14.080  1.00  0.00     0.154 C 
HETATM   12  C19 UNL     1       0.881 -14.443  13.143  1.00  0.00     0.246 C 
HETATM   13  C21 UNL     1       2.228 -14.879  12.790  1.00  0.00     0.165 C 
HETATM   14  O4  UNL     1       3.123 -14.359  13.388  1.00  0.00    -0.295 OA
HETATM   15  C22 UNL     1       2.543 -15.899  11.772  1.00  0.00     0.092 C 
HETATM   16  C27 UNL     1       3.898 -15.624  11.222  1.00  0.00     0.223 C 
ENDROOT
BRANCH   3  17
HETATM   17  C4  UNL     1       6.369 -13.497  10.387  1.00  0.00     0.056 C 
BRANCH  17  18
HETATM   18  C5  UNL     1       7.497 -13.817  11.249  1.00  0.00    -0.056 A 
HETATM   19  C6  UNL     1       7.465 -13.213  12.531  1.00  0.00     0.007 A 
HETATM   20  C7  UNL     1       8.408 -13.424  13.482  1.00  0.00     0.002 A 
HETATM   21  C8  UNL     1       9.488 -14.278  13.210  1.00  0.00     0.024 A 
HETATM   22  C9  UNL     1       9.528 -14.858  11.992  1.00  0.00     0.034 A 
HETATM   23 CL1  UNL     1      10.893 -15.925  11.658  1.00  0.00    -0.084 Cl
HETATM   24  C10 UNL     1       8.554 -14.639  11.020  1.00  0.00     0.031 A 
ENDBRANCH  17  18
ENDBRANCH   3  17
BRANCH   4  25
HETATM   25  O1  UNL     1       4.918 -11.329   9.946  1.00  0.00    -0.349 OA
ATOM     26  H1  UNL     1       5.058 -10.405  10.119  1.00  0.00     0.219 HD
ENDBRANCH   4  25
BRANCH  16  27
HETATM   27  N8  UNL     1       4.457 -16.701  10.418  1.00  0.00    -0.070 N 
ATOM     28  H83 UNL     1       4.346 -17.624  10.837  1.00  0.00     0.275 HD
ATOM     29  H82 UNL     1       3.929 -16.889   9.565  1.00  0.00     0.275 HD
ATOM     30  H81 UNL     1       5.430 -16.445  10.248  1.00  0.00     0.275 HD
ENDBRANCH  16  27
BRANCH  15  31
HETATM   31  C23 UNL     1       1.470 -16.148  10.796  1.00  0.00     0.015 C 
BRANCH  31  32
HETATM   32  C24 UNL     1       0.860 -17.441  10.602  1.00  0.00     0.002 C 
BRANCH  32  33
HETATM   33  C25 UNL     1      -0.275 -17.901  11.429  1.00  0.00     0.027 C 
BRANCH  33  34
HETATM   34  C26 UNL     1       0.155 -18.681  12.682  1.00  0.00     0.229 C 
BRANCH  34  35
HETATM   35  N7  UNL     1      -0.846 -18.578  13.692  1.00  0.00    -0.079 N 
ATOM     36  H73 UNL     1      -1.778 -18.461  13.294  1.00  0.00     0.274 HD
ATOM     37  H72 UNL     1      -0.999 -19.466  14.169  1.00  0.00     0.274 HD
ATOM     38  H71 UNL     1      -0.612 -17.830  14.343  1.00  0.00     0.274 HD
ENDBRANCH  34  35
ENDBRANCH  33  34
ENDBRANCH  32  33
ENDBRANCH  31  32
ENDBRANCH  15  31
BRANCH   7  39
HETATM   39  C13 UNL     1       1.226 -11.662  10.709  1.00  0.00     0.064 C 
BRANCH  39  40
HETATM   40  C14 UNL     1       0.542 -10.508  10.057  1.00  0.00     0.026 C 
BRANCH  40  41
HETATM   41  C15 UNL     1       1.501  -9.512   9.475  1.00  0.00     0.122 C 
BRANCH  41  42
HETATM   42  N2  UNL     1       1.176  -8.148   9.918  1.00  0.00    -0.367 N 
HETATM   43  C16 UNL     1       1.415  -7.195   9.067  1.00  0.00     0.196 C 
HETATM   44  N3  UNL     1       1.108  -5.874   9.481  1.00  0.00    -0.067 NA
HETATM   45  N4  UNL     1       1.952  -7.406   7.785  1.00  0.00    -0.067 NA
ATOM     46  H2  UNL     1       0.784  -7.961  10.841  1.00  0.00     0.161 HD
ENDBRANCH  41  42
ENDBRANCH  40  41
ENDBRANCH  39  40
ENDBRANCH   7  39
BRANCH  12  47
HETATM   47  C20 UNL     1       0.514 -15.101  14.475  1.00  0.00     0.261 C 
HETATM   48  N6  UNL     1      -0.746 -15.695  14.682  1.00  0.00    -0.060 NA
HETATM   49  O3  UNL     1       1.390 -15.097  15.406  1.00  0.00    -0.274 OA
ENDBRANCH  12  47
TORSDOF 14
ENDMDL
MODEL 2
REMARK VINA RESULT: -8.129216202      0.672      1.065
REMARK  14 active torsions:
REMARK  status: ('A' for Active; 'I' for Inactive)
REMARK    1  A    between atoms: C3_3  and  C4_4 
REMARK    2  A    between atoms: C4_4  and  C5_5 
REMARK    3  A    between atoms: C11_12  and  O1_13 
REMARK    4  A    between atoms: C12_17  and  C13_18 
REMARK    5  A    between atoms: C13_18  and  C14_19 
REMARK    6  A    between atoms: C14_19  and  C15_20 
REMARK    7  A    between atoms: C15_20  and  N2_21 
REMARK    8  A    between atoms: C19_30  and  C20_31 
REMARK    9  A    between atoms: C22_36  and  C23_37 
REMARK   10  A    between atoms: C23_37  and  C24_38 
REMARK   11  A    between atoms: C24_38  and  C25_39 
REMARK   12  A    between atoms: C25_39  and  C26_40 
REMARK   13  A    between atoms: C26_40  and  N7_41 
REMARK   14  A    between atoms: C27_45  and  N8_46 
ROOT
HETATM    1  C1  UNL     1       3.446 -14.129   9.133  1.00  0.00     0.017 C 
HETATM    2  C2  UNL     1       3.929 -14.409  10.316  1.00  0.00    -0.046 C 
HETATM    3  C3  UNL     1       4.851 -13.364  10.929  1.00  0.00     0.095 C 
HETATM    4  C11 UNL     1       4.285 -12.018  10.853  1.00  0.00     0.124 C 
HETATM    5  N1  UNL     1       3.395 -11.324  11.689  1.00  0.00    -0.339 N 
ATOM      6  H1  UNL     1       3.861 -10.616  12.256  1.00  0.00     0.167 HD
HETATM    7  C12 UNL     1       2.000 -11.381  11.930  1.00  0.00     0.079 C 
HETATM    8  C17 UNL     1       1.585 -12.017  13.226  1.00  0.00     0.267 C 
HETATM    9  O2  UNL     1       2.147 -11.456  14.221  1.00  0.00    -0.266 OA
HETATM   10  N5  UNL     1       0.725 -13.066  13.524  1.00  0.00    -0.332 N 
HETATM   11  C18 UNL     1      -0.528 -12.824  14.291  1.00  0.00     0.154 C 
HETATM   12  C19 UNL     1       0.852 -14.495  13.212  1.00  0.00     0.246 C 
HETATM   13  C21 UNL     1       2.165 -14.936  12.753  1.00  0.00     0.165 C 
HETATM   14  O4  UNL     1       3.107 -14.441  13.298  1.00  0.00    -0.295 OA
HETATM   15  C22 UNL     1       2.394 -15.934  11.692  1.00  0.00     0.092 C 
HETATM   16  C27 UNL     1       3.710 -15.661  11.053  1.00  0.00     0.223 C 
ENDROOT
BRANCH   3  17
HETATM   17  C4  UNL     1       6.142 -13.541  10.094  1.00  0.00     0.056 C 
BRANCH  17  18
HETATM   18  C5  UNL     1       7.180 -14.336  10.735  1.00  0.00    -0.056 A 
HETATM   19  C6  UNL     1       7.418 -15.602  10.143  1.00  0.00     0.007 A 
HETATM   20  C7  UNL     1       8.370 -16.464  10.578  1.00  0.00     0.002 A 
HETATM   21  C8  UNL     1       9.176 -16.112  11.671  1.00  0.00     0.024 A 
HETATM   22  C9  UNL     1       8.958 -14.909  12.242  1.00  0.00     0.034 A 
HETATM   23 CL1  UNL     1       9.972 -14.479  13.620  1.00  0.00    -0.084 Cl
HETATM   24  C10 UNL     1       7.978 -14.027  11.789  1.00  0.00     0.031 A 
ENDBRANCH  17  18
ENDBRANCH   3  17
BRANCH   4  25
HETATM   25  O1  UNL     1       4.691 -11.346   9.810  1.00  0.00    -0.349 OA
ATOM     26  H1  UNL     1       4.167 -10.574   9.634  1.00  0.00     0.219 HD
ENDBRANCH   4  25
BRANCH  16  27
HETATM   27  N8  UNL     1       4.197 -16.723  10.185  1.00  0.00    -0.070 N 
ATOM     28  H83 UNL     1       4.107 -17.655  10.591  1.00  0.00     0.275 HD
ATOM     29  H82 UNL     1       3.606 -16.886   9.370  1.00  0.00     0.275 HD
ATOM     30  H81 UNL     1       5.157 -16.472   9.950  1.00  0.00     0.275 HD
ENDBRANCH  16  27
BRANCH  15  31
HETATM   31  C23 UNL     1       1.252 -16.147  10.789  1.00  0.00     0.015 C 
BRANCH  31  32
HETATM   32  C24 UNL     1       0.710 -17.451  10.491  1.00  0.00     0.002 C 
BRANCH  32  33
HETATM   33  C25 UNL     1      -0.425 -18.017  11.251  1.00  0.00     0.027 C 
BRANCH  33  34
HETATM   34  C26 UNL     1       0.008 -18.850  12.469  1.00  0.00     0.229 C 
BRANCH  34  35
HETATM   35  N7  UNL     1      -0.811 -18.539  13.592  1.00  0.00    -0.079 N 
ATOM     36  H73 UNL     1      -0.304 -18.007  14.299  1.00  0.00     0.274 HD
ATOM     37  H72 UNL     1      -1.523 -17.844  13.365  1.00  0.00     0.274 HD
ATOM     38  H71 UNL     1      -1.219 -19.391  13.976  1.00  0.00     0.274 HD
ENDBRANCH  34  35
ENDBRANCH  33  34
ENDBRANCH  32  33
ENDBRANCH  31  32
ENDBRANCH  15  31
BRANCH   7  39
HETATM   39  C13 UNL     1       1.059 -11.658  10.827  1.00  0.00     0.064 C 
BRANCH  39  40
HETATM   40  C14 UNL     1       0.416 -10.472  10.189  1.00  0.00     0.026 C 
BRANCH  40  41
HETATM   41  C15 UNL     1       1.404  -9.559   9.524  1.00  0.00     0.122 C 
BRANCH  41  42
HETATM   42  N2  UNL     1       1.189  -8.164   9.936  1.00  0.00    -0.367 N 
HETATM   43  C16 UNL     1       1.402  -7.257   9.029  1.00  0.00     0.196 C 
HETATM   44  N3  UNL     1       1.201  -5.907   9.412  1.00  0.00    -0.067 NA
HETATM   45  N4  UNL     1       1.812  -7.545   7.715  1.00  0.00    -0.067 NA
ATOM     46  H2  UNL     1       0.890  -7.921  10.881  1.00  0.00     0.161 HD
ENDBRANCH  41  42
ENDBRANCH  40  41
ENDBRANCH  39  40
ENDBRANCH   7  39
BRANCH  12  47
HETATM   47  C20 UNL     1       0.573 -15.180  14.550  1.00  0.00     0.261 C 
HETATM   48  N6  UNL     1      -0.657 -15.816  14.812  1.00  0.00    -0.060 NA
HETATM   49  O3  UNL     1       1.494 -15.162  15.436  1.00  0.00    -0.274 OA
ENDBRANCH  12  47
TORSDOF 14
ENDMDL
MODEL 3
REMARK VINA RESULT: -8.085669117      1.290      1.593
REMARK  14 active torsions:
REMARK  status: ('A' for Active; 'I' for Inactive)
REMARK    1  A    between atoms: C3_3  and  C4_4 
REMARK    2  A    between atoms: C4_4  and  C5_5 
REMARK    3  A    between atoms: C11_12  and  O1_13 
REMARK    4  A    between atoms: C12_17  and  C13_18 
REMARK    5  A    between atoms: C13_18  and  C14_19 
REMARK    6  A    between atoms: C14_19  and  C15_20 
REMARK    7  A    between atoms: C15_20  and  N2_21 
REMARK    8  A    between atoms: C19_30  and  C20_31 
REMARK    9  A    between atoms: C22_36  and  C23_37 
REMARK   10  A    between atoms: C23_37  and  C24_38 
REMARK   11  A    between atoms: C24_38  and  C25_39 
REMARK   12  A    between atoms: C25_39  and  C26_40 
REMARK   13  A    between atoms: C26_40  and  N7_41 
REMARK   14  A    between atoms: C27_45  and  N8_46 
ROOT
HETATM    1  C1  UNL     1       3.694 -13.905   9.525  1.00  0.00     0.017 C 
HETATM    2  C2  UNL     1       4.160 -14.409  10.640  1.00  0.00    -0.046 C 
HETATM    3  C3  UNL     1       4.784 -13.419  11.614  1.00  0.00     0.095 C 
HETATM    4  C11 UNL     1       3.932 -12.251  11.833  1.00  0.00     0.124 C 
HETATM    5  N1  UNL     1       2.862 -12.021  12.713  1.00  0.00    -0.339 N 
ATOM      6  H1  UNL     1       3.122 -11.425  13.499  1.00  0.00     0.167 HD
HETATM    7  C12 UNL     1       1.505 -12.425  12.763  1.00  0.00     0.079 C 
HETATM    8  C17 UNL     1       1.173 -13.476  13.784  1.00  0.00     0.267 C 
HETATM    9  O2  UNL     1       1.535 -13.121  14.952  1.00  0.00    -0.266 OA
HETATM   10  N5  UNL     1       0.558 -14.718  13.687  1.00  0.00    -0.332 N 
HETATM   11  C18 UNL     1      -0.759 -14.964  14.338  1.00  0.00     0.154 C 
HETATM   12  C19 UNL     1       1.024 -15.940  13.023  1.00  0.00     0.246 C 
HETATM   13  C21 UNL     1       2.427 -15.957  12.622  1.00  0.00     0.165 C 
HETATM   14  O4  UNL     1       3.200 -15.458  13.386  1.00  0.00    -0.295 OA
HETATM   15  C22 UNL     1       2.937 -16.541  11.367  1.00  0.00     0.092 C 
HETATM   16  C27 UNL     1       4.190 -15.836  10.985  1.00  0.00     0.223 C 
ENDROOT
BRANCH   3  17
HETATM   17  C4  UNL     1       6.126 -13.084  10.921  1.00  0.00     0.056 C 
BRANCH  17  18
HETATM   18  C5  UNL     1       7.311 -13.548  11.628  1.00  0.00    -0.056 A 
HETATM   19  C6  UNL     1       7.390 -13.159  12.989  1.00  0.00     0.007 A 
HETATM   20  C7  UNL     1       8.399 -13.527  13.816  1.00  0.00     0.002 A 
HETATM   21  C8  UNL     1       9.437 -14.334  13.326  1.00  0.00     0.024 A 
HETATM   22  C9  UNL     1       9.372 -14.711  12.031  1.00  0.00     0.034 A 
HETATM   23 CL1  UNL     1      10.685 -15.721  11.423  1.00  0.00    -0.084 Cl
HETATM   24  C10 UNL     1       8.330 -14.330  11.187  1.00  0.00     0.031 A 
ENDBRANCH  17  18
ENDBRANCH   3  17
BRANCH   4  25
HETATM   25  O1  UNL     1       4.233 -11.241  11.063  1.00  0.00    -0.349 OA
ATOM     26  H1  UNL     1       4.616 -10.511  11.533  1.00  0.00     0.219 HD
ENDBRANCH   4  25
BRANCH  16  27
HETATM   27  N8  UNL     1       4.954 -16.485   9.929  1.00  0.00    -0.070 N 
ATOM     28  H83 UNL     1       5.287 -17.416  10.179  1.00  0.00     0.275 HD
ATOM     29  H82 UNL     1       4.387 -16.767   9.130  1.00  0.00     0.275 HD
ATOM     30  H81 UNL     1       5.703 -15.835   9.689  1.00  0.00     0.275 HD
ENDBRANCH  16  27
BRANCH  15  31
HETATM   31  C23 UNL     1       1.926 -16.714  10.312  1.00  0.00     0.015 C 
BRANCH  31  32
HETATM   32  C24 UNL     1       1.348 -17.991   9.970  1.00  0.00     0.002 C 
BRANCH  32  33
HETATM   33  C25 UNL     1       1.228 -19.083  10.959  1.00  0.00     0.027 C 
BRANCH  33  34
HETATM   34  C26 UNL     1      -0.210 -19.599  11.132  1.00  0.00     0.229 C 
BRANCH  34  35
HETATM   35  N7  UNL     1      -1.123 -18.506  11.160  1.00  0.00    -0.079 N 
ATOM     36  H73 UNL     1      -1.802 -18.596  11.916  1.00  0.00     0.274 HD
ATOM     37  H72 UNL     1      -0.675 -17.642  11.464  1.00  0.00     0.274 HD
ATOM     38  H71 UNL     1      -1.575 -18.403  10.252  1.00  0.00     0.274 HD
ENDBRANCH  34  35
ENDBRANCH  33  34
ENDBRANCH  32  33
ENDBRANCH  31  32
ENDBRANCH  15  31
BRANCH   7  39
HETATM   39  C13 UNL     1       0.715 -12.560  11.522  1.00  0.00     0.064 C 
BRANCH  39  40
HETATM   40  C14 UNL     1      -0.416 -11.602  11.349  1.00  0.00     0.026 C 
BRANCH  40  41
HETATM   41  C15 UNL     1       0.012 -10.168  11.453  1.00  0.00     0.122 C 
BRANCH  41  42
HETATM   42  N2  UNL     1       0.403  -9.640  10.137  1.00  0.00    -0.367 N 
HETATM   43  C16 UNL     1       1.591  -9.119  10.056  1.00  0.00     0.196 C 
HETATM   44  N3  UNL     1       1.980  -8.604   8.794  1.00  0.00    -0.067 NA
HETATM   45  N4  UNL     1       2.488  -9.042  11.136  1.00  0.00    -0.067 NA
ATOM     46  H2  UNL     1      -0.224  -9.681   9.333  1.00  0.00     0.161 HD
ENDBRANCH  41  42
ENDBRANCH  40  41
ENDBRANCH  39  40
ENDBRANCH   7  39
BRANCH  12  47
HETATM   47  C20 UNL     1       0.833 -17.022  14.087  1.00  0.00     0.261 C 
HETATM   48  N6  UNL     1      -0.365 -17.757  14.186  1.00  0.00    -0.060 NA
HETATM   49  O3  UNL     1       1.798 -17.245  14.895  1.00  0.00    -0.274 OA
ENDBRANCH  12  47
TORSDOF 14
ENDMDL
MODEL 4
REMARK VINA RESULT: -7.493007899      3.088      4.318
REMARK  14 active torsions:
REMARK  status: ('A' for Active; 'I' for Inactive)
REMARK    1  A    between atoms: C3_3  and  C4_4 
REMARK    2  A    between atoms: C4_4  and  C5_5 
REMARK    3  A    between atoms: C11_12  and  O1_13 
REMARK    4  A    between atoms: C12_17  and  C13_18 
REMARK    5  A    between atoms: C13_18  and  C14_19 
REMARK    6  A    between atoms: C14_19  and  C15_20 
REMARK    7  A    between atoms: C15_20  and  N2_21 
REMARK    8  A    between atoms: C19_30  and  C20_31 
REMARK    9  A    between atoms: C22_36  and  C23_37 
REMARK   10  A    between atoms: C23_37  and  C24_38 
REMARK   11  A    between atoms: C24_38  and  C25_39 
REMARK   12  A    between atoms: C25_39  and  C26_40 
REMARK   13  A    between atoms: C26_40  and  N7_41 
REMARK   14  A    between atoms: C27_45  and  N8_46 
ROOT
HETATM    1  C1  UNL     1       5.293 -16.135  11.407  1.00  0.00     0.017 C 
HETATM    2  C2  UNL     1       4.645 -16.282  12.535  1.00  0.00    -0.046 C 
HETATM    3  C3  UNL     1       5.215 -15.545  13.738  1.00  0.00     0.095 C 
HETATM    4  C11 UNL     1       5.514 -14.146  13.435  1.00  0.00     0.124 C 
HETATM    5  N1  UNL     1       4.716 -12.990  13.451  1.00  0.00    -0.339 N 
ATOM      6  H1  UNL     1       4.905 -12.394  14.256  1.00  0.00     0.167 HD
HETATM    7  C12 UNL     1       3.707 -12.460  12.608  1.00  0.00     0.079 C 
HETATM    8  C17 UNL     1       2.301 -12.562  13.127  1.00  0.00     0.267 C 
HETATM    9  O2  UNL     1       2.190 -12.031  14.279  1.00  0.00    -0.266 OA
HETATM   10  N5  UNL     1       1.140 -13.109  12.594  1.00  0.00    -0.332 N 
HETATM   11  C18 UNL     1      -0.018 -12.238  12.249  1.00  0.00     0.154 C 
HETATM   12  C19 UNL     1       0.815 -14.510  12.306  1.00  0.00     0.246 C 
HETATM   13  C21 UNL     1       1.711 -15.507  12.882  1.00  0.00     0.165 C 
HETATM   14  O4  UNL     1       2.103 -15.286  13.989  1.00  0.00    -0.295 OA
HETATM   15  C22 UNL     1       2.145 -16.742  12.202  1.00  0.00     0.092 C 
HETATM   16  C27 UNL     1       3.472 -17.144  12.739  1.00  0.00     0.223 C 
ENDROOT
BRANCH   3  17
HETATM   17  C4  UNL     1       6.469 -16.387  14.070  1.00  0.00     0.056 C 
BRANCH  17  18
HETATM   18  C5  UNL     1       6.704 -16.598  15.491  1.00  0.00    -0.056 A 
HETATM   19  C6  UNL     1       5.536 -16.791  16.272  1.00  0.00     0.007 A 
HETATM   20  C7  UNL     1       5.559 -17.038  17.605  1.00  0.00     0.002 A 
HETATM   21  C8  UNL     1       6.790 -17.111  18.275  1.00  0.00     0.024 A 
HETATM   22  C9  UNL     1       7.908 -16.929  17.542  1.00  0.00     0.034 A 
HETATM   23 CL1  UNL     1       9.450 -17.015  18.395  1.00  0.00    -0.084 Cl
HETATM   24  C10 UNL     1       7.877 -16.676  16.171  1.00  0.00     0.031 A 
ENDBRANCH  17  18
ENDBRANCH   3  17
BRANCH   4  25
HETATM   25  O1  UNL     1       6.756 -13.947  13.088  1.00  0.00    -0.349 OA
ATOM     26  H1  UNL     1       6.887 -13.139  12.606  1.00  0.00     0.219 HD
ENDBRANCH   4  25
BRANCH  16  27
HETATM   27  N8  UNL     1       3.897 -18.486  12.370  1.00  0.00    -0.070 N 
ATOM     28  H83 UNL     1       4.443 -18.520  11.509  1.00  0.00     0.275 HD
ATOM     29  H82 UNL     1       4.613 -18.871  12.985  1.00  0.00     0.275 HD
ATOM     30  H81 UNL     1       3.046 -19.048  12.334  1.00  0.00     0.275 HD
ENDBRANCH  16  27
BRANCH  15  31
HETATM   31  C23 UNL     1       2.001 -16.723  10.737  1.00  0.00     0.015 C 
BRANCH  31  32
HETATM   32  C24 UNL     1       1.107 -17.597  10.017  1.00  0.00     0.002 C 
BRANCH  32  33
HETATM   33  C25 UNL     1       0.776 -18.951  10.508  1.00  0.00     0.027 C 
BRANCH  33  34
HETATM   34  C26 UNL     1      -0.496 -18.997  11.370  1.00  0.00     0.229 C 
BRANCH  34  35
HETATM   35  N7  UNL     1      -1.403 -17.978  10.960  1.00  0.00    -0.079 N 
ATOM     36  H73 UNL     1      -1.002 -17.046  11.062  1.00  0.00     0.274 HD
ATOM     37  H72 UNL     1      -1.539 -17.972   9.949  1.00  0.00     0.274 HD
ATOM     38  H71 UNL     1      -2.286 -18.070  11.463  1.00  0.00     0.274 HD
ENDBRANCH  34  35
ENDBRANCH  33  34
ENDBRANCH  32  33
ENDBRANCH  31  32
ENDBRANCH  15  31
BRANCH   7  39
HETATM   39  C13 UNL     1       3.792 -12.622  11.143  1.00  0.00     0.064 C 
BRANCH  39  40
HETATM   40  C14 UNL     1       4.169 -11.407  10.363  1.00  0.00     0.026 C 
BRANCH  40  41
HETATM   41  C15 UNL     1       5.428 -11.590   9.568  1.00  0.00     0.122 C 
BRANCH  41  42
HETATM   42  N2  UNL     1       6.399 -12.412  10.305  1.00  0.00    -0.367 N 
HETATM   43  C16 UNL     1       6.929 -13.402   9.650  1.00  0.00     0.196 C 
HETATM   44  N3  UNL     1       7.866 -14.205  10.348  1.00  0.00    -0.067 NA
HETATM   45  N4  UNL     1       6.624 -13.708   8.312  1.00  0.00    -0.067 NA
ATOM     46  H2  UNL     1       6.644 -12.216  11.276  1.00  0.00     0.161 HD
ENDBRANCH  41  42
ENDBRANCH  40  41
ENDBRANCH  39  40
ENDBRANCH   7  39
BRANCH  12  47
HETATM   47  C20 UNL     1      -0.562 -14.697  12.945  1.00  0.00     0.261 C 
HETATM   48  N6  UNL     1      -0.771 -14.488  14.322  1.00  0.00    -0.060 NA
HETATM   49  O3  UNL     1      -1.529 -15.053  12.189  1.00  0.00    -0.274 OA
ENDBRANCH  12  47
TORSDOF 14
ENDMDL
MODEL 5
REMARK VINA RESULT: -7.314854195      2.817      3.257
REMARK  14 active torsions:
REMARK  status: ('A' for Active; 'I' for Inactive)
REMARK    1  A    between atoms: C3_3  and  C4_4 
REMARK    2  A    between atoms: C4_4  and  C5_5 
REMARK    3  A    between atoms: C11_12  and  O1_13 
REMARK    4  A    between atoms: C12_17  and  C13_18 
REMARK    5  A    between atoms: C13_18  and  C14_19 
REMARK    6  A    between atoms: C14_19  and  C15_20 
REMARK    7  A    between atoms: C15_20  and  N2_21 
REMARK    8  A    between atoms: C19_30  and  C20_31 
REMARK    9  A    between atoms: C22_36  and  C23_37 
REMARK   10  A    between atoms: C23_37  and  C24_38 
REMARK   11  A    between atoms: C24_38  and  C25_39 
REMARK   12  A    between atoms: C25_39  and  C26_40 
REMARK   13  A    between atoms: C26_40  and  N7_41 
REMARK   14  A    between atoms: C27_45  and  N8_46 
ROOT
HETATM    1  C1  UNL     1       5.551 -15.563  11.042  1.00  0.00     0.017 C 
HETATM    2  C2  UNL     1       4.988 -15.778  12.204  1.00  0.00    -0.046 C 
HETATM    3  C3  UNL     1       5.560 -14.999  13.380  1.00  0.00     0.095 C 
HETATM    4  C11 UNL     1       5.710 -13.576  13.078  1.00  0.00     0.124 C 
HETATM    5  N1  UNL     1       4.810 -12.500  13.156  1.00  0.00    -0.339 N 
ATOM      6  H1  UNL     1       4.993 -11.894  13.956  1.00  0.00     0.167 HD
HETATM    7  C12 UNL     1       3.708 -12.060  12.382  1.00  0.00     0.079 C 
HETATM    8  C17 UNL     1       2.351 -12.297  12.984  1.00  0.00     0.267 C 
HETATM    9  O2  UNL     1       2.261 -11.786  14.146  1.00  0.00    -0.266 OA
HETATM   10  N5  UNL     1       1.216 -12.945  12.513  1.00  0.00    -0.332 N 
HETATM   11  C18 UNL     1      -0.037 -12.183  12.249  1.00  0.00     0.154 C 
HETATM   12  C19 UNL     1       1.005 -14.368  12.227  1.00  0.00     0.246 C 
HETATM   13  C21 UNL     1       2.022 -15.282  12.736  1.00  0.00     0.165 C 
HETATM   14  O4  UNL     1       2.459 -15.033  13.821  1.00  0.00    -0.295 OA
HETATM   15  C22 UNL     1       2.526 -16.466  12.016  1.00  0.00     0.092 C 
HETATM   16  C27 UNL     1       3.915 -16.746  12.467  1.00  0.00     0.223 C 
ENDROOT
BRANCH   3  17
HETATM   17  C4  UNL     1       6.905 -15.723  13.626  1.00  0.00     0.056 C 
BRANCH  17  18
HETATM   18  C5  UNL     1       7.058 -16.291  14.958  1.00  0.00    -0.056 A 
HETATM   19  C6  UNL     1       8.363 -16.195  15.506  1.00  0.00     0.007 A 
HETATM   20  C7  UNL     1       8.687 -16.633  16.747  1.00  0.00     0.002 A 
HETATM   21  C8  UNL     1       7.701 -17.221  17.555  1.00  0.00     0.024 A 
HETATM   22  C9  UNL     1       6.456 -17.317  17.043  1.00  0.00     0.034 A 
HETATM   23 CL1  UNL     1       5.225 -18.062  18.063  1.00  0.00    -0.084 Cl
HETATM   24  C10 UNL     1       6.129 -16.862  15.766  1.00  0.00     0.031 A 
ENDBRANCH  17  18
ENDBRANCH   3  17
BRANCH   4  25
HETATM   25  O1  UNL     1       6.904 -13.260  12.659  1.00  0.00    -0.349 OA
ATOM     26  H1  UNL     1       6.898 -12.681  11.907  1.00  0.00     0.219 HD
ENDBRANCH   4  25
BRANCH  16  27
HETATM   27  N8  UNL     1       4.439 -18.041  12.056  1.00  0.00    -0.070 N 
ATOM     28  H83 UNL     1       5.379 -17.995  11.664  1.00  0.00     0.275 HD
ATOM     29  H82 UNL     1       4.661 -18.658  12.838  1.00  0.00     0.275 HD
ATOM     30  H81 UNL     1       3.748 -18.429  11.414  1.00  0.00     0.275 HD
ENDBRANCH  16  27
BRANCH  15  31
HETATM   31  C23 UNL     1       2.293 -16.450  10.562  1.00  0.00     0.015 C 
BRANCH  31  32
HETATM   32  C24 UNL     1       1.315 -17.285   9.908  1.00  0.00     0.002 C 
BRANCH  32  33
HETATM   33  C25 UNL     1       1.093 -18.690  10.311  1.00  0.00     0.027 C 
BRANCH  33  34
HETATM   34  C26 UNL     1      -0.108 -18.875  11.254  1.00  0.00     0.229 C 
BRANCH  34  35
HETATM   35  N7  UNL     1      -1.143 -17.956  10.917  1.00  0.00    -0.079 N 
ATOM     36  H73 UNL     1      -0.785 -17.150  10.403  1.00  0.00     0.274 HD
ATOM     37  H72 UNL     1      -1.764 -18.327  10.198  1.00  0.00     0.274 HD
ATOM     38  H71 UNL     1      -1.653 -17.678  11.755  1.00  0.00     0.274 HD
ENDBRANCH  34  35
ENDBRANCH  33  34
ENDBRANCH  32  33
ENDBRANCH  31  32
ENDBRANCH  15  31
BRANCH   7  39
HETATM   39  C13 UNL     1       3.717 -12.203  10.913  1.00  0.00     0.064 C 
BRANCH  39  40
HETATM   40  C14 UNL     1       4.678 -11.336  10.169  1.00  0.00     0.026 C 
BRANCH  40  41
HETATM   41  C15 UNL     1       3.998 -10.296   9.330  1.00  0.00     0.122 C 
BRANCH  41  42
HETATM   42  N2  UNL     1       3.519  -9.182  10.161  1.00  0.00    -0.367 N 
HETATM   43  C16 UNL     1       2.235  -8.977  10.164  1.00  0.00     0.196 C 
HETATM   44  N3  UNL     1       1.758  -7.905  10.960  1.00  0.00    -0.067 NA
HETATM   45  N4  UNL     1       1.317  -9.751   9.433  1.00  0.00    -0.067 NA
ATOM     46  H2  UNL     1       4.158  -8.602  10.705  1.00  0.00     0.161 HD
ENDBRANCH  41  42
ENDBRANCH  40  41
ENDBRANCH  39  40
ENDBRANCH   7  39
BRANCH  12  47
HETATM   47  C20 UNL     1      -0.308 -14.687  12.945  1.00  0.00     0.261 C 
HETATM   48  N6  UNL     1      -0.487 -14.409  14.315  1.00  0.00    -0.060 NA
HETATM   49  O3  UNL     1      -1.249 -15.219  12.264  1.00  0.00    -0.274 OA
ENDBRANCH  12  47
TORSDOF 14
ENDMDL
