MODEL 1
REMARK VINA RESULT: -7.666925556      0.000      0.000
REMARK  11 active torsions:
REMARK  status: ('A' for Active; 'I' for Inactive)
REMARK    1  A    between atoms: C2_2  and  C4_4 
REMARK    2  A    between atoms: C4_4  and  C5_5 
REMARK    3  A    between atoms: C10_13  and  C11_14 
REMARK    4  A    between atoms: C11_14  and  C12_15 
REMARK    5  A    between atoms: C12_15  and  C13_16 
REMARK    6  A    between atoms: C13_16  and  C14_17 
REMARK    7  A    between atoms: C14_17  and  O3_19 
REMARK    8  A    between atoms: C20_32  and  C21_33 
REMARK    9  A    between atoms: C21_33  and  C22_34 
REMARK   10  A    between atoms: C22_34  and  C23_35 
REMARK   11  A    between atoms: C23_35  and  N4_36 
REMARK       I    between atoms: N4_36  and  C24_38 
ROOT
HETATM    1  C5  UNL     1       4.879 -14.899  13.032  1.00  0.00     0.179 C 
HETATM    2  C6  UNL     1       4.384 -15.697  11.908  1.00  0.00     0.240 C 
HETATM    3  O1  UNL     1       3.496 -15.141  11.150  1.00  0.00    -0.271 OA
HETATM    4  N1  UNL     1       4.730 -16.996  11.519  1.00  0.00    -0.359 N 
ATOM      5  H1  UNL     1       4.939 -17.124  10.529  1.00  0.00     0.162 HD
HETATM    6  C7  UNL     1       4.828 -18.174  12.342  1.00  0.00     0.122 C 
HETATM    7  C8  UNL     1       3.565 -18.608  12.994  1.00  0.00     0.020 C 
HETATM    8  C9  UNL     1       2.634 -19.420  12.103  1.00  0.00     0.007 C 
HETATM    9  C10 UNL     1       1.598 -20.016  13.056  1.00  0.00    -0.006 C 
HETATM   10  C15 UNL     1       0.651 -19.022  13.612  1.00  0.00     0.107 C 
HETATM   11  C16 UNL     1      -0.259 -18.374  12.657  1.00  0.00     0.218 C 
HETATM   12  O4  UNL     1      -0.753 -19.103  11.745  1.00  0.00    -0.274 OA
HETATM   13  N2  UNL     1      -0.638 -17.011  12.658  1.00  0.00    -0.348 N 
ATOM     14  H2  UNL     1      -1.633 -16.813  12.556  1.00  0.00     0.163 HD
HETATM   15  C17 UNL     1       0.238 -15.871  12.788  1.00  0.00     0.172 C 
HETATM   16  C18 UNL     1      -0.109 -14.889  11.678  1.00  0.00     0.042 C 
HETATM   17  C19 UNL     1       0.022 -15.230  14.130  1.00  0.00     0.240 C 
HETATM   18  O5  UNL     1      -0.813 -15.765  14.942  1.00  0.00    -0.271 OA
HETATM   19  N3  UNL     1       0.686 -14.064  14.563  1.00  0.00    -0.346 N 
ATOM     20  H3  UNL     1       0.165 -13.371  15.101  1.00  0.00     0.163 HD
HETATM   21  C20 UNL     1       2.071 -13.816  14.273  1.00  0.00     0.176 C 
HETATM   22  C25 UNL     1       2.922 -14.969  14.663  1.00  0.00     0.243 C 
HETATM   23  O6  UNL     1       2.359 -15.853  15.397  1.00  0.00    -0.271 OA
HETATM   24  N7  UNL     1       4.257 -15.190  14.319  1.00  0.00    -0.341 N 
HETATM   25  C26 UNL     1       5.112 -15.765  15.370  1.00  0.00     0.153 C 
ENDROOT
BRANCH  21  26
HETATM   26  C21 UNL     1       2.606 -12.580  14.932  1.00  0.00     0.036 C 
BRANCH  26  27
HETATM   27  C22 UNL     1       2.950 -11.449  14.040  1.00  0.00     0.022 C 
BRANCH  27  28
HETATM   28  C23 UNL     1       3.257 -11.880  12.612  1.00  0.00     0.122 C 
BRANCH  28  29
HETATM   29  N4  UNL     1       2.593 -11.023  11.674  1.00  0.00    -0.365 N 
HETATM   30  C24 UNL     1       2.020 -11.492  10.475  1.00  0.00     0.181 C 
HETATM   31  N5  UNL     1       2.315 -12.671  10.030  1.00  0.00    -0.374 N 
HETATM   32  N6  UNL     1       1.114 -10.694   9.729  1.00  0.00    -0.064 NA
ATOM     33  H52 UNL     1       2.966 -13.244  10.565  1.00  0.00     0.158 HD
ATOM     34  H51 UNL     1       1.900 -13.010   9.161  1.00  0.00     0.158 HD
ATOM     35  H4  UNL     1       2.531 -10.027  11.885  1.00  0.00     0.162 HD
ENDBRANCH  28  29
ENDBRANCH  27  28
ENDBRANCH  26  27
ENDBRANCH  21  26
BRANCH   1  36
HETATM   36  C4  UNL     1       6.357 -14.796  13.189  1.00  0.00     0.039 C 
BRANCH  36  37
HETATM   37  C2  UNL     1       6.997 -13.492  12.945  1.00  0.00    -0.020 C 
HETATM   38  C1  UNL     1       8.403 -13.308  13.416  1.00  0.00     0.009 C 
HETATM   39  C3  UNL     1       6.853 -13.025  11.500  1.00  0.00     0.009 C 
ENDBRANCH  36  37
ENDBRANCH   1  36
BRANCH   9  40
HETATM   40  C11 UNL     1       0.993 -21.265  12.488  1.00  0.00     0.005 C 
BRANCH  40  41
HETATM   41  C12 UNL     1       1.589 -21.646  11.179  1.00  0.00     0.010 C 
BRANCH  41  42
HETATM   42  C13 UNL     1       0.514 -21.959  10.164  1.00  0.00     0.114 C 
BRANCH  42  43
HETATM   43  C14 UNL     1       0.873 -21.400   8.847  1.00  0.00     0.294 C 
HETATM   44  O2  UNL     1       0.568 -21.929   7.751  1.00  0.00    -0.262 OA
BRANCH  43  45
HETATM   45  O3  UNL     1       1.591 -20.215   8.807  1.00  0.00    -0.117 OA
HETATM   46  F1  UNL     1       1.029 -19.080   9.269  1.00  0.00    -0.039 F 
ENDBRANCH  43  45
ENDBRANCH  42  43
ENDBRANCH  41  42
ENDBRANCH  40  41
ENDBRANCH   9  40
TORSDOF 11
ENDMDL
MODEL 2
REMARK VINA RESULT: -7.475308692      1.667      2.092
REMARK  11 active torsions:
REMARK  status: ('A' for Active; 'I' for Inactive)
REMARK    1  A    between atoms: C2_2  and  C4_4 
REMARK    2  A    between atoms: C4_4  and  C5_5 
REMARK    3  A    between atoms: C10_13  and  C11_14 
REMARK    4  A    between atoms: C11_14  and  C12_15 
REMARK    5  A    between atoms: C12_15  and  C13_16 
REMARK    6  A    between atoms: C13_16  and  C14_17 
REMARK    7  A    between atoms: C14_17  and  O3_19 
REMARK    8  A    between atoms: C20_32  and  C21_33 
REMARK    9  A    between atoms: C21_33  and  C22_34 
REMARK   10  A    between atoms: C22_34  and  C23_35 
REMARK   11  A    between atoms: C23_35  and  N4_36 
REMARK       I    between atoms: N4_36  and  C24_38 
ROOT
HETATM    1  C5  UNL     1       4.834 -14.651  13.041  1.00  0.00     0.179 C 
HETATM    2  C6  UNL     1       4.335 -15.305  11.829  1.00  0.00     0.240 C 
HETATM    3  O1  UNL     1       3.496 -14.631  11.111  1.00  0.00    -0.271 OA
HETATM    4  N1  UNL     1       4.631 -16.573  11.316  1.00  0.00    -0.359 N 
ATOM      5  H1  UNL     1       4.863 -16.610  10.324  1.00  0.00     0.162 HD
HETATM    6  C7  UNL     1       4.651 -17.832  12.016  1.00  0.00     0.122 C 
HETATM    7  C8  UNL     1       3.351 -18.268  12.589  1.00  0.00     0.020 C 
HETATM    8  C9  UNL     1       2.410 -18.938  11.597  1.00  0.00     0.007 C 
HETATM    9  C10 UNL     1       1.320 -19.576  12.459  1.00  0.00    -0.006 C 
HETATM   10  C15 UNL     1       0.405 -18.599  13.092  1.00  0.00     0.107 C 
HETATM   11  C16 UNL     1      -0.447 -17.813  12.187  1.00  0.00     0.218 C 
HETATM   12  O4  UNL     1      -0.948 -18.420  11.194  1.00  0.00    -0.274 OA
HETATM   13  N2  UNL     1      -0.762 -16.440  12.320  1.00  0.00    -0.348 N 
ATOM     14  H2  UNL     1      -1.743 -16.185  12.215  1.00  0.00     0.163 HD
HETATM   15  C17 UNL     1       0.162 -15.364  12.588  1.00  0.00     0.172 C 
HETATM   16  C18 UNL     1      -0.107 -14.258  11.577  1.00  0.00     0.042 C 
HETATM   17  C19 UNL     1      -0.063 -14.853  13.984  1.00  0.00     0.240 C 
HETATM   18  O5  UNL     1      -0.945 -15.427  14.716  1.00  0.00    -0.271 OA
HETATM   19  N3  UNL     1       0.642 -13.771  14.550  1.00  0.00    -0.346 N 
ATOM     20  H3  UNL     1       0.139 -13.112  15.144  1.00  0.00     0.163 HD
HETATM   21  C20 UNL     1       2.045 -13.564  14.320  1.00  0.00     0.176 C 
HETATM   22  C25 UNL     1       2.830 -14.791  14.609  1.00  0.00     0.243 C 
HETATM   23  O6  UNL     1       2.205 -15.717  15.234  1.00  0.00    -0.271 OA
HETATM   24  N7  UNL     1       4.162 -15.041  14.276  1.00  0.00    -0.341 N 
HETATM   25  C26 UNL     1       4.959 -15.761  15.282  1.00  0.00     0.153 C 
ENDROOT
BRANCH  21  26
HETATM   26  C21 UNL     1       2.618 -12.429  15.115  1.00  0.00     0.036 C 
BRANCH  26  27
HETATM   27  C22 UNL     1       3.149 -11.281  14.345  1.00  0.00     0.022 C 
BRANCH  27  28
HETATM   28  C23 UNL     1       3.172 -11.523  12.842  1.00  0.00     0.122 C 
BRANCH  28  29
HETATM   29  N4  UNL     1       2.130 -10.781  12.197  1.00  0.00    -0.365 N 
HETATM   30  C24 UNL     1       1.635 -11.103  10.918  1.00  0.00     0.181 C 
HETATM   31  N5  UNL     1       2.292 -11.909  10.148  1.00  0.00    -0.374 N 
HETATM   32  N6  UNL     1       0.414 -10.558  10.441  1.00  0.00    -0.064 NA
ATOM     33  H52 UNL     1       3.169 -12.301  10.490  1.00  0.00     0.158 HD
ATOM     34  H51 UNL     1       1.934 -12.142   9.221  1.00  0.00     0.158 HD
ATOM     35  H4  UNL     1       1.727  -9.983  12.687  1.00  0.00     0.162 HD
ENDBRANCH  28  29
ENDBRANCH  27  28
ENDBRANCH  26  27
ENDBRANCH  21  26
BRANCH   1  36
HETATM   36  C4  UNL     1       6.310 -14.638  13.243  1.00  0.00     0.039 C 
BRANCH  36  37
HETATM   37  C2  UNL     1       7.048 -13.401  12.931  1.00  0.00    -0.020 C 
HETATM   38  C1  UNL     1       8.416 -13.242  13.509  1.00  0.00     0.009 C 
HETATM   39  C3  UNL     1       7.058 -13.080  11.439  1.00  0.00     0.009 C 
ENDBRANCH  36  37
ENDBRANCH   1  36
BRANCH   9  40
HETATM   40  C11 UNL     1       0.674 -20.730  11.751  1.00  0.00     0.005 C 
BRANCH  40  41
HETATM   41  C12 UNL     1      -0.192 -21.541  12.650  1.00  0.00     0.010 C 
BRANCH  41  42
HETATM   42  C13 UNL     1      -1.532 -21.818  12.008  1.00  0.00     0.114 C 
BRANCH  42  43
HETATM   43  C14 UNL     1      -2.553 -20.891  12.531  1.00  0.00     0.294 C 
HETATM   44  O2  UNL     1      -2.589 -20.481  13.716  1.00  0.00    -0.262 OA
BRANCH  43  45
HETATM   45  O3  UNL     1      -3.538 -20.437  11.667  1.00  0.00    -0.117 OA
HETATM   46  F1  UNL     1      -4.830 -20.718  11.925  1.00  0.00    -0.039 F 
ENDBRANCH  43  45
ENDBRANCH  42  43
ENDBRANCH  41  42
ENDBRANCH  40  41
ENDBRANCH   9  40
TORSDOF 11
ENDMDL
MODEL 3
REMARK VINA RESULT: -7.470144502      1.478      1.934
REMARK  11 active torsions:
REMARK  status: ('A' for Active; 'I' for Inactive)
REMARK    1  A    between atoms: C2_2  and  C4_4 
REMARK    2  A    between atoms: C4_4  and  C5_5 
REMARK    3  A    between atoms: C10_13  and  C11_14 
REMARK    4  A    between atoms: C11_14  and  C12_15 
REMARK    5  A    between atoms: C12_15  and  C13_16 
REMARK    6  A    between atoms: C13_16  and  C14_17 
REMARK    7  A    between atoms: C14_17  and  O3_19 
REMARK    8  A    between atoms: C20_32  and  C21_33 
REMARK    9  A    between atoms: C21_33  and  C22_34 
REMARK   10  A    between atoms: C22_34  and  C23_35 
REMARK   11  A    between atoms: C23_35  and  N4_36 
REMARK       I    between atoms: N4_36  and  C24_38 
ROOT
HETATM    1  C5  UNL     1       4.323 -13.802  11.505  1.00  0.00     0.179 C 
HETATM    2  C6  UNL     1       3.697 -14.866  10.717  1.00  0.00     0.240 C 
HETATM    3  O1  UNL     1       2.535 -14.605  10.212  1.00  0.00    -0.271 OA
HETATM    4  N1  UNL     1       4.171 -16.148  10.418  1.00  0.00    -0.359 N 
ATOM      5  H1  UNL     1       4.108 -16.432   9.441  1.00  0.00     0.162 HD
HETATM    6  C7  UNL     1       4.738 -17.118  11.321  1.00  0.00     0.122 C 
HETATM    7  C8  UNL     1       3.831 -17.604  12.393  1.00  0.00     0.020 C 
HETATM    8  C9  UNL     1       2.867 -18.702  11.964  1.00  0.00     0.007 C 
HETATM    9  C10 UNL     1       2.292 -19.253  13.269  1.00  0.00    -0.006 C 
HETATM   10  C15 UNL     1       1.366 -18.324  13.957  1.00  0.00     0.107 C 
HETATM   11  C16 UNL     1       0.107 -18.015  13.262  1.00  0.00     0.218 C 
HETATM   12  O4  UNL     1      -0.471 -18.971  12.663  1.00  0.00    -0.274 OA
HETATM   13  N2  UNL     1      -0.522 -16.750  13.198  1.00  0.00    -0.348 N 
ATOM     14  H2  UNL     1      -1.523 -16.727  13.392  1.00  0.00     0.163 HD
HETATM   15  C17 UNL     1       0.105 -15.488  12.886  1.00  0.00     0.172 C 
HETATM   16  C18 UNL     1      -0.738 -14.801  11.821  1.00  0.00     0.042 C 
HETATM   17  C19 UNL     1       0.160 -14.641  14.126  1.00  0.00     0.240 C 
HETATM   18  O5  UNL     1      -0.279 -15.130  15.227  1.00  0.00    -0.271 OA
HETATM   19  N3  UNL     1       0.671 -13.327  14.162  1.00  0.00    -0.346 N 
ATOM     20  H3  UNL     1       0.199 -12.631  14.737  1.00  0.00     0.163 HD
HETATM   21  C20 UNL     1       1.835 -12.935  13.415  1.00  0.00     0.176 C 
HETATM   22  C25 UNL     1       2.976 -13.850  13.667  1.00  0.00     0.243 C 
HETATM   23  O6  UNL     1       2.839 -14.652  14.656  1.00  0.00    -0.271 OA
HETATM   24  N7  UNL     1       4.171 -13.930  12.950  1.00  0.00    -0.341 N 
HETATM   25  C26 UNL     1       5.390 -14.158  13.742  1.00  0.00     0.153 C 
ENDROOT
BRANCH  21  26
HETATM   26  C21 UNL     1       2.275 -11.530  13.694  1.00  0.00     0.036 C 
BRANCH  26  27
HETATM   27  C22 UNL     1       2.468 -10.649  12.519  1.00  0.00     0.022 C 
BRANCH  27  28
HETATM   28  C23 UNL     1       1.180 -10.372  11.756  1.00  0.00     0.122 C 
BRANCH  28  29
HETATM   29  N4  UNL     1       1.455 -10.152  10.367  1.00  0.00    -0.365 N 
HETATM   30  C24 UNL     1       1.854  -8.903   9.850  1.00  0.00     0.181 C 
HETATM   31  N5  UNL     1       1.717  -7.830  10.560  1.00  0.00    -0.374 N 
HETATM   32  N6  UNL     1       2.412  -8.788   8.550  1.00  0.00    -0.064 NA
ATOM     33  H52 UNL     1       1.316  -7.913  11.494  1.00  0.00     0.158 HD
ATOM     34  H51 UNL     1       2.006  -6.926  10.185  1.00  0.00     0.158 HD
ATOM     35  H4  UNL     1       1.358 -10.936   9.722  1.00  0.00     0.162 HD
ENDBRANCH  28  29
ENDBRANCH  27  28
ENDBRANCH  26  27
ENDBRANCH  21  26
BRANCH   1  36
HETATM   36  C4  UNL     1       5.732 -13.451  11.168  1.00  0.00     0.039 C 
BRANCH  36  37
HETATM   37  C2  UNL     1       5.973 -12.533  10.041  1.00  0.00    -0.020 C 
HETATM   38  C1  UNL     1       6.299 -13.132   8.712  1.00  0.00     0.009 C 
HETATM   39  C3  UNL     1       4.882 -11.476   9.896  1.00  0.00     0.009 C 
ENDBRANCH  36  37
ENDBRANCH   1  36
BRANCH   9  40
HETATM   40  C11 UNL     1       1.815 -20.663  13.100  1.00  0.00     0.005 C 
BRANCH  40  41
HETATM   41  C12 UNL     1       2.074 -21.196  11.734  1.00  0.00     0.010 C 
BRANCH  41  42
HETATM   42  C13 UNL     1       0.810 -21.746  11.116  1.00  0.00     0.114 C 
BRANCH  42  43
HETATM   43  C14 UNL     1       0.675 -21.281   9.724  1.00  0.00     0.294 C 
HETATM   44  O2  UNL     1       0.023 -21.886   8.839  1.00  0.00    -0.262 OA
BRANCH  43  45
HETATM   45  O3  UNL     1       1.303 -20.100   9.358  1.00  0.00    -0.117 OA
HETATM   46  F1  UNL     1       0.732 -18.920   9.667  1.00  0.00    -0.039 F 
ENDBRANCH  43  45
ENDBRANCH  42  43
ENDBRANCH  41  42
ENDBRANCH  40  41
ENDBRANCH   9  40
TORSDOF 11
ENDMDL
MODEL 4
REMARK VINA RESULT: -7.305000613      1.757      2.255
REMARK  11 active torsions:
REMARK  status: ('A' for Active; 'I' for Inactive)
REMARK    1  A    between atoms: C2_2  and  C4_4 
REMARK    2  A    between atoms: C4_4  and  C5_5 
REMARK    3  A    between atoms: C10_13  and  C11_14 
REMARK    4  A    between atoms: C11_14  and  C12_15 
REMARK    5  A    between atoms: C12_15  and  C13_16 
REMARK    6  A    between atoms: C13_16  and  C14_17 
REMARK    7  A    between atoms: C14_17  and  O3_19 
REMARK    8  A    between atoms: C20_32  and  C21_33 
REMARK    9  A    between atoms: C21_33  and  C22_34 
REMARK   10  A    between atoms: C22_34  and  C23_35 
REMARK   11  A    between atoms: C23_35  and  N4_36 
REMARK       I    between atoms: N4_36  and  C24_38 
ROOT
HETATM    1  C5  UNL     1       4.803 -14.839  12.939  1.00  0.00     0.179 C 
HETATM    2  C6  UNL     1       4.312 -15.670  11.837  1.00  0.00     0.240 C 
HETATM    3  O1  UNL     1       3.401 -15.150  11.080  1.00  0.00    -0.271 OA
HETATM    4  N1  UNL     1       4.684 -16.968  11.469  1.00  0.00    -0.359 N 
ATOM      5  H1  UNL     1       4.883 -17.111  10.479  1.00  0.00     0.162 HD
HETATM    6  C7  UNL     1       4.821 -18.127  12.313  1.00  0.00     0.122 C 
HETATM    7  C8  UNL     1       3.577 -18.578  12.990  1.00  0.00     0.020 C 
HETATM    8  C9  UNL     1       2.655 -19.429  12.127  1.00  0.00     0.007 C 
HETATM    9  C10 UNL     1       1.646 -20.031  13.106  1.00  0.00    -0.006 C 
HETATM   10  C15 UNL     1       0.683 -19.048  13.656  1.00  0.00     0.107 C 
HETATM   11  C16 UNL     1      -0.255 -18.441  12.700  1.00  0.00     0.218 C 
HETATM   12  O4  UNL     1      -0.743 -19.199  11.810  1.00  0.00    -0.274 OA
HETATM   13  N2  UNL     1      -0.666 -17.088  12.680  1.00  0.00    -0.348 N 
ATOM     14  H2  UNL     1      -1.667 -16.916  12.588  1.00  0.00     0.163 HD
HETATM   15  C17 UNL     1       0.184 -15.925  12.777  1.00  0.00     0.172 C 
HETATM   16  C18 UNL     1      -0.201 -14.974  11.653  1.00  0.00     0.042 C 
HETATM   17  C19 UNL     1      -0.031 -15.263  14.109  1.00  0.00     0.240 C 
HETATM   18  O5  UNL     1      -0.842 -15.802  14.942  1.00  0.00    -0.271 OA
HETATM   19  N3  UNL     1       0.611 -14.073  14.510  1.00  0.00    -0.346 N 
ATOM     20  H3  UNL     1       0.080 -13.383  15.041  1.00  0.00     0.163 HD
HETATM   21  C20 UNL     1       1.986 -13.799  14.197  1.00  0.00     0.176 C 
HETATM   22  C25 UNL     1       2.870 -14.923  14.597  1.00  0.00     0.243 C 
HETATM   23  O6  UNL     1       2.337 -15.806  15.356  1.00  0.00    -0.271 OA
HETATM   24  N7  UNL     1       4.204 -15.119  14.240  1.00  0.00    -0.341 N 
HETATM   25  C26 UNL     1       5.086 -15.653  15.290  1.00  0.00     0.153 C 
ENDROOT
BRANCH  21  26
HETATM   26  C21 UNL     1       2.500 -12.538  14.824  1.00  0.00     0.036 C 
BRANCH  26  27
HETATM   27  C22 UNL     1       2.924 -11.461  13.899  1.00  0.00     0.022 C 
BRANCH  27  28
HETATM   28  C23 UNL     1       2.339 -11.604  12.501  1.00  0.00     0.122 C 
BRANCH  28  29
HETATM   29  N4  UNL     1       2.570 -10.415  11.735  1.00  0.00    -0.365 N 
HETATM   30  C24 UNL     1       1.547  -9.505  11.399  1.00  0.00     0.181 C 
HETATM   31  N5  UNL     1       0.305  -9.845  11.524  1.00  0.00    -0.374 N 
HETATM   32  N6  UNL     1       1.847  -8.204  10.919  1.00  0.00    -0.064 NA
ATOM     33  H52 UNL     1       0.090 -10.780  11.869  1.00  0.00     0.158 HD
ATOM     34  H51 UNL     1      -0.435  -9.187  11.281  1.00  0.00     0.158 HD
ATOM     35  H4  UNL     1       3.519 -10.217  11.419  1.00  0.00     0.162 HD
ENDBRANCH  28  29
ENDBRANCH  27  28
ENDBRANCH  26  27
ENDBRANCH  21  26
BRANCH   1  36
HETATM   36  C4  UNL     1       6.280 -14.698  13.074  1.00  0.00     0.039 C 
BRANCH  36  37
HETATM   37  C2  UNL     1       6.885 -13.384  12.796  1.00  0.00    -0.020 C 
HETATM   38  C1  UNL     1       8.238 -13.106  13.366  1.00  0.00     0.009 C 
HETATM   39  C3  UNL     1       6.845 -13.016  11.316  1.00  0.00     0.009 C 
ENDBRANCH  36  37
ENDBRANCH   1  36
BRANCH   9  40
HETATM   40  C11 UNL     1       1.064 -21.304  12.571  1.00  0.00     0.005 C 
BRANCH  40  41
HETATM   41  C12 UNL     1       0.340 -22.085  13.612  1.00  0.00     0.010 C 
BRANCH  41  42
HETATM   42  C13 UNL     1      -0.915 -22.710  13.047  1.00  0.00     0.114 C 
BRANCH  42  43
HETATM   43  C14 UNL     1      -2.092 -21.887  13.377  1.00  0.00     0.294 C 
HETATM   44  O2  UNL     1      -3.112 -21.795  12.653  1.00  0.00    -0.262 OA
BRANCH  43  45
HETATM   45  O3  UNL     1      -2.082 -21.165  14.561  1.00  0.00    -0.117 OA
HETATM   46  F1  UNL     1      -2.486 -19.879  14.559  1.00  0.00    -0.039 F 
ENDBRANCH  43  45
ENDBRANCH  42  43
ENDBRANCH  41  42
ENDBRANCH  40  41
ENDBRANCH   9  40
TORSDOF 11
ENDMDL
MODEL 5
REMARK VINA RESULT: -7.169303738      2.913      4.427
REMARK  11 active torsions:
REMARK  status: ('A' for Active; 'I' for Inactive)
REMARK    1  A    between atoms: C2_2  and  C4_4 
REMARK    2  A    between atoms: C4_4  and  C5_5 
REMARK    3  A    between atoms: C10_13  and  C11_14 
REMARK    4  A    between atoms: C11_14  and  C12_15 
REMARK    5  A    between atoms: C12_15  and  C13_16 
REMARK    6  A    between atoms: C13_16  and  C14_17 
REMARK    7  A    between atoms: C14_17  and  O3_19 
REMARK    8  A    between atoms: C20_32  and  C21_33 
REMARK    9  A    between atoms: C21_33  and  C22_34 
REMARK   10  A    between atoms: C22_34  and  C23_35 
REMARK   11  A    between atoms: C23_35  and  N4_36 
REMARK       I    between atoms: N4_36  and  C24_38 
ROOT
HETATM    1  C5  UNL     1       3.324 -13.038  11.628  1.00  0.00     0.179 C 
HETATM    2  C6  UNL     1       3.607 -14.402  11.176  1.00  0.00     0.240 C 
HETATM    3  O1  UNL     1       2.694 -14.976  10.461  1.00  0.00    -0.271 OA
HETATM    4  N1  UNL     1       4.735 -15.199  11.403  1.00  0.00    -0.359 N 
ATOM      5  H1  UNL     1       5.128 -15.660  10.583  1.00  0.00     0.162 HD
HETATM    6  C7  UNL     1       5.411 -15.447  12.650  1.00  0.00     0.122 C 
HETATM    7  C8  UNL     1       4.604 -16.135  13.691  1.00  0.00     0.020 C 
HETATM    8  C9  UNL     1       4.524 -17.648  13.539  1.00  0.00     0.007 C 
HETATM    9  C10 UNL     1       3.946 -18.146  14.864  1.00  0.00    -0.006 C 
HETATM   10  C15 UNL     1       2.516 -17.811  15.060  1.00  0.00     0.107 C 
HETATM   11  C16 UNL     1       1.560 -18.442  14.139  1.00  0.00     0.218 C 
HETATM   12  O4  UNL     1       1.768 -19.654  13.832  1.00  0.00    -0.274 OA
HETATM   13  N2  UNL     1       0.427 -17.824  13.560  1.00  0.00    -0.348 N 
ATOM     14  H2  UNL     1      -0.448 -18.347  13.598  1.00  0.00     0.163 HD
HETATM   15  C17 UNL     1       0.379 -16.530  12.922  1.00  0.00     0.172 C 
HETATM   16  C18 UNL     1      -0.324 -16.699  11.582  1.00  0.00     0.042 C 
HETATM   17  C19 UNL     1      -0.389 -15.575  13.791  1.00  0.00     0.240 C 
HETATM   18  O5  UNL     1      -0.828 -15.989  14.923  1.00  0.00    -0.271 OA
HETATM   19  N3  UNL     1      -0.662 -14.237  13.443  1.00  0.00    -0.346 N 
ATOM     20  H3  UNL     1      -1.574 -13.844  13.675  1.00  0.00     0.163 HD
HETATM   21  C20 UNL     1       0.299 -13.407  12.771  1.00  0.00     0.176 C 
HETATM   22  C25 UNL     1       1.607 -13.413  13.473  1.00  0.00     0.243 C 
HETATM   23  O6  UNL     1       1.605 -13.919  14.649  1.00  0.00    -0.271 OA
HETATM   24  N7  UNL     1       2.826 -12.930  12.995  1.00  0.00    -0.341 N 
HETATM   25  C26 UNL     1       3.679 -12.237  13.974  1.00  0.00     0.153 C 
ENDROOT
BRANCH  21  26
HETATM   26  C21 UNL     1      -0.152 -11.986  12.607  1.00  0.00     0.036 C 
BRANCH  26  27
HETATM   27  C22 UNL     1      -0.089 -11.423  11.239  1.00  0.00     0.022 C 
BRANCH  27  28
HETATM   28  C23 UNL     1       0.771 -10.170  11.143  1.00  0.00     0.122 C 
BRANCH  28  29
HETATM   29  N4  UNL     1       0.719  -9.625   9.819  1.00  0.00    -0.365 N 
HETATM   30  C24 UNL     1       1.348  -8.416   9.460  1.00  0.00     0.181 C 
HETATM   31  N5  UNL     1       1.762  -7.600  10.374  1.00  0.00    -0.374 N 
HETATM   32  N6  UNL     1       1.542  -8.062   8.099  1.00  0.00    -0.064 NA
ATOM     33  H52 UNL     1       1.623  -7.854  11.352  1.00  0.00     0.158 HD
ATOM     34  H51 UNL     1       2.217  -6.724  10.114  1.00  0.00     0.158 HD
ATOM     35  H4  UNL     1       0.203 -10.135   9.102  1.00  0.00     0.162 HD
ENDBRANCH  28  29
ENDBRANCH  27  28
ENDBRANCH  26  27
ENDBRANCH  21  26
BRANCH   1  36
HETATM   36  C4  UNL     1       4.378 -12.013  11.384  1.00  0.00     0.039 C 
BRANCH  36  37
HETATM   37  C2  UNL     1       4.588 -11.541  10.004  1.00  0.00    -0.020 C 
HETATM   38  C1  UNL     1       4.326 -10.100   9.714  1.00  0.00     0.009 C 
HETATM   39  C3  UNL     1       5.939 -11.963   9.435  1.00  0.00     0.009 C 
ENDBRANCH  36  37
ENDBRANCH   1  36
BRANCH   9  40
HETATM   40  C11 UNL     1       4.336 -19.569  15.126  1.00  0.00     0.005 C 
BRANCH  40  41
HETATM   41  C12 UNL     1       4.670 -19.818  16.556  1.00  0.00     0.010 C 
BRANCH  41  42
HETATM   42  C13 UNL     1       3.626 -20.690  17.213  1.00  0.00     0.114 C 
BRANCH  42  43
HETATM   43  C14 UNL     1       2.613 -19.858  17.887  1.00  0.00     0.294 C 
HETATM   44  O2  UNL     1       2.873 -18.802  18.513  1.00  0.00    -0.262 OA
BRANCH  43  45
HETATM   45  O3  UNL     1       1.286 -20.256  17.830  1.00  0.00    -0.117 OA
HETATM   46  F1  UNL     1       0.734 -20.563  16.640  1.00  0.00    -0.039 F 
ENDBRANCH  43  45
ENDBRANCH  42  43
ENDBRANCH  41  42
ENDBRANCH  40  41
ENDBRANCH   9  40
TORSDOF 11
ENDMDL
