MODEL 1
REMARK VINA RESULT: -6.354271720      0.000      0.000
REMARK  12 active torsions:
REMARK  status: ('A' for Active; 'I' for Inactive)
REMARK    1  A    between atoms: C5_7  and  N1_8 
REMARK       I    between atoms: N1_8  and  C6_10 
REMARK    2  A    between atoms: C6_10  and  C7_12 
REMARK    3  A    between atoms: C7_12  and  C8_13 
REMARK    4  A    between atoms: C9_15  and  C10_16 
REMARK    5  A    between atoms: C10_16  and  C11_17 
REMARK    6  A    between atoms: C11_17  and  C12_18 
REMARK    7  A    between atoms: C12_18  and  N2_19 
REMARK    8  A    between atoms: C13_23  and  C14_24 
REMARK    9  A    between atoms: C14_24  and  C15_25 
REMARK   10  A    between atoms: C15_25  and  C16_26 
REMARK   11  A    between atoms: C16_26  and  N3_27 
REMARK   12  A    between atoms: C19_36  and  C20_37 
ROOT
HETATM    1  C1  UNL     1       0.821 -21.747  12.800  1.00  0.00     0.030 C 
HETATM    2  C2  UNL     1       0.953 -20.209  12.826  1.00  0.00     0.040 C 
HETATM    3  C3  UNL     1       2.276 -19.986  13.571  1.00  0.00     0.030 C 
HETATM    4  S1  UNL     1       1.089 -19.745  11.094  1.00  0.00    -0.086 SA
HETATM    5  S2  UNL     1       0.521 -17.813  10.596  1.00  0.00    -0.095 SA
HETATM    6  C4  UNL     1       1.973 -16.776  10.483  1.00  0.00     0.111 C 
HETATM    7  C5  UNL     1       1.613 -15.379  10.980  1.00  0.00     0.099 C 
HETATM    8  C9  UNL     1       0.623 -15.408  12.086  1.00  0.00     0.022 C 
HETATM    9  C13 UNL     1       1.043 -16.383  13.209  1.00  0.00     0.084 C 
HETATM   10  C18 UNL     1      -0.172 -17.098  13.702  1.00  0.00     0.223 C 
HETATM   11  O2  UNL     1      -0.790 -16.388  14.576  1.00  0.00    -0.273 OA
HETATM   12  N6  UNL     1      -0.672 -18.356  13.338  1.00  0.00    -0.346 N 
ATOM     13  H6  UNL     1      -1.546 -18.300  12.817  1.00  0.00     0.163 HD
HETATM   14  C19 UNL     1      -0.233 -19.684  13.533  1.00  0.00     0.192 C 
ENDROOT
BRANCH   9  15
HETATM   15  C14 UNL     1       1.597 -15.553  14.334  1.00  0.00     0.019 C 
BRANCH  15  16
HETATM   16  C15 UNL     1       3.094 -15.732  14.514  1.00  0.00     0.045 C 
BRANCH  16  17
HETATM   17  C16 UNL     1       3.782 -14.478  14.937  1.00  0.00     0.063 C 
BRANCH  17  18
HETATM   18  N3  UNL     1       3.470 -13.350  14.164  1.00  0.00    -0.347 N 
HETATM   19  C17 UNL     1       2.969 -12.242  14.487  1.00  0.00     0.200 C 
HETATM   20  N4  UNL     1       2.569 -11.827  15.783  1.00  0.00    -0.067 NA
HETATM   21  N5  UNL     1       2.770 -11.269  13.448  1.00  0.00    -0.067 NA
ATOM     22  H3  UNL     1       3.686 -13.443  13.171  1.00  0.00     0.167 HD
ENDBRANCH  17  18
ENDBRANCH  16  17
ENDBRANCH  15  16
ENDBRANCH   9  15
BRANCH   8  23
HETATM   23  C10 UNL     1       0.282 -14.079  12.577  1.00  0.00     0.009 C 
BRANCH  23  24
HETATM   24  C11 UNL     1      -0.460 -13.182  11.658  1.00  0.00     0.028 C 
BRANCH  24  25
HETATM   25  C12 UNL     1      -0.322 -11.713  11.835  1.00  0.00     0.229 C 
BRANCH  25  26
HETATM   26  N2  UNL     1       0.646 -11.077  11.016  1.00  0.00    -0.079 N 
ATOM     27  H23 UNL     1       1.312 -10.568  11.597  1.00  0.00     0.274 HD
ATOM     28  H22 UNL     1       1.262 -11.776  10.600  1.00  0.00     0.274 HD
ATOM     29  H21 UNL     1       0.281 -10.461  10.288  1.00  0.00     0.274 HD
ENDBRANCH  25  26
ENDBRANCH  24  25
ENDBRANCH  23  24
ENDBRANCH   8  23
BRANCH   7  30
HETATM   30  N1  UNL     1       2.858 -14.727  11.229  1.00  0.00    -0.355 N 
HETATM   31  C6  UNL     1       3.224 -13.544  10.519  1.00  0.00     0.218 C 
HETATM   32  O1  UNL     1       2.442 -13.070   9.657  1.00  0.00    -0.274 OA
ATOM     33  H1  UNL     1       3.496 -15.113  11.926  1.00  0.00     0.162 HD
BRANCH  31  34
HETATM   34  C7  UNL     1       4.506 -12.844  10.757  1.00  0.00     0.113 C 
BRANCH  34  35
HETATM   35  C8  UNL     1       5.620 -13.835  10.943  1.00  0.00     0.094 C 
HETATM   36 BR1  UNL     1       6.728 -13.418  12.453  1.00  0.00    -0.096 Br
ENDBRANCH  34  35
ENDBRANCH  31  34
ENDBRANCH   7  30
BRANCH  14  37
HETATM   37  C20 UNL     1      -0.149 -20.086  14.972  1.00  0.00     0.255 C 
HETATM   38  N7  UNL     1      -0.985 -20.992  15.635  1.00  0.00    -0.060 NA
HETATM   39  O3  UNL     1       0.767 -19.551  15.648  1.00  0.00    -0.275 OA
ENDBRANCH  14  37
TORSDOF 12
ENDMDL
MODEL 2
REMARK VINA RESULT: -6.291358417      2.740      4.145
REMARK  12 active torsions:
REMARK  status: ('A' for Active; 'I' for Inactive)
REMARK    1  A    between atoms: C5_7  and  N1_8 
REMARK       I    between atoms: N1_8  and  C6_10 
REMARK    2  A    between atoms: C6_10  and  C7_12 
REMARK    3  A    between atoms: C7_12  and  C8_13 
REMARK    4  A    between atoms: C9_15  and  C10_16 
REMARK    5  A    between atoms: C10_16  and  C11_17 
REMARK    6  A    between atoms: C11_17  and  C12_18 
REMARK    7  A    between atoms: C12_18  and  N2_19 
REMARK    8  A    between atoms: C13_23  and  C14_24 
REMARK    9  A    between atoms: C14_24  and  C15_25 
REMARK   10  A    between atoms: C15_25  and  C16_26 
REMARK   11  A    between atoms: C16_26  and  N3_27 
REMARK   12  A    between atoms: C19_36  and  C20_37 
ROOT
HETATM    1  C1  UNL     1      -0.470 -17.598  12.762  1.00  0.00     0.030 C 
HETATM    2  C2  UNL     1       0.708 -16.624  12.543  1.00  0.00     0.040 C 
HETATM    3  C3  UNL     1       1.721 -17.057  13.612  1.00  0.00     0.030 C 
HETATM    4  S1  UNL     1       1.297 -17.004  10.888  1.00  0.00    -0.086 SA
HETATM    5  S2  UNL     1       2.313 -15.498   9.888  1.00  0.00    -0.095 SA
HETATM    6  C4  UNL     1       4.074 -15.760  10.047  1.00  0.00     0.111 C 
HETATM    7  C5  UNL     1       4.762 -14.401  10.138  1.00  0.00     0.099 C 
HETATM    8  C9  UNL     1       3.942 -13.397  10.862  1.00  0.00     0.022 C 
HETATM    9  C13 UNL     1       3.439 -13.937  12.221  1.00  0.00     0.084 C 
HETATM   10  C18 UNL     1       2.035 -13.472  12.430  1.00  0.00     0.223 C 
HETATM   11  O2  UNL     1       2.021 -12.284  12.918  1.00  0.00    -0.273 OA
HETATM   12  N6  UNL     1       0.831 -14.139  12.167  1.00  0.00    -0.346 N 
ATOM     13  H6  UNL     1       0.307 -13.723  11.396  1.00  0.00     0.163 HD
HETATM   14  C19 UNL     1       0.180 -15.257  12.732  1.00  0.00     0.192 C 
ENDROOT
BRANCH   9  15
HETATM   15  C14 UNL     1       4.307 -13.328  13.288  1.00  0.00     0.019 C 
BRANCH  15  16
HETATM   16  C15 UNL     1       5.316 -14.312  13.855  1.00  0.00     0.045 C 
BRANCH  16  17
HETATM   17  C16 UNL     1       4.678 -15.525  14.441  1.00  0.00     0.063 C 
BRANCH  17  18
HETATM   18  N3  UNL     1       3.985 -15.302  15.640  1.00  0.00    -0.347 N 
HETATM   19  C17 UNL     1       3.789 -16.052  16.631  1.00  0.00     0.200 C 
HETATM   20  N4  UNL     1       4.240 -17.387  16.799  1.00  0.00    -0.067 NA
HETATM   21  N5  UNL     1       3.028 -15.524  17.730  1.00  0.00    -0.067 NA
ATOM     22  H3  UNL     1       3.571 -14.373  15.724  1.00  0.00     0.167 HD
ENDBRANCH  17  18
ENDBRANCH  16  17
ENDBRANCH  15  16
ENDBRANCH   9  15
BRANCH   8  23
HETATM   23  C10 UNL     1       4.596 -12.098  10.966  1.00  0.00     0.009 C 
BRANCH  23  24
HETATM   24  C11 UNL     1       4.183 -11.048  10.005  1.00  0.00     0.028 C 
BRANCH  24  25
HETATM   25  C12 UNL     1       3.140 -10.075  10.423  1.00  0.00     0.229 C 
BRANCH  25  26
HETATM   26  N2  UNL     1       1.798 -10.524  10.331  1.00  0.00    -0.079 N 
ATOM     27  H23 UNL     1       1.780 -11.518  10.103  1.00  0.00     0.274 HD
ATOM     28  H22 UNL     1       1.373 -10.542  11.259  1.00  0.00     0.274 HD
ATOM     29  H21 UNL     1       1.197 -10.010   9.685  1.00  0.00     0.274 HD
ENDBRANCH  25  26
ENDBRANCH  24  25
ENDBRANCH  23  24
ENDBRANCH   8  23
BRANCH   7  30
HETATM   30  N1  UNL     1       6.071 -14.666  10.641  1.00  0.00    -0.355 N 
HETATM   31  C6  UNL     1       7.232 -14.383   9.858  1.00  0.00     0.218 C 
HETATM   32  O1  UNL     1       7.101 -13.897   8.706  1.00  0.00    -0.274 OA
ATOM     33  H1  UNL     1       6.180 -15.064  11.573  1.00  0.00     0.162 HD
BRANCH  31  34
HETATM   34  C7  UNL     1       8.602 -14.643  10.352  1.00  0.00     0.113 C 
BRANCH  34  35
HETATM   35  C8  UNL     1       8.558 -15.394  11.653  1.00  0.00     0.094 C 
HETATM   36 BR1  UNL     1       9.065 -14.302  13.147  1.00  0.00    -0.096 Br
ENDBRANCH  34  35
ENDBRANCH  31  34
ENDBRANCH   7  30
BRANCH  14  37
HETATM   37  C20 UNL     1      -0.184 -15.079  14.173  1.00  0.00     0.255 C 
HETATM   38  N7  UNL     1       0.701 -15.020  15.256  1.00  0.00    -0.060 NA
HETATM   39  O3  UNL     1      -1.411 -14.974  14.428  1.00  0.00    -0.275 OA
ENDBRANCH  14  37
TORSDOF 12
ENDMDL
MODEL 3
REMARK VINA RESULT: -6.157589523      3.488      6.342
REMARK  12 active torsions:
REMARK  status: ('A' for Active; 'I' for Inactive)
REMARK    1  A    between atoms: C5_7  and  N1_8 
REMARK       I    between atoms: N1_8  and  C6_10 
REMARK    2  A    between atoms: C6_10  and  C7_12 
REMARK    3  A    between atoms: C7_12  and  C8_13 
REMARK    4  A    between atoms: C9_15  and  C10_16 
REMARK    5  A    between atoms: C10_16  and  C11_17 
REMARK    6  A    between atoms: C11_17  and  C12_18 
REMARK    7  A    between atoms: C12_18  and  N2_19 
REMARK    8  A    between atoms: C13_23  and  C14_24 
REMARK    9  A    between atoms: C14_24  and  C15_25 
REMARK   10  A    between atoms: C15_25  and  C16_26 
REMARK   11  A    between atoms: C16_26  and  N3_27 
REMARK   12  A    between atoms: C19_36  and  C20_37 
ROOT
HETATM    1  C1  UNL     1      -0.378 -12.826  11.751  1.00  0.00     0.030 C 
HETATM    2  C2  UNL     1       0.993 -13.456  12.079  1.00  0.00     0.040 C 
HETATM    3  C3  UNL     1       0.779 -14.941  11.756  1.00  0.00     0.030 C 
HETATM    4  S1  UNL     1       2.125 -12.688  10.912  1.00  0.00    -0.086 SA
HETATM    5  S2  UNL     1       4.127 -12.627  11.452  1.00  0.00    -0.095 SA
HETATM    6  C4  UNL     1       4.998 -13.973  10.661  1.00  0.00     0.111 C 
HETATM    7  C5  UNL     1       6.084 -14.474  11.609  1.00  0.00     0.099 C 
HETATM    8  C9  UNL     1       5.674 -14.393  13.034  1.00  0.00     0.022 C 
HETATM    9  C13 UNL     1       4.289 -15.037  13.273  1.00  0.00     0.084 C 
HETATM   10  C18 UNL     1       3.533 -14.197  14.249  1.00  0.00     0.223 C 
HETATM   11  O2  UNL     1       3.860 -14.501  15.454  1.00  0.00    -0.273 OA
HETATM   12  N6  UNL     1       2.585 -13.192  14.010  1.00  0.00    -0.346 N 
ATOM     13  H6  UNL     1       2.923 -12.262  14.256  1.00  0.00     0.163 HD
HETATM   14  C19 UNL     1       1.267 -13.182  13.503  1.00  0.00     0.192 C 
ENDROOT
BRANCH   9  15
HETATM   15  C14 UNL     1       4.528 -16.387  13.890  1.00  0.00     0.019 C 
BRANCH  15  16
HETATM   16  C15 UNL     1       3.823 -17.506  13.144  1.00  0.00     0.045 C 
BRANCH  16  17
HETATM   17  C16 UNL     1       2.567 -17.949  13.814  1.00  0.00     0.063 C 
BRANCH  17  18
HETATM   18  N3  UNL     1       1.519 -18.276  12.940  1.00  0.00    -0.347 N 
HETATM   19  C17 UNL     1       0.309 -18.538  13.165  1.00  0.00     0.200 C 
HETATM   20  N4  UNL     1      -0.342 -18.572  14.424  1.00  0.00    -0.067 NA
HETATM   21  N5  UNL     1      -0.530 -18.838  12.037  1.00  0.00    -0.067 NA
ATOM     22  H3  UNL     1       1.784 -18.307  11.955  1.00  0.00     0.167 HD
ENDBRANCH  17  18
ENDBRANCH  16  17
ENDBRANCH  15  16
ENDBRANCH   9  15
BRANCH   8  23
HETATM   23  C10 UNL     1       6.700 -14.881  13.948  1.00  0.00     0.009 C 
BRANCH  23  24
HETATM   24  C11 UNL     1       8.015 -14.197  13.924  1.00  0.00     0.028 C 
BRANCH  24  25
HETATM   25  C12 UNL     1       9.241 -15.009  14.144  1.00  0.00     0.229 C 
BRANCH  25  26
HETATM   26  N2  UNL     1      10.353 -14.688  13.324  1.00  0.00    -0.079 N 
ATOM     27  H23 UNL     1      10.030 -14.282  12.446  1.00  0.00     0.274 HD
ATOM     28  H22 UNL     1      10.858 -13.894  13.719  1.00  0.00     0.274 HD
ATOM     29  H21 UNL     1      11.003 -15.452  13.134  1.00  0.00     0.274 HD
ENDBRANCH  25  26
ENDBRANCH  24  25
ENDBRANCH  23  24
ENDBRANCH   8  23
BRANCH   7  30
HETATM   30  N1  UNL     1       6.471 -15.753  11.109  1.00  0.00    -0.355 N 
HETATM   31  C6  UNL     1       7.806 -15.995  10.661  1.00  0.00     0.218 C 
HETATM   32  O1  UNL     1       8.653 -15.067  10.704  1.00  0.00    -0.274 OA
ATOM     33  H1  UNL     1       5.784 -16.506  11.070  1.00  0.00     0.162 HD
BRANCH  31  34
HETATM   34  C7  UNL     1       8.239 -17.310  10.140  1.00  0.00     0.113 C 
BRANCH  34  35
HETATM   35  C8  UNL     1       9.145 -17.994  11.125  1.00  0.00     0.094 C 
HETATM   36 BR1  UNL     1       8.247 -18.442  12.760  1.00  0.00    -0.096 Br
ENDBRANCH  34  35
ENDBRANCH  31  34
ENDBRANCH   7  30
BRANCH  14  37
HETATM   37  C20 UNL     1       0.296 -13.959  14.336  1.00  0.00     0.255 C 
HETATM   38  N7  UNL     1       0.512 -15.212  14.920  1.00  0.00    -0.060 NA
HETATM   39  O3  UNL     1      -0.828 -13.425  14.524  1.00  0.00    -0.275 OA
ENDBRANCH  14  37
TORSDOF 12
ENDMDL
MODEL 4
REMARK VINA RESULT: -6.127121466      3.011      4.964
REMARK  12 active torsions:
REMARK  status: ('A' for Active; 'I' for Inactive)
REMARK    1  A    between atoms: C5_7  and  N1_8 
REMARK       I    between atoms: N1_8  and  C6_10 
REMARK    2  A    between atoms: C6_10  and  C7_12 
REMARK    3  A    between atoms: C7_12  and  C8_13 
REMARK    4  A    between atoms: C9_15  and  C10_16 
REMARK    5  A    between atoms: C10_16  and  C11_17 
REMARK    6  A    between atoms: C11_17  and  C12_18 
REMARK    7  A    between atoms: C12_18  and  N2_19 
REMARK    8  A    between atoms: C13_23  and  C14_24 
REMARK    9  A    between atoms: C14_24  and  C15_25 
REMARK   10  A    between atoms: C15_25  and  C16_26 
REMARK   11  A    between atoms: C16_26  and  N3_27 
REMARK   12  A    between atoms: C19_36  and  C20_37 
ROOT
HETATM    1  C1  UNL     1       0.990 -19.142  11.618  1.00  0.00     0.030 C 
HETATM    2  C2  UNL     1       1.413 -17.657  11.588  1.00  0.00     0.040 C 
HETATM    3  C3  UNL     1       1.768 -17.427  10.113  1.00  0.00     0.030 C 
HETATM    4  S1  UNL     1      -0.077 -16.763  12.050  1.00  0.00    -0.086 SA
HETATM    5  S2  UNL     1       0.182 -14.878  12.877  1.00  0.00    -0.095 SA
HETATM    6  C4  UNL     1      -0.052 -13.636  11.612  1.00  0.00     0.111 C 
HETATM    7  C5  UNL     1       0.904 -12.478  11.884  1.00  0.00     0.099 C 
HETATM    8  C9  UNL     1       2.196 -12.932  12.458  1.00  0.00     0.022 C 
HETATM    9  C13 UNL     1       2.822 -14.080  11.633  1.00  0.00     0.084 C 
HETATM   10  C18 UNL     1       3.425 -15.071  12.573  1.00  0.00     0.223 C 
HETATM   11  O2  UNL     1       4.606 -14.703  12.920  1.00  0.00    -0.273 OA
HETATM   12  N6  UNL     1       2.882 -16.260  13.079  1.00  0.00    -0.346 N 
ATOM     13  H6  UNL     1       2.678 -16.210  14.077  1.00  0.00     0.163 HD
HETATM   14  C19 UNL     1       2.554 -17.512  12.513  1.00  0.00     0.192 C 
ENDROOT
BRANCH   9  15
HETATM   15  C14 UNL     1       3.922 -13.480  10.802  1.00  0.00     0.019 C 
BRANCH  15  16
HETATM   16  C15 UNL     1       4.020 -14.103   9.420  1.00  0.00     0.045 C 
BRANCH  16  17
HETATM   17  C16 UNL     1       5.390 -14.599   9.103  1.00  0.00     0.063 C 
BRANCH  17  18
HETATM   18  N3  UNL     1       6.012 -15.307  10.143  1.00  0.00    -0.347 N 
HETATM   19  C17 UNL     1       7.207 -15.313  10.536  1.00  0.00     0.200 C 
HETATM   20  N4  UNL     1       8.290 -14.568  10.002  1.00  0.00    -0.067 NA
HETATM   21  N5  UNL     1       7.540 -16.159  11.649  1.00  0.00    -0.067 NA
ATOM     22  H3  UNL     1       5.390 -15.920  10.669  1.00  0.00     0.167 HD
ENDBRANCH  17  18
ENDBRANCH  16  17
ENDBRANCH  15  16
ENDBRANCH   9  15
BRANCH   8  23
HETATM   23  C10 UNL     1       3.122 -11.834  12.710  1.00  0.00     0.009 C 
BRANCH  23  24
HETATM   24  C11 UNL     1       3.550 -11.611  14.111  1.00  0.00     0.028 C 
BRANCH  24  25
HETATM   25  C12 UNL     1       2.639 -12.034  15.207  1.00  0.00     0.229 C 
BRANCH  25  26
HETATM   26  N2  UNL     1       2.643 -11.217  16.368  1.00  0.00    -0.079 N 
ATOM     27  H23 UNL     1       3.331 -11.567  17.034  1.00  0.00     0.274 HD
ATOM     28  H22 UNL     1       3.047 -10.306  16.149  1.00  0.00     0.274 HD
ATOM     29  H21 UNL     1       1.742 -11.094  16.831  1.00  0.00     0.274 HD
ENDBRANCH  25  26
ENDBRANCH  24  25
ENDBRANCH  23  24
ENDBRANCH   8  23
BRANCH   7  30
HETATM   30  N1  UNL     1       0.952 -11.727  10.671  1.00  0.00    -0.355 N 
HETATM   31  C6  UNL     1       0.760 -10.312  10.674  1.00  0.00     0.218 C 
HETATM   32  O1  UNL     1       0.541  -9.717  11.759  1.00  0.00    -0.274 OA
ATOM     33  H1  UNL     1       1.126 -12.208   9.789  1.00  0.00     0.162 HD
BRANCH  31  34
HETATM   34  C7  UNL     1       0.807  -9.505   9.436  1.00  0.00     0.113 C 
BRANCH  34  35
HETATM   35  C8  UNL     1       2.057  -8.672   9.397  1.00  0.00     0.094 C 
HETATM   36 BR1  UNL     1       3.635  -9.700   9.767  1.00  0.00    -0.096 Br
ENDBRANCH  34  35
ENDBRANCH  31  34
ENDBRANCH   7  30
BRANCH  14  37
HETATM   37  C20 UNL     1       3.729 -18.242  11.942  1.00  0.00     0.255 C 
HETATM   38  N7  UNL     1       4.121 -19.553  12.235  1.00  0.00    -0.060 NA
HETATM   39  O3  UNL     1       4.432 -17.605  11.115  1.00  0.00    -0.275 OA
ENDBRANCH  14  37
TORSDOF 12
ENDMDL
MODEL 5
REMARK VINA RESULT: -6.097322369      3.044      7.164
REMARK  12 active torsions:
REMARK  status: ('A' for Active; 'I' for Inactive)
REMARK    1  A    between atoms: C5_7  and  N1_8 
REMARK       I    between atoms: N1_8  and  C6_10 
REMARK    2  A    between atoms: C6_10  and  C7_12 
REMARK    3  A    between atoms: C7_12  and  C8_13 
REMARK    4  A    between atoms: C9_15  and  C10_16 
REMARK    5  A    between atoms: C10_16  and  C11_17 
REMARK    6  A    between atoms: C11_17  and  C12_18 
REMARK    7  A    between atoms: C12_18  and  N2_19 
REMARK    8  A    between atoms: C13_23  and  C14_24 
REMARK    9  A    between atoms: C14_24  and  C15_25 
REMARK   10  A    between atoms: C15_25  and  C16_26 
REMARK   11  A    between atoms: C16_26  and  N3_27 
REMARK   12  A    between atoms: C19_36  and  C20_37 
ROOT
HETATM    1  C1  UNL     1       0.991  -9.414  11.653  1.00  0.00     0.030 C 
HETATM    2  C2  UNL     1       1.437 -10.892  11.666  1.00  0.00     0.040 C 
HETATM    3  C3  UNL     1       2.603 -10.894  12.664  1.00  0.00     0.030 C 
HETATM    4  S1  UNL     1       0.015 -11.779  12.317  1.00  0.00    -0.086 SA
HETATM    5  S2  UNL     1      -0.149 -13.784  11.810  1.00  0.00    -0.095 SA
HETATM    6  C4  UNL     1       0.477 -14.790  13.149  1.00  0.00     0.111 C 
HETATM    7  C5  UNL     1       1.157 -16.021  12.556  1.00  0.00     0.099 C 
HETATM    8  C9  UNL     1       1.837 -15.727  11.268  1.00  0.00     0.022 C 
HETATM    9  C13 UNL     1       2.759 -14.491  11.373  1.00  0.00     0.084 C 
HETATM   10  C18 UNL     1       2.637 -13.696  10.115  1.00  0.00     0.223 C 
HETATM   11  O2  UNL     1       3.409 -14.171   9.204  1.00  0.00    -0.273 OA
HETATM   12  N6  UNL     1       1.832 -12.581   9.843  1.00  0.00    -0.346 N 
ATOM     13  H6  UNL     1       1.085 -12.783   9.179  1.00  0.00     0.163 HD
HETATM   14  C19 UNL     1       1.826 -11.240  10.285  1.00  0.00     0.192 C 
ENDROOT
BRANCH   9  15
HETATM   15  C14 UNL     1       4.171 -14.998  11.481  1.00  0.00     0.019 C 
BRANCH  15  16
HETATM   16  C15 UNL     1       4.976 -14.270  12.544  1.00  0.00     0.045 C 
BRANCH  16  17
HETATM   17  C16 UNL     1       6.200 -13.617  11.998  1.00  0.00     0.063 C 
BRANCH  17  18
HETATM   18  N3  UNL     1       6.177 -13.392  10.613  1.00  0.00    -0.347 N 
HETATM   19  C17 UNL     1       6.864 -13.892   9.685  1.00  0.00     0.200 C 
HETATM   20  N4  UNL     1       7.892 -14.862   9.806  1.00  0.00    -0.067 NA
HETATM   21  N5  UNL     1       6.597 -13.451   8.344  1.00  0.00    -0.067 NA
ATOM     22  H3  UNL     1       5.486 -12.707  10.307  1.00  0.00     0.167 HD
ENDBRANCH  17  18
ENDBRANCH  16  17
ENDBRANCH  15  16
ENDBRANCH   9  15
BRANCH   8  23
HETATM   23  C10 UNL     1       2.502 -16.894  10.700  1.00  0.00     0.009 C 
BRANCH  23  24
HETATM   24  C11 UNL     1       1.807 -17.607   9.602  1.00  0.00     0.028 C 
BRANCH  24  25
HETATM   25  C12 UNL     1       1.073 -18.859   9.922  1.00  0.00     0.229 C 
BRANCH  25  26
HETATM   26  N2  UNL     1      -0.171 -18.699  10.584  1.00  0.00    -0.079 N 
ATOM     27  H23 UNL     1      -0.695 -17.936  10.155  1.00  0.00     0.274 HD
ATOM     28  H22 UNL     1      -0.784 -19.486  10.367  1.00  0.00     0.274 HD
ATOM     29  H21 UNL     1      -0.126 -18.564  11.594  1.00  0.00     0.274 HD
ENDBRANCH  25  26
ENDBRANCH  24  25
ENDBRANCH  23  24
ENDBRANCH   8  23
BRANCH   7  30
HETATM   30  N1  UNL     1       1.951 -16.565  13.609  1.00  0.00    -0.355 N 
HETATM   31  C6  UNL     1       1.824 -17.934  13.994  1.00  0.00     0.218 C 
HETATM   32  O1  UNL     1       0.998 -18.672  13.400  1.00  0.00    -0.274 OA
ATOM     33  H1  UNL     1       2.620 -15.967  14.095  1.00  0.00     0.162 HD
BRANCH  31  34
HETATM   34  C7  UNL     1       2.634 -18.530  15.079  1.00  0.00     0.113 C 
BRANCH  34  35
HETATM   35  C8  UNL     1       3.978 -17.862  15.160  1.00  0.00     0.094 C 
HETATM   36 BR1  UNL     1       4.115 -16.667  16.655  1.00  0.00    -0.096 Br
ENDBRANCH  34  35
ENDBRANCH  31  34
ENDBRANCH   7  30
BRANCH  14  37
HETATM   37  C20 UNL     1       3.067 -10.483   9.931  1.00  0.00     0.255 C 
HETATM   38  N7  UNL     1       4.386 -10.932  10.065  1.00  0.00    -0.060 NA
HETATM   39  O3  UNL     1       2.901  -9.325   9.469  1.00  0.00    -0.275 OA
ENDBRANCH  14  37
TORSDOF 12
ENDMDL
