MODEL 1
REMARK VINA RESULT: -8.999478757      0.000      0.000
REMARK  6 active torsions:
REMARK  status: ('A' for Active; 'I' for Inactive)
REMARK    1  A    between atoms: C3_4  and  N2_5 
REMARK    2  A    between atoms: N2_5  and  N3_7 
REMARK    3  A    between atoms: N3_7  and  C4_9 
REMARK    4  A    between atoms: C4_9  and  C5_13 
REMARK    5  A    between atoms: C6_21  and  S2_22 
REMARK    6  A    between atoms: S2_22  and  N9_23 
ROOT
HETATM    1  N1  UNL     1      26.512   7.666   5.273  1.00  0.00    -0.191 NA
HETATM    2  C1  UNL     1      26.093   7.992   6.300  1.00  0.00     0.108 C 
HETATM    3  C2  UNL     1      25.546   8.387   7.602  1.00  0.00     0.147 A 
HETATM    4  C3  UNL     1      25.443   7.448   8.598  1.00  0.00     0.118 A 
HETATM    5  S1  UNL     1      24.798   7.997  10.068  1.00  0.00    -0.038 SA
HETATM    6  C6  UNL     1      24.386   9.653  10.041  1.00  0.00     0.195 A 
HETATM    7  N10 UNL     1      24.637  10.239   8.874  1.00  0.00    -0.305 N 
ATOM      8  H10 UNL     1      24.406  11.231   8.808  1.00  0.00     0.170 HD
HETATM    9  C7  UNL     1      25.152   9.685   7.789  1.00  0.00     0.270 A 
HETATM   10  O3  UNL     1      25.294  10.480   6.789  1.00  0.00    -0.266 OA
ENDROOT
BRANCH   4  11
HETATM   11  N2  UNL     1      25.867   6.088   8.371  1.00  0.00    -0.291 N 
ATOM     12  H2  UNL     1      25.318   5.460   7.783  1.00  0.00     0.187 HD
BRANCH  11  13
HETATM   13  N3  UNL     1      27.044   5.654   8.976  1.00  0.00    -0.282 N 
ATOM     14  H3  UNL     1      27.105   5.575   9.992  1.00  0.00     0.188 HD
BRANCH  13  15
HETATM   15  C4  UNL     1      28.149   5.327   8.166  1.00  0.00     0.160 C 
HETATM   16  N4  UNL     1      27.987   5.159   6.910  1.00  0.00    -0.381 N 
ATOM     17  H42 UNL     1      27.056   5.263   6.505  1.00  0.00     0.157 HD
ATOM     18  H41 UNL     1      28.787   4.922   6.323  1.00  0.00     0.157 HD
BRANCH  15  19
HETATM   19  C5  UNL     1      29.469   5.179   8.740  1.00  0.00     0.177 A 
HETATM   20  N5  UNL     1      30.147   4.023   8.995  1.00  0.00    -0.267 N 
HETATM   21  N6  UNL     1      31.329   4.314   9.525  1.00  0.00    -0.007 NA
ATOM     22  H5  UNL     1      29.801   3.081   8.808  1.00  0.00     0.185 HD
HETATM   23  N7  UNL     1      31.433   5.627   9.617  1.00  0.00    -0.007 NA
HETATM   24  N8  UNL     1      30.314   6.152   9.146  1.00  0.00    -0.267 N 
ATOM     25  H8  UNL     1      30.116   7.152   9.096  1.00  0.00     0.185 HD
ENDBRANCH  15  19
ENDBRANCH  13  15
ENDBRANCH  11  13
ENDBRANCH   4  11
BRANCH   6  26
HETATM   26  S2  UNL     1      23.697  10.532  11.391  1.00  0.00     0.279 S 
HETATM   27  O1  UNL     1      24.342  11.854  11.600  1.00  0.00    -0.199 OA
HETATM   28  O2  UNL     1      22.206  10.716  11.139  1.00  0.00    -0.199 OA
BRANCH  26  29
HETATM   29  N9  UNL     1      23.824   9.610  12.841  1.00  0.00    -0.323 N 
ATOM     30  H92 UNL     1      24.709   9.389  13.300  1.00  0.00     0.169 HD
ATOM     31  H91 UNL     1      22.900   9.325  13.166  1.00  0.00     0.169 HD
ENDBRANCH  26  29
ENDBRANCH   6  26
TORSDOF 6
ENDMDL
MODEL 2
REMARK VINA RESULT: -8.981474803      1.767      2.345
REMARK  6 active torsions:
REMARK  status: ('A' for Active; 'I' for Inactive)
REMARK    1  A    between atoms: C3_4  and  N2_5 
REMARK    2  A    between atoms: N2_5  and  N3_7 
REMARK    3  A    between atoms: N3_7  and  C4_9 
REMARK    4  A    between atoms: C4_9  and  C5_13 
REMARK    5  A    between atoms: C6_21  and  S2_22 
REMARK    6  A    between atoms: S2_22  and  N9_23 
ROOT
HETATM    1  N1  UNL     1      28.045   6.975   6.379  1.00  0.00    -0.191 NA
HETATM    2  C1  UNL     1      27.374   7.326   7.253  1.00  0.00     0.108 C 
HETATM    3  C2  UNL     1      26.529   7.752   8.373  1.00  0.00     0.147 A 
HETATM    4  C3  UNL     1      27.058   7.780   9.639  1.00  0.00     0.118 A 
HETATM    5  S1  UNL     1      26.007   8.284  10.870  1.00  0.00    -0.038 SA
HETATM    6  C6  UNL     1      24.446   8.675  10.299  1.00  0.00     0.195 A 
HETATM    7  N10 UNL     1      24.312   8.518   8.986  1.00  0.00    -0.305 N 
ATOM      8  H10 UNL     1      23.395   8.738   8.596  1.00  0.00     0.170 HD
HETATM    9  C7  UNL     1      25.231   8.111   8.126  1.00  0.00     0.270 A 
HETATM   10  O3  UNL     1      24.839   8.048   6.903  1.00  0.00    -0.266 OA
ENDROOT
BRANCH   4  11
HETATM   11  N2  UNL     1      28.430   7.396   9.869  1.00  0.00    -0.291 N 
ATOM     12  H2  UNL     1      28.659   6.495  10.289  1.00  0.00     0.187 HD
BRANCH  11  13
HETATM   13  N3  UNL     1      29.435   8.289   9.502  1.00  0.00    -0.282 N 
ATOM     14  H3  UNL     1      29.315   9.291   9.648  1.00  0.00     0.188 HD
BRANCH  13  15
HETATM   15  C4  UNL     1      30.619   7.787   8.927  1.00  0.00     0.160 C 
HETATM   16  N4  UNL     1      31.505   8.598   8.490  1.00  0.00    -0.381 N 
ATOM     17  H42 UNL     1      31.345   9.603   8.562  1.00  0.00     0.157 HD
ATOM     18  H41 UNL     1      32.363   8.235   8.074  1.00  0.00     0.157 HD
BRANCH  15  19
HETATM   19  C5  UNL     1      30.846   6.362   8.824  1.00  0.00     0.177 A 
HETATM   20  N5  UNL     1      30.492   5.528   7.804  1.00  0.00    -0.267 N 
HETATM   21  N6  UNL     1      30.879   4.291   8.093  1.00  0.00    -0.007 NA
ATOM     22  H5  UNL     1      30.006   5.810   6.952  1.00  0.00     0.185 HD
HETATM   23  N7  UNL     1      31.474   4.304   9.271  1.00  0.00    -0.007 NA
HETATM   24  N8  UNL     1      31.456   5.550   9.716  1.00  0.00    -0.267 N 
ATOM     25  H8  UNL     1      31.847   5.856  10.607  1.00  0.00     0.185 HD
ENDBRANCH  15  19
ENDBRANCH  13  15
ENDBRANCH  11  13
ENDBRANCH   4  11
BRANCH   6  26
HETATM   26  S2  UNL     1      23.124   9.227  11.307  1.00  0.00     0.279 S 
HETATM   27  O1  UNL     1      22.315  10.289  10.656  1.00  0.00    -0.199 OA
HETATM   28  O2  UNL     1      22.240   8.033  11.644  1.00  0.00    -0.199 OA
BRANCH  26  29
HETATM   29  N9  UNL     1      23.717   9.818  12.813  1.00  0.00    -0.323 N 
ATOM     30  H92 UNL     1      24.455  10.517  12.900  1.00  0.00     0.169 HD
ATOM     31  H91 UNL     1      23.228   9.372  13.590  1.00  0.00     0.169 HD
ENDBRANCH  26  29
ENDBRANCH   6  26
TORSDOF 6
ENDMDL
MODEL 3
REMARK VINA RESULT: -8.970129496      3.599      6.851
REMARK  6 active torsions:
REMARK  status: ('A' for Active; 'I' for Inactive)
REMARK    1  A    between atoms: C3_4  and  N2_5 
REMARK    2  A    between atoms: N2_5  and  N3_7 
REMARK    3  A    between atoms: N3_7  and  C4_9 
REMARK    4  A    between atoms: C4_9  and  C5_13 
REMARK    5  A    between atoms: C6_21  and  S2_22 
REMARK    6  A    between atoms: S2_22  and  N9_23 
ROOT
HETATM    1  N1  UNL     1      24.564   9.225   8.155  1.00  0.00    -0.191 NA
HETATM    2  C1  UNL     1      25.454   8.505   8.310  1.00  0.00     0.108 C 
HETATM    3  C2  UNL     1      26.582   7.595   8.531  1.00  0.00     0.147 A 
HETATM    4  C3  UNL     1      26.469   6.602   9.473  1.00  0.00     0.118 A 
HETATM    5  S1  UNL     1      27.824   5.600   9.658  1.00  0.00    -0.038 SA
HETATM    6  C6  UNL     1      29.112   6.015   8.618  1.00  0.00     0.195 A 
HETATM    7  N10 UNL     1      28.841   7.055   7.835  1.00  0.00    -0.305 N 
ATOM      8  H10 UNL     1      29.581   7.343   7.195  1.00  0.00     0.170 HD
HETATM    9  C7  UNL     1      27.722   7.759   7.790  1.00  0.00     0.270 A 
HETATM   10  O3  UNL     1      27.720   8.720   6.936  1.00  0.00    -0.266 OA
ENDROOT
BRANCH   4  11
HETATM   11  N2  UNL     1      25.255   6.453  10.238  1.00  0.00    -0.291 N 
ATOM     12  H2  UNL     1      24.389   6.150   9.793  1.00  0.00     0.187 HD
BRANCH  11  13
HETATM   13  N3  UNL     1      25.297   6.736  11.602  1.00  0.00    -0.282 N 
ATOM     14  H3  UNL     1      25.242   5.984  12.289  1.00  0.00     0.188 HD
BRANCH  13  15
HETATM   15  C4  UNL     1      25.416   8.076  12.018  1.00  0.00     0.160 C 
HETATM   16  N4  UNL     1      26.490   8.471  12.587  1.00  0.00    -0.381 N 
ATOM     17  H42 UNL     1      27.252   7.809  12.735  1.00  0.00     0.157 HD
ATOM     18  H41 UNL     1      26.577   9.442  12.888  1.00  0.00     0.157 HD
BRANCH  15  19
HETATM   19  C5  UNL     1      24.335   9.015  11.809  1.00  0.00     0.177 A 
HETATM   20  N5  UNL     1      23.183   8.823  11.104  1.00  0.00    -0.267 N 
HETATM   21  N6  UNL     1      22.450   9.930  11.150  1.00  0.00    -0.007 NA
ATOM     22  H5  UNL     1      22.924   7.965  10.618  1.00  0.00     0.185 HD
HETATM   23  N7  UNL     1      23.097  10.830  11.867  1.00  0.00    -0.007 NA
HETATM   24  N8  UNL     1      24.234  10.283  12.265  1.00  0.00    -0.267 N 
ATOM     25  H8  UNL     1      24.937  10.753  12.837  1.00  0.00     0.185 HD
ENDBRANCH  15  19
ENDBRANCH  13  15
ENDBRANCH  11  13
ENDBRANCH   4  11
BRANCH   6  26
HETATM   26  S2  UNL     1      30.653   5.185   8.556  1.00  0.00     0.279 S 
HETATM   27  O1  UNL     1      31.375   5.223   9.854  1.00  0.00    -0.199 OA
HETATM   28  O2  UNL     1      30.409   3.741   8.138  1.00  0.00    -0.199 OA
BRANCH  26  29
HETATM   29  N9  UNL     1      31.660   5.869   7.335  1.00  0.00    -0.323 N 
ATOM     30  H92 UNL     1      31.492   5.763   6.334  1.00  0.00     0.169 HD
ATOM     31  H91 UNL     1      32.433   6.384   7.756  1.00  0.00     0.169 HD
ENDBRANCH  26  29
ENDBRANCH   6  26
TORSDOF 6
ENDMDL
MODEL 4
REMARK VINA RESULT: -8.951179435      3.579      6.869
REMARK  6 active torsions:
REMARK  status: ('A' for Active; 'I' for Inactive)
REMARK    1  A    between atoms: C3_4  and  N2_5 
REMARK    2  A    between atoms: N2_5  and  N3_7 
REMARK    3  A    between atoms: N3_7  and  C4_9 
REMARK    4  A    between atoms: C4_9  and  C5_13 
REMARK    5  A    between atoms: C6_21  and  S2_22 
REMARK    6  A    between atoms: S2_22  and  N9_23 
ROOT
HETATM    1  N1  UNL     1      24.739   8.397   6.045  1.00  0.00    -0.191 NA
HETATM    2  C1  UNL     1      25.539   7.818   6.646  1.00  0.00     0.108 C 
HETATM    3  C2  UNL     1      26.553   7.101   7.426  1.00  0.00     0.147 A 
HETATM    4  C3  UNL     1      26.306   6.817   8.746  1.00  0.00     0.118 A 
HETATM    5  S1  UNL     1      27.536   5.986   9.567  1.00  0.00    -0.038 SA
HETATM    6  C6  UNL     1      28.886   5.645   8.581  1.00  0.00     0.195 A 
HETATM    7  N10 UNL     1      28.753   6.087   7.334  1.00  0.00    -0.305 N 
ATOM      8  H10 UNL     1      29.536   5.908   6.706  1.00  0.00     0.170 HD
HETATM    9  C7  UNL     1      27.722   6.732   6.815  1.00  0.00     0.270 A 
HETATM   10  O3  UNL     1      27.847   7.048   5.575  1.00  0.00    -0.266 OA
ENDROOT
BRANCH   4  11
HETATM   11  N2  UNL     1      25.065   7.219   9.363  1.00  0.00    -0.291 N 
ATOM     12  H2  UNL     1      24.424   7.853   8.886  1.00  0.00     0.187 HD
BRANCH  11  13
HETATM   13  N3  UNL     1      24.765   6.719  10.629  1.00  0.00    -0.282 N 
ATOM     14  H3  UNL     1      24.587   5.723  10.762  1.00  0.00     0.188 HD
BRANCH  13  15
HETATM   15  C4  UNL     1      24.712   7.607  11.720  1.00  0.00     0.160 C 
HETATM   16  N4  UNL     1      25.376   7.348  12.782  1.00  0.00    -0.381 N 
ATOM     17  H42 UNL     1      25.937   6.498  12.828  1.00  0.00     0.157 HD
ATOM     18  H41 UNL     1      25.338   7.992  13.572  1.00  0.00     0.157 HD
BRANCH  15  19
HETATM   19  C5  UNL     1      23.916   8.813  11.655  1.00  0.00     0.177 A 
HETATM   20  N5  UNL     1      23.977   9.903  12.474  1.00  0.00    -0.267 N 
HETATM   21  N6  UNL     1      23.079  10.798  12.081  1.00  0.00    -0.007 NA
ATOM     22  H5  UNL     1      24.613  10.013  13.264  1.00  0.00     0.185 HD
HETATM   23  N7  UNL     1      22.440  10.317  11.030  1.00  0.00    -0.007 NA
HETATM   24  N8  UNL     1      22.942   9.120  10.770  1.00  0.00    -0.267 N 
ATOM     25  H8  UNL     1      22.636   8.514  10.009  1.00  0.00     0.185 HD
ENDBRANCH  15  19
ENDBRANCH  13  15
ENDBRANCH  11  13
ENDBRANCH   4  11
BRANCH   6  26
HETATM   26  S2  UNL     1      30.326   4.803   9.117  1.00  0.00     0.279 S 
HETATM   27  O1  UNL     1      30.047   3.830  10.205  1.00  0.00    -0.199 OA
HETATM   28  O2  UNL     1      30.940   4.085   7.922  1.00  0.00    -0.199 OA
BRANCH  26  29
HETATM   29  N9  UNL     1      31.517   5.925   9.660  1.00  0.00    -0.323 N 
ATOM     30  H92 UNL     1      32.405   6.087   9.184  1.00  0.00     0.169 HD
ATOM     31  H91 UNL     1      31.206   6.393  10.511  1.00  0.00     0.169 HD
ENDBRANCH  26  29
ENDBRANCH   6  26
TORSDOF 6
ENDMDL
MODEL 5
REMARK VINA RESULT: -8.938613745      1.796      2.169
REMARK  6 active torsions:
REMARK  status: ('A' for Active; 'I' for Inactive)
REMARK    1  A    between atoms: C3_4  and  N2_5 
REMARK    2  A    between atoms: N2_5  and  N3_7 
REMARK    3  A    between atoms: N3_7  and  C4_9 
REMARK    4  A    between atoms: C4_9  and  C5_13 
REMARK    5  A    between atoms: C6_21  and  S2_22 
REMARK    6  A    between atoms: S2_22  and  N9_23 
ROOT
HETATM    1  N1  UNL     1      25.802   7.633   3.221  1.00  0.00    -0.191 NA
HETATM    2  C1  UNL     1      25.507   7.985   4.282  1.00  0.00     0.108 C 
HETATM    3  C2  UNL     1      25.139   8.409   5.636  1.00  0.00     0.147 A 
HETATM    4  C3  UNL     1      26.015   8.189   6.670  1.00  0.00     0.118 A 
HETATM    5  S1  UNL     1      25.503   8.713   8.199  1.00  0.00    -0.038 SA
HETATM    6  C6  UNL     1      23.957   9.435   8.176  1.00  0.00     0.195 A 
HETATM    7  N10 UNL     1      23.409   9.468   6.965  1.00  0.00    -0.305 N 
ATOM      8  H10 UNL     1      22.483   9.890   6.899  1.00  0.00     0.170 HD
HETATM    9  C7  UNL     1      23.928   9.016   5.835  1.00  0.00     0.270 A 
HETATM   10  O3  UNL     1      23.185   9.173   4.797  1.00  0.00    -0.266 OA
ENDROOT
BRANCH   4  11
HETATM   11  N2  UNL     1      27.285   7.547   6.429  1.00  0.00    -0.291 N 
ATOM     12  H2  UNL     1      27.593   7.333   5.481  1.00  0.00     0.187 HD
BRANCH  11  13
HETATM   13  N3  UNL     1      28.080   7.227   7.528  1.00  0.00    -0.282 N 
ATOM     14  H3  UNL     1      28.374   7.951   8.183  1.00  0.00     0.188 HD
BRANCH  13  15
HETATM   15  C4  UNL     1      28.471   5.888   7.721  1.00  0.00     0.160 C 
HETATM   16  N4  UNL     1      27.786   4.944   7.198  1.00  0.00    -0.381 N 
ATOM     17  H42 UNL     1      26.960   5.172   6.645  1.00  0.00     0.157 HD
ATOM     18  H41 UNL     1      28.070   3.974   7.337  1.00  0.00     0.157 HD
BRANCH  15  19
HETATM   19  C5  UNL     1      29.643   5.565   8.506  1.00  0.00     0.177 A 
HETATM   20  N5  UNL     1      30.523   6.427   9.093  1.00  0.00    -0.267 N 
HETATM   21  N6  UNL     1      31.464   5.735   9.722  1.00  0.00    -0.007 NA
ATOM     22  H5  UNL     1      30.467   7.446   9.054  1.00  0.00     0.185 HD
HETATM   23  N7  UNL     1      31.216   4.448   9.559  1.00  0.00    -0.007 NA
HETATM   24  N8  UNL     1      30.119   4.341   8.826  1.00  0.00    -0.267 N 
ATOM     25  H8  UNL     1      29.693   3.459   8.543  1.00  0.00     0.185 HD
ENDBRANCH  15  19
ENDBRANCH  13  15
ENDBRANCH  11  13
ENDBRANCH   4  11
BRANCH   6  26
HETATM   26  S2  UNL     1      23.135  10.080   9.582  1.00  0.00     0.279 S 
HETATM   27  O1  UNL     1      21.897  10.820   9.230  1.00  0.00    -0.199 OA
HETATM   28  O2  UNL     1      22.804   8.927  10.521  1.00  0.00    -0.199 OA
BRANCH  26  29
HETATM   29  N9  UNL     1      24.181  11.127  10.467  1.00  0.00    -0.323 N 
ATOM     30  H92 UNL     1      23.864  11.955  10.972  1.00  0.00     0.169 HD
ATOM     31  H91 UNL     1      25.146  10.800  10.411  1.00  0.00     0.169 HD
ENDBRANCH  26  29
ENDBRANCH   6  26
TORSDOF 6
ENDMDL
