MODEL 1
REMARK VINA RESULT: -9.123660649      0.000      0.000
REMARK  5 active torsions:
REMARK  status: ('A' for Active; 'I' for Inactive)
REMARK    1  A    between atoms: C2_2  and  C3_3 
REMARK    2  A    between atoms: C3_3  and  C4_4 
REMARK    3  A    between atoms: C6_7  and  N1_8 
REMARK    4  A    between atoms: N1_8  and  C7_10 
REMARK    5  A    between atoms: C7_10  and  C8_11 
ROOT
HETATM    1  C4  UNL     1      26.294   7.386   7.652  1.00  0.00     0.020 A 
HETATM    2  C5  UNL     1      26.691   8.382   6.794  1.00  0.00     0.078 A 
HETATM    3  S1  UNL     1      25.533   9.596   7.105  1.00  0.00    -0.064 SA
HETATM    4  C6  UNL     1      24.618   8.768   8.300  1.00  0.00     0.144 A 
HETATM    5  N5  UNL     1      25.254   7.604   8.395  1.00  0.00    -0.340 N 
ATOM      6  H5  UNL     1      24.927   6.890   9.045  1.00  0.00     0.168 HD
ENDROOT
BRANCH   1   7
HETATM    7  C3  UNL     1      27.098   6.098   7.678  1.00  0.00     0.096 C 
BRANCH   7   8
HETATM    8  C2  UNL     1      27.678   5.851   9.057  1.00  0.00     0.090 C 
HETATM    9  C1  UNL     1      26.586   5.984  10.126  1.00  0.00     0.047 C 
HETATM   10  N6  UNL     1      28.266   4.542   9.166  1.00  0.00    -0.348 N 
HETATM   11  C11 UNL     1      29.389   4.010   8.863  1.00  0.00     0.191 C 
ATOM     12  H6  UNL     1      27.626   3.870   9.591  1.00  0.00     0.163 HD
HETATM   13  N7  UNL     1      29.600   2.636   9.137  1.00  0.00    -0.063 NA
HETATM   14  N8  UNL     1      30.474   4.737   8.248  1.00  0.00    -0.305 N 
HETATM   15  C12 UNL     1      30.685   6.030   8.309  1.00  0.00     0.195 C 
ATOM     16  H8  UNL     1      31.146   4.189   7.711  1.00  0.00     0.171 HD
HETATM   17  N9  UNL     1      31.831   6.486   7.612  1.00  0.00    -0.063 NA
HETATM   18  N10 UNL     1      29.888   6.989   8.993  1.00  0.00    -0.320 N 
HETATM   19  C13 UNL     1      28.653   6.924   9.303  1.00  0.00     0.123 C 
ATOM     20  H10 UNL     1      30.368   7.845   9.272  1.00  0.00     0.169 HD
HETATM   21  N11 UNL     1      28.145   8.047   9.985  1.00  0.00    -0.085 NA
ENDBRANCH   7   8
ENDBRANCH   1   7
BRANCH   4  22
HETATM   22  N1  UNL     1      23.558   9.192   8.951  1.00  0.00    -0.368 N 
ATOM     23  H1  UNL     1      22.620   8.948   8.634  1.00  0.00     0.161 HD
BRANCH  22  24
HETATM   24  C7  UNL     1      23.747   9.997  10.110  1.00  0.00     0.148 C 
BRANCH  24  25
HETATM   25  C8  UNL     1      23.075   9.456  11.341  1.00  0.00     0.119 C 
HETATM   26  C9  UNL     1      22.762   8.002  11.261  1.00  0.00     0.149 C 
HETATM   27  N2  UNL     1      23.913   7.350  11.833  1.00  0.00    -0.363 N 
HETATM   28  C10 UNL     1      24.600   8.208  12.496  1.00  0.00     0.184 C 
ATOM     29  H2  UNL     1      24.145   6.363  11.728  1.00  0.00     0.162 HD
HETATM   30  N3  UNL     1      25.813   7.871  13.190  1.00  0.00    -0.064 NA
HETATM   31  N4  UNL     1      24.013   9.498  12.450  1.00  0.00    -0.357 N 
ATOM     32  H4  UNL     1      24.208  10.288  13.066  1.00  0.00     0.162 HD
ENDBRANCH  24  25
ENDBRANCH  22  24
ENDBRANCH   4  22
TORSDOF 5
ENDMDL
MODEL 2
REMARK VINA RESULT: -9.089889195      1.496      3.162
REMARK  5 active torsions:
REMARK  status: ('A' for Active; 'I' for Inactive)
REMARK    1  A    between atoms: C2_2  and  C3_3 
REMARK    2  A    between atoms: C3_3  and  C4_4 
REMARK    3  A    between atoms: C6_7  and  N1_8 
REMARK    4  A    between atoms: N1_8  and  C7_10 
REMARK    5  A    between atoms: C7_10  and  C8_11 
ROOT
HETATM    1  C4  UNL     1      27.182   6.598   6.668  1.00  0.00     0.020 A 
HETATM    2  C5  UNL     1      27.440   7.336   5.539  1.00  0.00     0.078 A 
HETATM    3  S1  UNL     1      26.155   8.458   5.550  1.00  0.00    -0.064 SA
HETATM    4  C6  UNL     1      25.370   7.924   6.982  1.00  0.00     0.144 A 
HETATM    5  N5  UNL     1      26.141   6.913   7.372  1.00  0.00    -0.340 N 
ATOM      6  H5  UNL     1      25.914   6.390   8.219  1.00  0.00     0.168 HD
ENDROOT
BRANCH   1   7
HETATM    7  C3  UNL     1      28.132   5.466   7.019  1.00  0.00     0.096 C 
BRANCH   7   8
HETATM    8  C2  UNL     1      28.951   5.810   8.248  1.00  0.00     0.090 C 
HETATM    9  C1  UNL     1      29.989   6.888   7.911  1.00  0.00     0.047 C 
HETATM   10  N6  UNL     1      28.127   6.291   9.326  1.00  0.00    -0.348 N 
HETATM   11  C11 UNL     1      27.416   5.760  10.247  1.00  0.00     0.191 C 
ATOM     12  H6  UNL     1      28.106   7.311   9.365  1.00  0.00     0.163 HD
HETATM   13  N7  UNL     1      26.725   6.598  11.157  1.00  0.00    -0.063 NA
HETATM   14  N8  UNL     1      27.271   4.335  10.419  1.00  0.00    -0.305 N 
HETATM   15  C12 UNL     1      28.112   3.408  10.025  1.00  0.00     0.195 C 
ATOM     16  H8  UNL     1      26.428   4.015  10.895  1.00  0.00     0.171 HD
HETATM   17  N9  UNL     1      27.724   2.078  10.323  1.00  0.00    -0.063 NA
HETATM   18  N10 UNL     1      29.344   3.613   9.344  1.00  0.00    -0.320 N 
HETATM   19  C13 UNL     1      29.696   4.596   8.613  1.00  0.00     0.123 C 
ATOM     20  H10 UNL     1      30.038   2.875   9.455  1.00  0.00     0.169 HD
HETATM   21  N11 UNL     1      30.994   4.507   8.071  1.00  0.00    -0.085 NA
ENDBRANCH   7   8
ENDBRANCH   1   7
BRANCH   4  22
HETATM   22  N1  UNL     1      24.282   8.405   7.541  1.00  0.00    -0.368 N 
ATOM     23  H1  UNL     1      23.364   8.033   7.300  1.00  0.00     0.161 HD
BRANCH  22  24
HETATM   24  C7  UNL     1      24.414   9.456   8.493  1.00  0.00     0.148 C 
BRANCH  24  25
HETATM   25  C8  UNL     1      24.899   8.997   9.840  1.00  0.00     0.119 C 
HETATM   26  C9  UNL     1      24.540   9.923  10.952  1.00  0.00     0.149 C 
HETATM   27  N2  UNL     1      23.281   9.427  11.446  1.00  0.00    -0.363 N 
HETATM   28  C10 UNL     1      23.101   8.230  11.022  1.00  0.00     0.184 C 
ATOM     29  H2  UNL     1      22.635   9.947  12.040  1.00  0.00     0.162 HD
HETATM   30  N3  UNL     1      21.934   7.453  11.342  1.00  0.00    -0.064 NA
HETATM   31  N4  UNL     1      24.182   7.790  10.216  1.00  0.00    -0.357 N 
ATOM     32  H4  UNL     1      24.409   6.830   9.955  1.00  0.00     0.162 HD
ENDBRANCH  24  25
ENDBRANCH  22  24
ENDBRANCH   4  22
TORSDOF 5
ENDMDL
MODEL 3
REMARK VINA RESULT: -9.050428713      1.865      3.453
REMARK  5 active torsions:
REMARK  status: ('A' for Active; 'I' for Inactive)
REMARK    1  A    between atoms: C2_2  and  C3_3 
REMARK    2  A    between atoms: C3_3  and  C4_4 
REMARK    3  A    between atoms: C6_7  and  N1_8 
REMARK    4  A    between atoms: N1_8  and  C7_10 
REMARK    5  A    between atoms: C7_10  and  C8_11 
ROOT
HETATM    1  C4  UNL     1      27.902   7.336   6.391  1.00  0.00     0.020 A 
HETATM    2  C5  UNL     1      27.015   8.299   5.975  1.00  0.00     0.078 A 
HETATM    3  S1  UNL     1      25.673   8.002   6.986  1.00  0.00    -0.064 SA
HETATM    4  C6  UNL     1      26.316   6.679   7.873  1.00  0.00     0.144 A 
HETATM    5  N5  UNL     1      27.528   6.539   7.342  1.00  0.00    -0.340 N 
ATOM      6  H5  UNL     1      28.157   5.810   7.681  1.00  0.00     0.168 HD
ENDROOT
BRANCH   1   7
HETATM    7  C3  UNL     1      29.259   7.269   5.714  1.00  0.00     0.096 C 
BRANCH   7   8
HETATM    8  C2  UNL     1      30.308   7.993   6.535  1.00  0.00     0.090 C 
HETATM    9  C1  UNL     1      30.710   9.305   5.848  1.00  0.00     0.047 C 
HETATM   10  N6  UNL     1      29.837   8.299   7.861  1.00  0.00    -0.348 N 
HETATM   11  C11 UNL     1      29.749   7.672   8.972  1.00  0.00     0.191 C 
ATOM     12  H6  UNL     1      29.486   9.254   7.931  1.00  0.00     0.163 HD
HETATM   13  N7  UNL     1      29.208   8.337  10.100  1.00  0.00    -0.063 NA
HETATM   14  N8  UNL     1      30.175   6.304   9.151  1.00  0.00    -0.305 N 
HETATM   15  C12 UNL     1      31.068   5.662   8.437  1.00  0.00     0.195 C 
ATOM     16  H8  UNL     1      29.735   5.784   9.910  1.00  0.00     0.171 HD
HETATM   17  N9  UNL     1      31.298   4.320   8.829  1.00  0.00    -0.063 NA
HETATM   18  N10 UNL     1      31.806   6.177   7.336  1.00  0.00    -0.320 N 
HETATM   19  C13 UNL     1      31.501   7.134   6.550  1.00  0.00     0.123 C 
ATOM     20  H10 UNL     1      32.698   5.720   7.149  1.00  0.00     0.169 HD
HETATM   21  N11 UNL     1      32.448   7.409   5.544  1.00  0.00    -0.085 NA
ENDBRANCH   7   8
ENDBRANCH   1   7
BRANCH   4  22
HETATM   22  N1  UNL     1      25.745   5.989   8.834  1.00  0.00    -0.368 N 
ATOM     23  H1  UNL     1      25.137   5.200   8.618  1.00  0.00     0.161 HD
BRANCH  22  24
HETATM   24  C7  UNL     1      25.994   6.366  10.184  1.00  0.00     0.148 C 
BRANCH  24  25
HETATM   25  C8  UNL     1      25.303   7.636  10.596  1.00  0.00     0.119 C 
HETATM   26  C9  UNL     1      24.484   7.497  11.834  1.00  0.00     0.149 C 
HETATM   27  N2  UNL     1      25.378   7.859  12.904  1.00  0.00    -0.363 N 
HETATM   28  C10 UNL     1      26.390   8.481  12.419  1.00  0.00     0.184 C 
ATOM     29  H2  UNL     1      25.229   7.653  13.892  1.00  0.00     0.162 HD
HETATM   30  N3  UNL     1      27.467   8.978  13.231  1.00  0.00    -0.064 NA
HETATM   31  N4  UNL     1      26.302   8.607  11.009  1.00  0.00    -0.357 N 
ATOM     32  H4  UNL     1      26.828   9.244  10.412  1.00  0.00     0.162 HD
ENDBRANCH  24  25
ENDBRANCH  22  24
ENDBRANCH   4  22
TORSDOF 5
ENDMDL
MODEL 4
REMARK VINA RESULT: -8.993834183      1.717      3.157
REMARK  5 active torsions:
REMARK  status: ('A' for Active; 'I' for Inactive)
REMARK    1  A    between atoms: C2_2  and  C3_3 
REMARK    2  A    between atoms: C3_3  and  C4_4 
REMARK    3  A    between atoms: C6_7  and  N1_8 
REMARK    4  A    between atoms: N1_8  and  C7_10 
REMARK    5  A    between atoms: C7_10  and  C8_11 
ROOT
HETATM    1  C4  UNL     1      27.393   8.496   7.443  1.00  0.00     0.020 A 
HETATM    2  C5  UNL     1      26.625   9.183   6.534  1.00  0.00     0.078 A 
HETATM    3  S1  UNL     1      25.055   8.968   7.165  1.00  0.00    -0.064 SA
HETATM    4  C6  UNL     1      25.465   8.022   8.539  1.00  0.00     0.144 A 
HETATM    5  N5  UNL     1      26.788   7.925   8.437  1.00  0.00    -0.340 N 
ATOM      6  H5  UNL     1      27.321   7.405   9.134  1.00  0.00     0.168 HD
ENDROOT
BRANCH   1   7
HETATM    7  C3  UNL     1      28.895   8.452   7.227  1.00  0.00     0.096 C 
BRANCH   7   8
HETATM    8  C2  UNL     1      29.283   7.263   6.370  1.00  0.00     0.090 C 
HETATM    9  C1  UNL     1      28.372   7.176   5.138  1.00  0.00     0.047 C 
HETATM   10  N6  UNL     1      30.648   7.346   5.922  1.00  0.00    -0.348 N 
HETATM   11  C11 UNL     1      31.795   7.060   6.410  1.00  0.00     0.191 C 
ATOM     12  H6  UNL     1      30.718   7.729   4.979  1.00  0.00     0.163 HD
HETATM   13  N7  UNL     1      32.956   7.294   5.633  1.00  0.00    -0.063 NA
HETATM   14  N8  UNL     1      31.982   6.504   7.729  1.00  0.00    -0.305 N 
HETATM   15  C12 UNL     1      31.106   5.814   8.421  1.00  0.00     0.195 C 
ATOM     16  H8  UNL     1      32.888   6.663   8.169  1.00  0.00     0.171 HD
HETATM   17  N9  UNL     1      31.551   5.384   9.695  1.00  0.00    -0.063 NA
HETATM   18  N10 UNL     1      29.787   5.470   8.017  1.00  0.00    -0.320 N 
HETATM   19  C13 UNL     1      29.031   6.060   7.176  1.00  0.00     0.123 C 
ATOM     20  H10 UNL     1      29.391   4.641   8.460  1.00  0.00     0.169 HD
HETATM   21  N11 UNL     1      27.765   5.471   6.991  1.00  0.00    -0.085 NA
ENDBRANCH   7   8
ENDBRANCH   1   7
BRANCH   4  22
HETATM   22  N1  UNL     1      24.664   7.528   9.456  1.00  0.00    -0.368 N 
ATOM     23  H1  UNL     1      23.710   7.254   9.221  1.00  0.00     0.161 HD
BRANCH  22  24
HETATM   24  C7  UNL     1      25.155   7.382  10.784  1.00  0.00     0.148 C 
BRANCH  24  25
HETATM   25  C8  UNL     1      24.100   7.545  11.843  1.00  0.00     0.119 C 
HETATM   26  C9  UNL     1      24.469   8.517  12.910  1.00  0.00     0.149 C 
HETATM   27  N2  UNL     1      23.938   9.777  12.454  1.00  0.00    -0.363 N 
HETATM   28  C10 UNL     1      23.078   9.563  11.526  1.00  0.00     0.184 C 
ATOM     29  H2  UNL     1      24.205  10.694  12.812  1.00  0.00     0.162 HD
HETATM   30  N3  UNL     1      22.364  10.619  10.861  1.00  0.00    -0.064 NA
HETATM   31  N4  UNL     1      22.933   8.179  11.254  1.00  0.00    -0.357 N 
ATOM     32  H4  UNL     1      22.170   7.724  10.752  1.00  0.00     0.162 HD
ENDBRANCH  24  25
ENDBRANCH  22  24
ENDBRANCH   4  22
TORSDOF 5
ENDMDL
MODEL 5
REMARK VINA RESULT: -8.900341198      2.876      7.325
REMARK  5 active torsions:
REMARK  status: ('A' for Active; 'I' for Inactive)
REMARK    1  A    between atoms: C2_2  and  C3_3 
REMARK    2  A    between atoms: C3_3  and  C4_4 
REMARK    3  A    between atoms: C6_7  and  N1_8 
REMARK    4  A    between atoms: N1_8  and  C7_10 
REMARK    5  A    between atoms: C7_10  and  C8_11 
ROOT
HETATM    1  C4  UNL     1      25.896   9.490  10.602  1.00  0.00     0.020 A 
HETATM    2  C5  UNL     1      25.265   9.415  11.819  1.00  0.00     0.078 A 
HETATM    3  S1  UNL     1      24.984   7.739  11.968  1.00  0.00    -0.064 SA
HETATM    4  C6  UNL     1      25.682   7.236  10.481  1.00  0.00     0.144 A 
HETATM    5  N5  UNL     1      26.093   8.385   9.953  1.00  0.00    -0.340 N 
ATOM      6  H5  UNL     1      26.559   8.397   9.045  1.00  0.00     0.168 HD
ENDROOT
BRANCH   1   7
HETATM    7  C3  UNL     1      26.324  10.856  10.098  1.00  0.00     0.096 C 
BRANCH   7   8
HETATM    8  C2  UNL     1      25.379  11.356   9.023  1.00  0.00     0.090 C 
HETATM    9  C1  UNL     1      25.711  10.702   7.676  1.00  0.00     0.047 C 
HETATM   10  N6  UNL     1      24.004  11.072   9.341  1.00  0.00    -0.348 N 
HETATM   11  C11 UNL     1      23.094  11.618  10.055  1.00  0.00     0.191 C 
ATOM     12  H6  UNL     1      23.674  10.223   8.883  1.00  0.00     0.163 HD
HETATM   13  N7  UNL     1      21.813  11.016  10.121  1.00  0.00    -0.063 NA
HETATM   14  N8  UNL     1      23.296  12.831  10.811  1.00  0.00    -0.305 N 
HETATM   15  C12 UNL     1      24.184  13.766  10.571  1.00  0.00     0.195 C 
ATOM     16  H8  UNL     1      22.686  12.975  11.616  1.00  0.00     0.171 HD
HETATM   17  N9  UNL     1      24.167  14.857  11.474  1.00  0.00    -0.063 NA
HETATM   18  N10 UNL     1      25.136  13.781   9.515  1.00  0.00    -0.320 N 
HETATM   19  C13 UNL     1      25.632  12.797   8.874  1.00  0.00     0.123 C 
ATOM     20  H10 UNL     1      25.467  14.704   9.232  1.00  0.00     0.169 HD
HETATM   21  N11 UNL     1      26.563  13.140   7.873  1.00  0.00    -0.085 NA
ENDBRANCH   7   8
ENDBRANCH   1   7
BRANCH   4  22
HETATM   22  N1  UNL     1      25.780   6.017   9.999  1.00  0.00    -0.368 N 
ATOM     23  H1  UNL     1      24.961   5.535   9.631  1.00  0.00     0.161 HD
BRANCH  22  24
HETATM   24  C7  UNL     1      27.056   5.385  10.000  1.00  0.00     0.148 C 
BRANCH  24  25
HETATM   25  C8  UNL     1      27.767   5.451   8.677  1.00  0.00     0.119 C 
HETATM   26  C9  UNL     1      28.662   6.634   8.538  1.00  0.00     0.149 C 
HETATM   27  N2  UNL     1      29.949   6.173   8.992  1.00  0.00    -0.363 N 
HETATM   28  C10 UNL     1      29.956   4.890   9.015  1.00  0.00     0.184 C 
ATOM     29  H2  UNL     1      30.732   6.772   9.255  1.00  0.00     0.162 HD
HETATM   30  N3  UNL     1      31.099   4.120   9.424  1.00  0.00    -0.064 NA
HETATM   31  N4  UNL     1      28.713   4.352   8.592  1.00  0.00    -0.357 N 
ATOM     32  H4  UNL     1      28.524   3.395   8.293  1.00  0.00     0.162 HD
ENDBRANCH  24  25
ENDBRANCH  22  24
ENDBRANCH   4  22
TORSDOF 5
ENDMDL
