MODEL 1
REMARK VINA RESULT: -8.636254765      0.000      0.000
REMARK  9 active torsions:
REMARK  status: ('A' for Active; 'I' for Inactive)
REMARK    1  A    between atoms: C3_7  and  S1_8 
REMARK    2  A    between atoms: S1_8  and  C4_9 
REMARK    3  A    between atoms: C4_9  and  C5_10 
REMARK    4  A    between atoms: C5_10  and  N5_16 
REMARK    5  A    between atoms: N3_11  and  N4_13 
REMARK    6  A    between atoms: N5_16  and  N6_18 
REMARK    7  A    between atoms: N6_18  and  C6_20 
REMARK    8  A    between atoms: C7_23  and  N8_24 
REMARK    9  A    between atoms: N13_36  and  N14_37 
ROOT
HETATM    1  N5  UNL     1      25.289   6.678  10.821  1.00  0.00    -0.273 N 
ATOM      2  H5  UNL     1      25.390   6.476  11.816  1.00  0.00     0.189 HD
ENDROOT
BRANCH   1   3
HETATM    3  C5  UNL     1      24.571   7.814  10.402  1.00  0.00     0.120 C 
HETATM    4  N3  UNL     1      23.312   7.946  10.539  1.00  0.00    -0.294 N 
ATOM      5  H3  UNL     1      22.900   8.813  10.197  1.00  0.00     0.187 HD
BRANCH   3   6
HETATM    6  C4  UNL     1      25.344   8.913   9.762  1.00  0.00     0.161 C 
BRANCH   6   7
HETATM    7  S1  UNL     1      24.260   9.605   8.456  1.00  0.00    -0.083 SA
BRANCH   7   8
HETATM    8  C3  UNL     1      24.893   8.968   6.888  1.00  0.00     0.182 A 
HETATM    9  N2  UNL     1      26.121   8.579   6.575  1.00  0.00    -0.277 N 
HETATM   10  N1  UNL     1      26.122   8.180   5.294  1.00  0.00    -0.286 N 
ATOM     11  H2  UNL     1      26.927   8.581   7.201  1.00  0.00     0.189 HD
HETATM   12  C2  UNL     1      24.899   8.315   4.792  1.00  0.00     0.116 A 
ATOM     13  H1  UNL     1      26.934   7.829   4.785  1.00  0.00     0.188 HD
HETATM   14  C1  UNL     1      24.346   8.024   3.440  1.00  0.00     0.092 C 
HETATM   15  N13 UNL     1      24.112   8.812   5.790  1.00  0.00    -0.226 N 
BRANCH  15  16
HETATM   16  N14 UNL     1      22.755   9.111   5.713  1.00  0.00    -0.335 N 
ATOM     17 2H14 UNL     1      22.123   8.814   4.969  1.00  0.00     0.177 HD
ATOM     18 1H14 UNL     1      22.210   9.659   6.379  1.00  0.00     0.177 HD
ENDBRANCH  15  16
ENDBRANCH   7   8
ENDBRANCH   6   7
ENDBRANCH   3   6
BRANCH   4  19
HETATM   19  N4  UNL     1      22.452   7.025  11.107  1.00  0.00    -0.344 N 
ATOM     20  H42 UNL     1      22.470   6.090  10.699  1.00  0.00     0.176 HD
ATOM     21  H41 UNL     1      21.813   7.196  11.883  1.00  0.00     0.176 HD
ENDBRANCH   4  19
ENDBRANCH   1   3
BRANCH   1  22
HETATM   22  N6  UNL     1      25.856   5.835   9.882  1.00  0.00    -0.128 N 
ATOM     23  H6  UNL     1      25.220   5.204   9.394  1.00  0.00     0.205 HD
BRANCH  22  24
HETATM   24  C6  UNL     1      27.082   5.761   9.562  1.00  0.00     0.747 A 
HETATM   25  N7  UNL     1      27.766   6.783   9.017  1.00  0.00    -0.018 N 
HETATM   26  C7  UNL     1      29.055   6.632   8.704  1.00  0.00     0.705 A 
ATOM     27  H7  UNL     1      27.300   7.673   8.843  1.00  0.00     0.203 HD
HETATM   28  N9  UNL     1      29.681   5.456   8.930  1.00  0.00    -0.020 N 
HETATM   29  C8  UNL     1      29.001   4.414   9.480  1.00  0.00     0.734 A 
ATOM     30  H9  UNL     1      30.667   5.350   8.689  1.00  0.00     0.203 HD
HETATM   31  N10 UNL     1      29.337   3.156   9.818  1.00  0.00    -0.184 N 
HETATM   32  N12 UNL     1      27.697   4.567   9.796  1.00  0.00     0.093 N 
HETATM   33  C9  UNL     1      28.256   2.520  10.342  1.00  0.00     0.216 A 
ATOM     34  H10 UNL     1      30.261   2.743   9.699  1.00  0.00     0.185 HD
HETATM   35  N11 UNL     1      27.265   3.429  10.310  1.00  0.00    -0.260 N 
ATOM     36  H11 UNL     1      26.313   3.263  10.636  1.00  0.00     0.189 HD
BRANCH  26  37
HETATM   37  N8  UNL     1      29.691   7.642   8.178  1.00  0.00    -0.234 N 
ATOM     38  H82 UNL     1      29.505   7.939   7.220  1.00  0.00     0.174 HD
ATOM     39  H81 UNL     1      30.382   8.131   8.746  1.00  0.00     0.174 HD
ENDBRANCH  26  37
ENDBRANCH  22  24
ENDBRANCH   1  22
TORSDOF 9
ENDMDL
MODEL 2
REMARK VINA RESULT: -8.587661401      1.071      2.732
REMARK  9 active torsions:
REMARK  status: ('A' for Active; 'I' for Inactive)
REMARK    1  A    between atoms: C3_7  and  S1_8 
REMARK    2  A    between atoms: S1_8  and  C4_9 
REMARK    3  A    between atoms: C4_9  and  C5_10 
REMARK    4  A    between atoms: C5_10  and  N5_16 
REMARK    5  A    between atoms: N3_11  and  N4_13 
REMARK    6  A    between atoms: N5_16  and  N6_18 
REMARK    7  A    between atoms: N6_18  and  C6_20 
REMARK    8  A    between atoms: C7_23  and  N8_24 
REMARK    9  A    between atoms: N13_36  and  N14_37 
ROOT
HETATM    1  N5  UNL     1      25.011   6.586  10.242  1.00  0.00    -0.273 N 
ATOM      2  H5  UNL     1      24.438   5.827   9.873  1.00  0.00     0.189 HD
ENDROOT
BRANCH   1   3
HETATM    3  C5  UNL     1      24.468   7.878  10.375  1.00  0.00     0.120 C 
HETATM    4  N3  UNL     1      23.278   8.108  10.763  1.00  0.00    -0.294 N 
ATOM      5  H3  UNL     1      22.993   9.086  10.821  1.00  0.00     0.187 HD
BRANCH   3   6
HETATM    6  C4  UNL     1      25.350   9.028  10.035  1.00  0.00     0.161 C 
BRANCH   6   7
HETATM    7  S1  UNL     1      24.246  10.344   9.394  1.00  0.00    -0.083 SA
BRANCH   7   8
HETATM    8  C3  UNL     1      23.677   9.777   7.775  1.00  0.00     0.182 A 
HETATM    9  N2  UNL     1      22.440   9.584   7.340  1.00  0.00    -0.277 N 
HETATM   10  N1  UNL     1      22.502   9.159   6.068  1.00  0.00    -0.286 N 
ATOM     11  H2  UNL     1      21.587   9.732   7.879  1.00  0.00     0.189 HD
HETATM   12  C2  UNL     1      23.776   9.083   5.694  1.00  0.00     0.116 A 
ATOM     13  H1  UNL     1      21.700   8.931   5.482  1.00  0.00     0.188 HD
HETATM   14  C1  UNL     1      24.406   8.676   4.408  1.00  0.00     0.092 C 
HETATM   15  N13 UNL     1      24.529   9.471   6.764  1.00  0.00    -0.226 N 
BRANCH  15  16
HETATM   16  N14 UNL     1      25.918   9.544   6.825  1.00  0.00    -0.335 N 
ATOM     17 2H14 UNL     1      26.502  10.180   6.283  1.00  0.00     0.177 HD
ATOM     18 1H14 UNL     1      26.535   8.982   7.411  1.00  0.00     0.177 HD
ENDBRANCH  15  16
ENDBRANCH   7   8
ENDBRANCH   6   7
ENDBRANCH   3   6
BRANCH   4  19
HETATM   19  N4  UNL     1      22.335   7.160  11.114  1.00  0.00    -0.344 N 
ATOM     20  H42 UNL     1      21.773   6.789  10.348  1.00  0.00     0.176 HD
ATOM     21  H41 UNL     1      22.157   6.808  12.054  1.00  0.00     0.176 HD
ENDBRANCH   4  19
ENDBRANCH   1   3
BRANCH   1  22
HETATM   22  N6  UNL     1      26.322   6.347  10.611  1.00  0.00    -0.128 N 
ATOM     23  H6  UNL     1      26.681   6.894  11.394  1.00  0.00     0.205 HD
BRANCH  22  24
HETATM   24  C6  UNL     1      27.129   5.523  10.082  1.00  0.00     0.747 A 
HETATM   25  N7  UNL     1      27.191   4.225  10.430  1.00  0.00    -0.018 N 
HETATM   26  C7  UNL     1      28.066   3.415   9.830  1.00  0.00     0.705 A 
ATOM     27  H7  UNL     1      26.570   3.860  11.152  1.00  0.00     0.203 HD
HETATM   28  N9  UNL     1      28.893   3.888   8.873  1.00  0.00    -0.020 N 
HETATM   29  C8  UNL     1      28.841   5.199   8.512  1.00  0.00     0.734 A 
ATOM     30  H9  UNL     1      29.559   3.262   8.419  1.00  0.00     0.203 HD
HETATM   31  N10 UNL     1      29.513   5.948   7.618  1.00  0.00    -0.184 N 
HETATM   32  N12 UNL     1      27.956   6.019   9.119  1.00  0.00     0.093 N 
HETATM   33  C9  UNL     1      29.057   7.228   7.661  1.00  0.00     0.216 A 
ATOM     34  H10 UNL     1      30.251   5.607   7.003  1.00  0.00     0.185 HD
HETATM   35  N11 UNL     1      28.096   7.226   8.601  1.00  0.00    -0.260 N 
ATOM     36  H11 UNL     1      27.551   8.043   8.877  1.00  0.00     0.189 HD
BRANCH  26  37
HETATM   37  N8  UNL     1      28.102   2.161  10.189  1.00  0.00    -0.234 N 
ATOM     38  H82 UNL     1      28.282   1.424   9.506  1.00  0.00     0.174 HD
ATOM     39  H81 UNL     1      27.943   1.930  11.169  1.00  0.00     0.174 HD
ENDBRANCH  26  37
ENDBRANCH  22  24
ENDBRANCH   1  22
TORSDOF 9
ENDMDL
MODEL 3
REMARK VINA RESULT: -8.574197197      1.269      1.406
REMARK  9 active torsions:
REMARK  status: ('A' for Active; 'I' for Inactive)
REMARK    1  A    between atoms: C3_7  and  S1_8 
REMARK    2  A    between atoms: S1_8  and  C4_9 
REMARK    3  A    between atoms: C4_9  and  C5_10 
REMARK    4  A    between atoms: C5_10  and  N5_16 
REMARK    5  A    between atoms: N3_11  and  N4_13 
REMARK    6  A    between atoms: N5_16  and  N6_18 
REMARK    7  A    between atoms: N6_18  and  C6_20 
REMARK    8  A    between atoms: C7_23  and  N8_24 
REMARK    9  A    between atoms: N13_36  and  N14_37 
ROOT
HETATM    1  N5  UNL     1      25.696   6.634   8.963  1.00  0.00    -0.273 N 
ATOM      2  H5  UNL     1      25.271   5.974   8.313  1.00  0.00     0.189 HD
ENDROOT
BRANCH   1   3
HETATM    3  C5  UNL     1      25.164   7.930   9.101  1.00  0.00     0.120 C 
HETATM    4  N3  UNL     1      24.206   8.221   9.887  1.00  0.00    -0.294 N 
ATOM      5  H3  UNL     1      23.903   9.195   9.903  1.00  0.00     0.187 HD
BRANCH   3   6
HETATM    6  C4  UNL     1      25.768   9.008   8.272  1.00  0.00     0.161 C 
BRANCH   6   7
HETATM    7  S1  UNL     1      24.675   9.200   6.812  1.00  0.00    -0.083 SA
BRANCH   7   8
HETATM    8  C3  UNL     1      25.492   8.330   5.456  1.00  0.00     0.182 A 
HETATM    9  N2  UNL     1      26.639   7.665   5.454  1.00  0.00    -0.277 N 
HETATM   10  N1  UNL     1      26.845   7.182   4.219  1.00  0.00    -0.286 N 
ATOM     11  H2  UNL     1      27.259   7.541   6.255  1.00  0.00     0.189 HD
HETATM   12  C2  UNL     1      25.831   7.538   3.436  1.00  0.00     0.116 A 
ATOM     13  H1  UNL     1      27.651   6.630   3.927  1.00  0.00     0.188 HD
HETATM   14  C1  UNL     1      25.553   7.274   1.997  1.00  0.00     0.092 C 
HETATM   15  N13 UNL     1      24.968   8.263   4.206  1.00  0.00    -0.226 N 
BRANCH  15  16
HETATM   16  N14 UNL     1      23.768   8.839   3.799  1.00  0.00    -0.335 N 
ATOM     17 2H14 UNL     1      23.021   9.151   4.418  1.00  0.00     0.177 HD
ATOM     18 1H14 UNL     1      23.474   9.026   2.840  1.00  0.00     0.177 HD
ENDBRANCH  15  16
ENDBRANCH   7   8
ENDBRANCH   6   7
ENDBRANCH   3   6
BRANCH   4  19
HETATM   19  N4  UNL     1      23.538   7.344  10.719  1.00  0.00    -0.344 N 
ATOM     20  H42 UNL     1      24.118   6.840  11.391  1.00  0.00     0.176 HD
ATOM     21  H41 UNL     1      22.534   7.160  10.720  1.00  0.00     0.176 HD
ENDBRANCH   4  19
ENDBRANCH   1   3
BRANCH   1  22
HETATM   22  N6  UNL     1      26.798   6.257   9.710  1.00  0.00    -0.128 N 
ATOM     23  H6  UNL     1      26.731   6.393  10.719  1.00  0.00     0.205 HD
BRANCH  22  24
HETATM   24  C6  UNL     1      27.883   5.761   9.278  1.00  0.00     0.747 A 
HETATM   25  N7  UNL     1      28.752   6.442   8.510  1.00  0.00    -0.018 N 
HETATM   26  C7  UNL     1      29.875   5.854   8.091  1.00  0.00     0.705 A 
ATOM     27  H7  UNL     1      28.554   7.407   8.248  1.00  0.00     0.203 HD
HETATM   28  N9  UNL     1      30.147   4.575   8.432  1.00  0.00    -0.020 N 
HETATM   29  C8  UNL     1      29.276   3.874   9.207  1.00  0.00     0.734 A 
ATOM     30  H9  UNL     1      31.008   4.134   8.108  1.00  0.00     0.203 HD
HETATM   31  N10 UNL     1      29.266   2.623   9.701  1.00  0.00    -0.184 N 
HETATM   32  N12 UNL     1      28.140   4.469   9.631  1.00  0.00     0.093 N 
HETATM   33  C9  UNL     1      28.135   2.429  10.430  1.00  0.00     0.216 A 
ATOM     34  H10 UNL     1      29.995   1.927   9.552  1.00  0.00     0.185 HD
HETATM   35  N11 UNL     1      27.469   3.595  10.359  1.00  0.00    -0.260 N 
ATOM     36  H11 UNL     1      26.570   3.779  10.806  1.00  0.00     0.189 HD
BRANCH  26  37
HETATM   37  N8  UNL     1      30.699   6.541   7.349  1.00  0.00    -0.234 N 
ATOM     38  H82 UNL     1      31.088   7.426   7.677  1.00  0.00     0.174 HD
ATOM     39  H81 UNL     1      30.946   6.177   6.429  1.00  0.00     0.174 HD
ENDBRANCH  26  37
ENDBRANCH  22  24
ENDBRANCH   1  22
TORSDOF 9
ENDMDL
MODEL 4
REMARK VINA RESULT: -8.572111892      2.253      5.480
REMARK  9 active torsions:
REMARK  status: ('A' for Active; 'I' for Inactive)
REMARK    1  A    between atoms: C3_7  and  S1_8 
REMARK    2  A    between atoms: S1_8  and  C4_9 
REMARK    3  A    between atoms: C4_9  and  C5_10 
REMARK    4  A    between atoms: C5_10  and  N5_16 
REMARK    5  A    between atoms: N3_11  and  N4_13 
REMARK    6  A    between atoms: N5_16  and  N6_18 
REMARK    7  A    between atoms: N6_18  and  C6_20 
REMARK    8  A    between atoms: C7_23  and  N8_24 
REMARK    9  A    between atoms: N13_36  and  N14_37 
ROOT
HETATM    1  N5  UNL     1      26.713   5.584  10.432  1.00  0.00    -0.273 N 
ATOM      2  H5  UNL     1      25.948   4.927  10.588  1.00  0.00     0.189 HD
ENDROOT
BRANCH   1   3
HETATM    3  C5  UNL     1      27.791   5.226   9.601  1.00  0.00     0.120 C 
HETATM    4  N3  UNL     1      28.203   4.031   9.452  1.00  0.00    -0.294 N 
ATOM      5  H3  UNL     1      28.994   3.891   8.823  1.00  0.00     0.187 HD
BRANCH   3   6
HETATM    6  C4  UNL     1      28.478   6.322   8.864  1.00  0.00     0.161 C 
BRANCH   6   7
HETATM    7  S1  UNL     1      27.543   6.550   7.304  1.00  0.00    -0.083 SA
BRANCH   7   8
HETATM    8  C3  UNL     1      26.230   7.734   7.674  1.00  0.00     0.182 A 
HETATM    9  N2  UNL     1      24.927   7.528   7.806  1.00  0.00    -0.277 N 
HETATM   10  N1  UNL     1      24.341   8.703   8.083  1.00  0.00    -0.286 N 
ATOM     11  H2  UNL     1      24.451   6.631   7.714  1.00  0.00     0.189 HD
HETATM   12  C2  UNL     1      25.268   9.655   8.128  1.00  0.00     0.116 A 
ATOM     13  H1  UNL     1      23.342   8.845   8.235  1.00  0.00     0.188 HD
HETATM   14  C1  UNL     1      25.173  11.118   8.392  1.00  0.00     0.092 C 
HETATM   15  N13 UNL     1      26.467   9.055   7.871  1.00  0.00    -0.226 N 
BRANCH  15  16
HETATM   16  N14 UNL     1      27.714   9.671   7.817  1.00  0.00    -0.335 N 
ATOM     17 2H14 UNL     1      28.200   9.951   6.965  1.00  0.00     0.177 HD
ATOM     18 1H14 UNL     1      28.306   9.926   8.607  1.00  0.00     0.177 HD
ENDBRANCH  15  16
ENDBRANCH   7   8
ENDBRANCH   6   7
ENDBRANCH   3   6
BRANCH   4  19
HETATM   19  N4  UNL     1      27.680   2.906  10.060  1.00  0.00    -0.344 N 
ATOM     20  H42 UNL     1      28.153   2.602  10.912  1.00  0.00     0.176 HD
ATOM     21  H41 UNL     1      26.879   2.364   9.737  1.00  0.00     0.176 HD
ENDBRANCH   4  19
ENDBRANCH   1   3
BRANCH   1  22
HETATM   22  N6  UNL     1      26.691   6.828  11.038  1.00  0.00    -0.128 N 
ATOM     23  H6  UNL     1      27.597   7.229  11.284  1.00  0.00     0.205 HD
BRANCH  22  24
HETATM   24  C6  UNL     1      25.669   7.524  11.322  1.00  0.00     0.747 A 
HETATM   25  N7  UNL     1      24.426   7.013  11.395  1.00  0.00    -0.018 N 
HETATM   26  C7  UNL     1      23.397   7.807  11.699  1.00  0.00     0.705 A 
ATOM     27  H7  UNL     1      24.271   6.021  11.219  1.00  0.00     0.203 HD
HETATM   28  N9  UNL     1      23.592   9.123  11.934  1.00  0.00    -0.020 N 
HETATM   29  C8  UNL     1      24.843   9.652  11.862  1.00  0.00     0.734 A 
ATOM     30  H9  UNL     1      22.799   9.722  12.166  1.00  0.00     0.203 HD
HETATM   31  N10 UNL     1      25.346  10.888  12.038  1.00  0.00    -0.184 N 
HETATM   32  N12 UNL     1      25.885   8.849  11.555  1.00  0.00     0.093 N 
HETATM   33  C9  UNL     1      26.691  10.866  11.844  1.00  0.00     0.216 A 
ATOM     34  H10 UNL     1      24.800  11.714  12.281  1.00  0.00     0.185 HD
HETATM   35  N11 UNL     1      26.981   9.587  11.547  1.00  0.00    -0.260 N 
ATOM     36  H11 UNL     1      27.917   9.235  11.344  1.00  0.00     0.189 HD
BRANCH  26  37
HETATM   37  N8  UNL     1      22.204   7.283  11.764  1.00  0.00    -0.234 N 
ATOM     38  H82 UNL     1      21.603   7.240  10.941  1.00  0.00     0.174 HD
ATOM     39  H81 UNL     1      21.881   6.916  12.659  1.00  0.00     0.174 HD
ENDBRANCH  26  37
ENDBRANCH  22  24
ENDBRANCH   1  22
TORSDOF 9
ENDMDL
MODEL 5
REMARK VINA RESULT: -8.550259660      1.549      2.841
REMARK  9 active torsions:
REMARK  status: ('A' for Active; 'I' for Inactive)
REMARK    1  A    between atoms: C3_7  and  S1_8 
REMARK    2  A    between atoms: S1_8  and  C4_9 
REMARK    3  A    between atoms: C4_9  and  C5_10 
REMARK    4  A    between atoms: C5_10  and  N5_16 
REMARK    5  A    between atoms: N3_11  and  N4_13 
REMARK    6  A    between atoms: N5_16  and  N6_18 
REMARK    7  A    between atoms: N6_18  and  C6_20 
REMARK    8  A    between atoms: C7_23  and  N8_24 
REMARK    9  A    between atoms: N13_36  and  N14_37 
ROOT
HETATM    1  N5  UNL     1      26.009   6.163   9.118  1.00  0.00    -0.273 N 
ATOM      2  H5  UNL     1      25.584   5.494   9.761  1.00  0.00     0.189 HD
ENDROOT
BRANCH   1   3
HETATM    3  C5  UNL     1      25.555   7.494   9.084  1.00  0.00     0.120 C 
HETATM    4  N3  UNL     1      24.555   7.918   9.748  1.00  0.00    -0.294 N 
ATOM      5  H3  UNL     1      24.317   8.905   9.644  1.00  0.00     0.187 HD
BRANCH   3   6
HETATM    6  C4  UNL     1      26.298   8.447   8.214  1.00  0.00     0.161 C 
BRANCH   6   7
HETATM    7  S1  UNL     1      25.158   8.881   6.845  1.00  0.00    -0.083 SA
BRANCH   7   8
HETATM    8  C3  UNL     1      25.822   8.081   5.367  1.00  0.00     0.182 A 
HETATM    9  N2  UNL     1      26.950   7.401   5.215  1.00  0.00    -0.277 N 
HETATM   10  N1  UNL     1      27.026   6.990   3.940  1.00  0.00    -0.286 N 
ATOM     11  H2  UNL     1      27.641   7.220   5.943  1.00  0.00     0.189 HD
HETATM   12  C2  UNL     1      25.949   7.407   3.281  1.00  0.00     0.116 A 
ATOM     13  H1  UNL     1      27.789   6.444   3.540  1.00  0.00     0.188 HD
HETATM   14  C1  UNL     1      25.529   7.234   1.863  1.00  0.00     0.092 C 
HETATM   15  N13 UNL     1      25.180   8.098   4.172  1.00  0.00    -0.226 N 
BRANCH  15  16
HETATM   16  N14 UNL     1      23.958   8.715   3.918  1.00  0.00    -0.335 N 
ATOM     17 2H14 UNL     1      23.710   9.209   3.061  1.00  0.00     0.177 HD
ATOM     18 1H14 UNL     1      23.153   8.758   4.543  1.00  0.00     0.177 HD
ENDBRANCH  15  16
ENDBRANCH   7   8
ENDBRANCH   6   7
ENDBRANCH   3   6
BRANCH   4  19
HETATM   19  N4  UNL     1      23.761   7.169  10.595  1.00  0.00    -0.344 N 
ATOM     20  H42 UNL     1      23.431   7.648  11.433  1.00  0.00     0.176 HD
ATOM     21  H41 UNL     1      23.483   6.197  10.458  1.00  0.00     0.176 HD
ENDBRANCH   4  19
ENDBRANCH   1   3
BRANCH   1  22
HETATM   22  N6  UNL     1      27.033   5.761   8.279  1.00  0.00    -0.128 N 
ATOM     23  H6  UNL     1      26.935   6.004   7.293  1.00  0.00     0.205 HD
BRANCH  22  24
HETATM   24  C6  UNL     1      28.081   5.122   8.601  1.00  0.00     0.747 A 
HETATM   25  N7  UNL     1      28.061   3.988   9.325  1.00  0.00    -0.018 N 
HETATM   26  C7  UNL     1      29.205   3.370   9.627  1.00  0.00     0.705 A 
ATOM     27  H7  UNL     1      27.173   3.601   9.642  1.00  0.00     0.203 HD
HETATM   28  N9  UNL     1      30.387   3.875   9.212  1.00  0.00    -0.020 N 
HETATM   29  C8  UNL     1      30.422   5.021   8.480  1.00  0.00     0.734 A 
ATOM     30  H9  UNL     1      31.257   3.395   9.447  1.00  0.00     0.203 HD
HETATM   31  N10 UNL     1      31.412   5.751   7.936  1.00  0.00    -0.184 N 
HETATM   32  N12 UNL     1      29.265   5.647   8.175  1.00  0.00     0.093 N 
HETATM   33  C9  UNL     1      30.887   6.827   7.293  1.00  0.00     0.216 A 
ATOM     34  H10 UNL     1      32.406   5.530   7.997  1.00  0.00     0.185 HD
HETATM   35  N11 UNL     1      29.557   6.723   7.466  1.00  0.00    -0.260 N 
ATOM     36  H11 UNL     1      28.870   7.383   7.101  1.00  0.00     0.189 HD
BRANCH  26  37
HETATM   37  N8  UNL     1      29.153   2.271  10.329  1.00  0.00    -0.234 N 
ATOM     38  H82 UNL     1      28.600   2.221  11.186  1.00  0.00     0.174 HD
ATOM     39  H81 UNL     1      29.679   1.461  10.005  1.00  0.00     0.174 HD
ENDBRANCH  26  37
ENDBRANCH  22  24
ENDBRANCH   1  22
TORSDOF 9
ENDMDL
