MODEL 1
REMARK VINA RESULT: -9.595464966      0.000      0.000
REMARK  0 active torsions:
REMARK  status: ('A' for Active; 'I' for Inactive)
ROOT
HETATM    1  O1  UNL     1      -0.429  48.933 165.439  1.00  0.00    -0.259 OA
HETATM    2  C1  UNL     1      -1.074  49.970 165.179  1.00  0.00     0.302 A 
HETATM    3  O2  UNL     1      -2.379  49.918 164.917  1.00  0.00    -0.271 OA
HETATM    4  C2  UNL     1      -3.013  51.035 164.651  1.00  0.00     0.121 A 
HETATM    5  C3  UNL     1      -4.342  51.295 164.346  1.00  0.00     0.027 A 
HETATM    6  C4  UNL     1      -5.393  50.411 164.237  1.00  0.00     0.017 A 
HETATM    7  C5  UNL     1      -6.669  50.879 163.918  1.00  0.00     0.001 A 
HETATM    8  C6  UNL     1      -6.797  52.233 163.726  1.00  0.00     0.002 A 
HETATM    9  C7  UNL     1      -5.757  53.123 163.832  1.00  0.00     0.030 A 
HETATM   10  C8  UNL     1      -4.486  52.652 164.151  1.00  0.00     0.045 A 
HETATM   11  N1  UNL     1      -3.287  53.229 164.327  1.00  0.00    -0.351 N 
ATOM     12  H1  UNL     1      -3.087  54.225 164.248  1.00  0.00     0.166 HD
HETATM   13  C9  UNL     1      -2.398  52.269 164.628  1.00  0.00     0.096 A 
HETATM   14  C10 UNL     1      -1.057  52.345 164.894  1.00  0.00     0.080 A 
HETATM   15  N2  UNL     1      -0.186  53.366 164.949  1.00  0.00    -0.353 N 
ATOM     16  H2  UNL     1      -0.426  54.343 164.781  1.00  0.00     0.166 HD
HETATM   17  C11 UNL     1       1.052  52.923 165.258  1.00  0.00     0.044 A 
HETATM   18  C12 UNL     1       2.259  53.571 165.428  1.00  0.00     0.030 A 
HETATM   19  C13 UNL     1       3.369  52.820 165.747  1.00  0.00     0.002 A 
HETATM   20  C14 UNL     1       3.254  51.450 165.891  1.00  0.00     0.001 A 
HETATM   21  C15 UNL     1       2.036  50.812 165.718  1.00  0.00     0.015 A 
HETATM   22  C16 UNL     1       0.924  51.554 165.399  1.00  0.00     0.009 A 
HETATM   23  C17 UNL     1      -0.386  51.166 165.176  1.00  0.00     0.081 A 
ENDROOT
TORSDOF 0
ENDMDL
MODEL 2
REMARK VINA RESULT: -9.570750858      0.464      6.322
REMARK  0 active torsions:
REMARK  status: ('A' for Active; 'I' for Inactive)
ROOT
HETATM    1  O1  UNL     1      -2.791  48.749 164.931  1.00  0.00    -0.259 OA
HETATM    2  C1  UNL     1      -2.231  49.865 164.931  1.00  0.00     0.302 A 
HETATM    3  O2  UNL     1      -0.928  49.979 165.181  1.00  0.00    -0.271 OA
HETATM    4  C2  UNL     1      -0.386  51.173 165.169  1.00  0.00     0.121 A 
HETATM    5  C3  UNL     1       0.917  51.601 165.386  1.00  0.00     0.027 A 
HETATM    6  C4  UNL     1       2.034  50.853 165.685  1.00  0.00     0.017 A 
HETATM    7  C5  UNL     1       3.267  51.481 165.868  1.00  0.00     0.001 A 
HETATM    8  C6  UNL     1       3.286  52.848 165.734  1.00  0.00     0.002 A 
HETATM    9  C7  UNL     1       2.179  53.604 165.437  1.00  0.00     0.030 A 
HETATM   10  C8  UNL     1       0.952  52.973 165.255  1.00  0.00     0.045 A 
HETATM   11  N1  UNL     1      -0.288  53.396 164.965  1.00  0.00    -0.351 N 
ATOM     12  H1  UNL     1      -0.568  54.365 164.811  1.00  0.00     0.166 HD
HETATM   13  C9  UNL     1      -1.097  52.326 164.910  1.00  0.00     0.096 A 
HETATM   14  C10 UNL     1      -2.439  52.232 164.652  1.00  0.00     0.080 A 
HETATM   15  N2  UNL     1      -3.388  53.140 164.370  1.00  0.00    -0.353 N 
ATOM     16  H2  UNL     1      -3.227  54.145 164.301  1.00  0.00     0.166 HD
HETATM   17  C11 UNL     1      -4.585  52.541 164.191  1.00  0.00     0.044 A 
HETATM   18  C12 UNL     1      -5.839  53.034 163.891  1.00  0.00     0.030 A 
HETATM   19  C13 UNL     1      -6.884  52.144 163.771  1.00  0.00     0.002 A 
HETATM   20  C14 UNL     1      -6.659  50.792 163.952  1.00  0.00     0.001 A 
HETATM   21  C15 UNL     1      -5.395  50.310 164.253  1.00  0.00     0.015 A 
HETATM   22  C16 UNL     1      -4.348  51.191 164.374  1.00  0.00     0.009 A 
HETATM   23  C17 UNL     1      -3.012  50.971 164.664  1.00  0.00     0.081 A 
ENDROOT
TORSDOF 0
ENDMDL
MODEL 3
REMARK VINA RESULT: -8.934674744      1.800      6.798
REMARK  0 active torsions:
REMARK  status: ('A' for Active; 'I' for Inactive)
ROOT
HETATM    1  O1  UNL     1      -3.285  54.148 164.159  1.00  0.00    -0.259 OA
HETATM    2  C1  UNL     1      -2.534  53.205 164.486  1.00  0.00     0.302 A 
HETATM    3  O2  UNL     1      -1.227  53.398 164.659  1.00  0.00    -0.271 OA
HETATM    4  C2  UNL     1      -0.479  52.378 165.003  1.00  0.00     0.121 A 
HETATM    5  C3  UNL     1       0.882  52.269 165.251  1.00  0.00     0.027 A 
HETATM    6  C4  UNL     1       1.852  53.247 165.197  1.00  0.00     0.017 A 
HETATM    7  C5  UNL     1       3.180  52.929 165.485  1.00  0.00     0.001 A 
HETATM    8  C6  UNL     1       3.443  51.621 165.812  1.00  0.00     0.002 A 
HETATM    9  C7  UNL     1       2.486  50.638 165.867  1.00  0.00     0.030 A 
HETATM   10  C8  UNL     1       1.162  50.960 165.580  1.00  0.00     0.045 A 
HETATM   11  N1  UNL     1       0.014  50.266 165.542  1.00  0.00    -0.351 N 
ATOM     12  H1  UNL     1      -0.089  49.271 165.740  1.00  0.00     0.166 HD
HETATM   13  C9  UNL     1      -0.976  51.106 165.197  1.00  0.00     0.096 A 
HETATM   14  C10 UNL     1      -2.316  50.885 165.025  1.00  0.00     0.080 A 
HETATM   15  N2  UNL     1      -3.091  49.793 165.134  1.00  0.00    -0.353 N 
ATOM     16  H2  UNL     1      -2.752  48.865 165.391  1.00  0.00     0.166 HD
HETATM   17  C11 UNL     1      -4.379  50.090 164.858  1.00  0.00     0.044 A 
HETATM   18  C12 UNL     1      -5.528  49.325 164.835  1.00  0.00     0.030 A 
HETATM   19  C13 UNL     1      -6.718  49.938 164.507  1.00  0.00     0.002 A 
HETATM   20  C14 UNL     1      -6.738  51.288 164.211  1.00  0.00     0.001 A 
HETATM   21  C15 UNL     1      -5.576  52.044 164.238  1.00  0.00     0.015 A 
HETATM   22  C16 UNL     1      -4.385  51.441 164.565  1.00  0.00     0.009 A 
HETATM   23  C17 UNL     1      -3.107  51.962 164.661  1.00  0.00     0.081 A 
ENDROOT
TORSDOF 0
ENDMDL
MODEL 4
REMARK VINA RESULT: -8.871039384      1.033      1.171
REMARK  0 active torsions:
REMARK  status: ('A' for Active; 'I' for Inactive)
ROOT
HETATM    1  O1  UNL     1      -1.847  48.951 165.971  1.00  0.00    -0.259 OA
HETATM    2  C1  UNL     1      -2.186  49.991 165.369  1.00  0.00     0.302 A 
HETATM    3  O2  UNL     1      -3.468  50.245 165.108  1.00  0.00    -0.271 OA
HETATM    4  C2  UNL     1      -3.774  51.351 164.474  1.00  0.00     0.121 A 
HETATM    5  C3  UNL     1      -4.993  51.880 164.070  1.00  0.00     0.027 A 
HETATM    6  C4  UNL     1      -6.258  51.359 164.234  1.00  0.00     0.017 A 
HETATM    7  C5  UNL     1      -7.367  52.054 163.749  1.00  0.00     0.001 A 
HETATM    8  C6  UNL     1      -7.116  53.249 163.119  1.00  0.00     0.002 A 
HETATM    9  C7  UNL     1      -5.861  53.776 162.949  1.00  0.00     0.030 A 
HETATM   10  C8  UNL     1      -4.757  53.080 163.435  1.00  0.00     0.045 A 
HETATM   11  N1  UNL     1      -3.434  53.302 163.439  1.00  0.00    -0.351 N 
ATOM     12  H1  UNL     1      -2.963  54.114 163.040  1.00  0.00     0.166 HD
HETATM   13  C9  UNL     1      -2.835  52.272 164.060  1.00  0.00     0.096 A 
HETATM   14  C10 UNL     1      -1.512  52.031 164.317  1.00  0.00     0.080 A 
HETATM   15  N2  UNL     1      -0.384  52.710 164.052  1.00  0.00    -0.353 N 
ATOM     16  H2  UNL     1      -0.347  53.606 163.566  1.00  0.00     0.166 HD
HETATM   17  C11 UNL     1       0.695  52.045 164.518  1.00  0.00     0.044 A 
HETATM   18  C12 UNL     1       2.046  52.327 164.493  1.00  0.00     0.030 A 
HETATM   19  C13 UNL     1       2.916  51.426 165.068  1.00  0.00     0.002 A 
HETATM   20  C14 UNL     1       2.425  50.274 165.652  1.00  0.00     0.001 A 
HETATM   21  C15 UNL     1       1.066  50.003 165.671  1.00  0.00     0.015 A 
HETATM   22  C16 UNL     1       0.192  50.897 165.100  1.00  0.00     0.009 A 
HETATM   23  C17 UNL     1      -1.187  50.863 164.987  1.00  0.00     0.081 A 
ENDROOT
TORSDOF 0
ENDMDL
MODEL 5
REMARK VINA RESULT: -8.759667788      2.191      6.456
REMARK  0 active torsions:
REMARK  status: ('A' for Active; 'I' for Inactive)
ROOT
HETATM    1  O1  UNL     1      -5.847  51.893 165.370  1.00  0.00    -0.259 OA
HETATM    2  C1  UNL     1      -4.714  51.843 164.847  1.00  0.00     0.302 A 
HETATM    3  O2  UNL     1      -3.722  51.164 165.422  1.00  0.00    -0.271 OA
HETATM    4  C2  UNL     1      -2.551  51.141 164.834  1.00  0.00     0.121 A 
HETATM    5  C3  UNL     1      -1.352  50.533 165.182  1.00  0.00     0.027 A 
HETATM    6  C4  UNL     1      -1.063  49.760 166.286  1.00  0.00     0.017 A 
HETATM    7  C5  UNL     1       0.220  49.235 166.453  1.00  0.00     0.001 A 
HETATM    8  C6  UNL     1       1.139  49.533 165.477  1.00  0.00     0.002 A 
HETATM    9  C7  UNL     1       0.862  50.302 164.374  1.00  0.00     0.030 A 
HETATM   10  C8  UNL     1      -0.419  50.823 164.210  1.00  0.00     0.045 A 
HETATM   11  N1  UNL     1      -1.010  51.589 163.280  1.00  0.00    -0.351 N 
ATOM     12  H1  UNL     1      -0.564  51.958 162.440  1.00  0.00     0.166 HD
HETATM   13  C9  UNL     1      -2.287  51.785 163.644  1.00  0.00     0.096 A 
HETATM   14  C10 UNL     1      -3.292  52.489 163.035  1.00  0.00     0.080 A 
HETATM   15  N2  UNL     1      -3.357  53.206 161.901  1.00  0.00    -0.353 N 
ATOM     16  H2  UNL     1      -2.578  53.346 161.258  1.00  0.00     0.166 HD
HETATM   17  C11 UNL     1      -4.595  53.718 161.730  1.00  0.00     0.044 A 
HETATM   18  C12 UNL     1      -5.149  54.507 160.742  1.00  0.00     0.030 A 
HETATM   19  C13 UNL     1      -6.473  54.872 160.857  1.00  0.00     0.002 A 
HETATM   20  C14 UNL     1      -7.211  54.445 161.945  1.00  0.00     0.001 A 
HETATM   21  C15 UNL     1      -6.642  53.653 162.930  1.00  0.00     0.015 A 
HETATM   22  C16 UNL     1      -5.322  53.285 162.823  1.00  0.00     0.009 A 
HETATM   23  C17 UNL     1      -4.530  52.514 163.655  1.00  0.00     0.081 A 
ENDROOT
TORSDOF 0
ENDMDL
