MODEL 1
REMARK VINA RESULT: -8.847048013      0.000      0.000
REMARK  2 active torsions:
REMARK  status: ('A' for Active; 'I' for Inactive)
REMARK    1  A    between atoms: C2_5  and  C3_6 
REMARK    2  A    between atoms: C8_11  and  C9_12 
ROOT
HETATM    1  O1  UNL     1      -5.612  54.426 164.233  1.00  0.00    -0.238 OA
HETATM    2  C1  UNL     1      -4.670  53.674 164.596  1.00  0.00     0.370 A 
HETATM    3  N1  UNL     1      -4.800  52.553 165.330  1.00  0.00    -0.299 N 
ATOM      4  H1  UNL     1      -5.669  52.160 165.692  1.00  0.00     0.171 HD
HETATM    5  C2  UNL     1      -3.568  52.054 165.495  1.00  0.00     0.084 A 
HETATM    6  C9  UNL     1      -0.821  51.469 165.523  1.00  0.00     0.017 A 
HETATM    7  C10 UNL     1       0.543  51.440 165.370  1.00  0.00     0.004 A 
HETATM    8  C11 UNL     1       1.542  50.606 165.778  1.00  0.00     0.014 A 
HETATM    9  C12 UNL     1       2.885  50.843 165.457  1.00  0.00     0.001 A 
HETATM   10  C13 UNL     1       3.200  51.952 164.707  1.00  0.00     0.002 A 
HETATM   11  C14 UNL     1       2.190  52.775 164.307  1.00  0.00     0.030 A 
HETATM   12  C15 UNL     1       0.865  52.565 164.609  1.00  0.00     0.043 A 
HETATM   13  N2  UNL     1      -0.270  53.232 164.324  1.00  0.00    -0.352 N 
ATOM     14  H2  UNL     1      -0.323  54.093 163.779  1.00  0.00     0.166 HD
HETATM   15  C16 UNL     1      -1.318  52.596 164.863  1.00  0.00     0.081 A 
HETATM   16  C17 UNL     1      -2.667  52.870 164.858  1.00  0.00     0.136 A 
HETATM   17  O2  UNL     1      -3.399  53.843 164.327  1.00  0.00    -0.257 OA
ENDROOT
BRANCH   5  18
HETATM   18  C3  UNL     1      -3.066  50.932 166.150  1.00  0.00     0.005 A 
HETATM   19  C4  UNL     1      -3.169  49.745 165.456  1.00  0.00     0.014 A 
HETATM   20  C5  UNL     1      -2.705  48.581 166.013  1.00  0.00     0.001 A 
HETATM   21  C6  UNL     1      -2.151  48.658 167.257  1.00  0.00     0.001 A 
HETATM   22  C7  UNL     1      -2.032  49.843 167.984  1.00  0.00     0.013 A 
HETATM   23  C8  UNL     1      -2.496  51.008 167.428  1.00  0.00    -0.010 A 
ENDBRANCH   5  18
TORSDOF 2
ENDMDL
MODEL 2
REMARK VINA RESULT: -8.799338007      2.631      3.922
REMARK  2 active torsions:
REMARK  status: ('A' for Active; 'I' for Inactive)
REMARK    1  A    between atoms: C2_5  and  C3_6 
REMARK    2  A    between atoms: C8_11  and  C9_12 
ROOT
HETATM    1  O1  UNL     1      -6.583  48.569 166.061  1.00  0.00    -0.238 OA
HETATM    2  C1  UNL     1      -5.626  49.245 165.602  1.00  0.00     0.370 A 
HETATM    3  N1  UNL     1      -5.730  50.243 164.705  1.00  0.00    -0.299 N 
ATOM      4  H1  UNL     1      -6.589  50.587 164.275  1.00  0.00     0.171 HD
HETATM    5  C2  UNL     1      -4.489  50.696 164.484  1.00  0.00     0.084 A 
HETATM    6  C9  UNL     1      -1.734  51.234 164.406  1.00  0.00     0.017 A 
HETATM    7  C10 UNL     1      -0.372  51.270 164.573  1.00  0.00     0.004 A 
HETATM    8  C11 UNL     1       0.645  52.019 164.057  1.00  0.00     0.014 A 
HETATM    9  C12 UNL     1       1.980  51.817 164.429  1.00  0.00     0.001 A 
HETATM   10  C13 UNL     1       2.269  50.830 165.344  1.00  0.00     0.002 A 
HETATM   11  C14 UNL     1       1.243  50.091 165.849  1.00  0.00     0.030 A 
HETATM   12  C15 UNL     1      -0.076  50.269 165.500  1.00  0.00     0.043 A 
HETATM   13  N2  UNL     1      -1.224  49.667 165.867  1.00  0.00    -0.352 N 
ATOM     14  H2  UNL     1      -1.296  48.900 166.535  1.00  0.00     0.166 HD
HETATM   15  C16 UNL     1      -2.256  50.227 165.222  1.00  0.00     0.081 A 
HETATM   16  C17 UNL     1      -3.608  49.974 165.250  1.00  0.00     0.136 A 
HETATM   17  O2  UNL     1      -4.361  49.102 165.912  1.00  0.00    -0.257 OA
ENDROOT
BRANCH   5  18
HETATM   18  C3  UNL     1      -3.963  51.699 163.673  1.00  0.00     0.005 A 
HETATM   19  C4  UNL     1      -3.697  51.330 162.372  1.00  0.00     0.014 A 
HETATM   20  C5  UNL     1      -3.177  52.244 161.491  1.00  0.00     0.001 A 
HETATM   21  C6  UNL     1      -2.944  53.504 161.960  1.00  0.00     0.001 A 
HETATM   22  C7  UNL     1      -3.203  53.908 163.269  1.00  0.00     0.013 A 
HETATM   23  C8  UNL     1      -3.724  52.994 164.151  1.00  0.00    -0.010 A 
ENDBRANCH   5  18
TORSDOF 2
ENDMDL
MODEL 3
REMARK VINA RESULT: -8.764725965      2.622      4.057
REMARK  2 active torsions:
REMARK  status: ('A' for Active; 'I' for Inactive)
REMARK    1  A    between atoms: C2_5  and  C3_6 
REMARK    2  A    between atoms: C8_11  and  C9_12 
ROOT
HETATM    1  O1  UNL     1      -6.578  48.532 166.051  1.00  0.00    -0.238 OA
HETATM    2  C1  UNL     1      -5.620  49.201 165.585  1.00  0.00     0.370 A 
HETATM    3  N1  UNL     1      -5.719  50.171 164.656  1.00  0.00    -0.299 N 
ATOM      4  H1  UNL     1      -6.574  50.495 164.204  1.00  0.00     0.171 HD
HETATM    5  C2  UNL     1      -4.479  50.627 164.439  1.00  0.00     0.084 A 
HETATM    6  C9  UNL     1      -1.727  51.185 164.384  1.00  0.00     0.017 A 
HETATM    7  C10 UNL     1      -0.368  51.237 164.568  1.00  0.00     0.004 A 
HETATM    8  C11 UNL     1       0.650  51.978 164.044  1.00  0.00     0.014 A 
HETATM    9  C12 UNL     1       1.982  51.799 164.441  1.00  0.00     0.001 A 
HETATM   10  C13 UNL     1       2.266  50.843 165.389  1.00  0.00     0.002 A 
HETATM   11  C14 UNL     1       1.238  50.111 165.902  1.00  0.00     0.030 A 
HETATM   12  C15 UNL     1      -0.077  50.267 165.530  1.00  0.00     0.043 A 
HETATM   13  N2  UNL     1      -1.226  49.668 165.898  1.00  0.00    -0.352 N 
ATOM     14  H2  UNL     1      -1.302  48.921 166.588  1.00  0.00     0.166 HD
HETATM   15  C16 UNL     1      -2.253  50.199 165.223  1.00  0.00     0.081 A 
HETATM   16  C17 UNL     1      -3.603  49.936 165.239  1.00  0.00     0.136 A 
HETATM   17  O2  UNL     1      -4.359  49.079 165.916  1.00  0.00    -0.257 OA
ENDROOT
BRANCH   5  18
HETATM   18  C3  UNL     1      -3.949  51.609 163.605  1.00  0.00     0.005 A 
HETATM   19  C4  UNL     1      -3.885  52.875 164.148  1.00  0.00     0.014 A 
HETATM   20  C5  UNL     1      -3.379  53.914 163.409  1.00  0.00     0.001 A 
HETATM   21  C6  UNL     1      -2.955  53.635 162.143  1.00  0.00     0.001 A 
HETATM   22  C7  UNL     1      -3.006  52.366 161.566  1.00  0.00     0.013 A 
HETATM   23  C8  UNL     1      -3.512  51.326 162.304  1.00  0.00    -0.010 A 
ENDBRANCH   5  18
TORSDOF 2
ENDMDL
MODEL 4
REMARK VINA RESULT: -8.694332708      1.653      2.244
REMARK  2 active torsions:
REMARK  status: ('A' for Active; 'I' for Inactive)
REMARK    1  A    between atoms: C2_5  and  C3_6 
REMARK    2  A    between atoms: C8_11  and  C9_12 
ROOT
HETATM    1  O1  UNL     1      -6.818  54.442 162.584  1.00  0.00    -0.238 OA
HETATM    2  C1  UNL     1      -5.955  53.653 163.050  1.00  0.00     0.370 A 
HETATM    3  N1  UNL     1      -6.175  52.376 163.414  1.00  0.00    -0.299 N 
ATOM      4  H1  UNL     1      -7.061  51.874 163.365  1.00  0.00     0.171 HD
HETATM    5  C2  UNL     1      -5.006  51.892 163.854  1.00  0.00     0.084 A 
HETATM    6  C9  UNL     1      -2.356  51.412 164.649  1.00  0.00     0.017 A 
HETATM    7  C10 UNL     1      -1.018  51.469 164.953  1.00  0.00     0.004 A 
HETATM    8  C11 UNL     1      -0.105  50.591 165.460  1.00  0.00     0.014 A 
HETATM    9  C12 UNL     1       1.234  50.948 165.666  1.00  0.00     0.001 A 
HETATM   10  C13 UNL     1       1.635  52.224 165.346  1.00  0.00     0.002 A 
HETATM   11  C14 UNL     1       0.711  53.089 164.840  1.00  0.00     0.030 A 
HETATM   12  C15 UNL     1      -0.609  52.764 164.629  1.00  0.00     0.043 A 
HETATM   13  N2  UNL     1      -1.669  53.444 164.151  1.00  0.00    -0.352 N 
ATOM     14  H2  UNL     1      -1.650  54.414 163.838  1.00  0.00     0.166 HD
HETATM   15  C16 UNL     1      -2.751  52.655 164.147  1.00  0.00     0.081 A 
HETATM   16  C17 UNL     1      -4.053  52.876 163.762  1.00  0.00     0.136 A 
HETATM   17  O2  UNL     1      -4.692  53.929 163.264  1.00  0.00    -0.257 OA
ENDROOT
BRANCH   5  18
HETATM   18  C3  UNL     1      -4.606  50.656 164.354  1.00  0.00     0.005 A 
HETATM   19  C4  UNL     1      -4.795  50.475 165.708  1.00  0.00     0.014 A 
HETATM   20  C5  UNL     1      -4.434  49.292 166.300  1.00  0.00     0.001 A 
HETATM   21  C6  UNL     1      -3.893  48.329 165.499  1.00  0.00     0.001 A 
HETATM   22  C7  UNL     1      -3.691  48.481 164.128  1.00  0.00     0.013 A 
HETATM   23  C8  UNL     1      -4.051  49.664 163.534  1.00  0.00    -0.010 A 
ENDBRANCH   5  18
TORSDOF 2
ENDMDL
MODEL 5
REMARK VINA RESULT: -8.651285096      0.100      1.064
REMARK  2 active torsions:
REMARK  status: ('A' for Active; 'I' for Inactive)
REMARK    1  A    between atoms: C2_5  and  C3_6 
REMARK    2  A    between atoms: C8_11  and  C9_12 
ROOT
HETATM    1  O1  UNL     1      -5.629  54.410 164.209  1.00  0.00    -0.238 OA
HETATM    2  C1  UNL     1      -4.688  53.652 164.560  1.00  0.00     0.370 A 
HETATM    3  N1  UNL     1      -4.821  52.506 165.255  1.00  0.00    -0.299 N 
ATOM      4  H1  UNL     1      -5.693  52.097 165.592  1.00  0.00     0.171 HD
HETATM    5  C2  UNL     1      -3.589  52.009 165.421  1.00  0.00     0.084 A 
HETATM    6  C9  UNL     1      -0.840  51.438 165.468  1.00  0.00     0.017 A 
HETATM    7  C10 UNL     1       0.526  51.421 165.333  1.00  0.00     0.004 A 
HETATM    8  C11 UNL     1       1.525  50.580 165.728  1.00  0.00     0.014 A 
HETATM    9  C12 UNL     1       2.871  50.834 165.434  1.00  0.00     0.001 A 
HETATM   10  C13 UNL     1       3.190  51.970 164.725  1.00  0.00     0.002 A 
HETATM   11  C14 UNL     1       2.181  52.800 164.339  1.00  0.00     0.030 A 
HETATM   12  C15 UNL     1       0.852  52.573 164.615  1.00  0.00     0.043 A 
HETATM   13  N2  UNL     1      -0.282  53.243 164.336  1.00  0.00    -0.352 N 
ATOM     14  H2  UNL     1      -0.333  54.120 163.819  1.00  0.00     0.166 HD
HETATM   15  C16 UNL     1      -1.334  52.584 164.839  1.00  0.00     0.081 A 
HETATM   16  C17 UNL     1      -2.684  52.851 164.824  1.00  0.00     0.136 A 
HETATM   17  O2  UNL     1      -3.414  53.837 164.315  1.00  0.00    -0.257 OA
ENDROOT
BRANCH   5  18
HETATM   18  C3  UNL     1      -3.090  50.868 166.046  1.00  0.00     0.005 A 
HETATM   19  C4  UNL     1      -2.616  51.054 167.327  1.00  0.00     0.014 A 
HETATM   20  C5  UNL     1      -2.103  49.994 168.030  1.00  0.00     0.001 A 
HETATM   21  C6  UNL     1      -2.088  48.779 167.411  1.00  0.00     0.001 A 
HETATM   22  C7  UNL     1      -2.560  48.559 166.117  1.00  0.00     0.013 A 
HETATM   23  C8  UNL     1      -3.073  49.618 165.412  1.00  0.00    -0.010 A 
ENDBRANCH   5  18
TORSDOF 2
ENDMDL
