MODEL 1
REMARK VINA RESULT: -8.355527551      0.000      0.000
REMARK  1 active torsions:
REMARK  status: ('A' for Active; 'I' for Inactive)
REMARK    1  A    between atoms: C5_7  and  N2_8 
ROOT
HETATM    1  C1  UNL     1      -1.348  49.218 165.263  1.00  0.00     0.050 C 
HETATM    2  C2  UNL     1      -1.502  50.644 165.004  1.00  0.00    -0.029 A 
HETATM    3  C3  UNL     1      -2.743  51.192 164.653  1.00  0.00    -0.018 A 
HETATM    4  C4  UNL     1      -2.813  52.547 164.383  1.00  0.00     0.026 A 
HETATM    5  N1  UNL     1      -1.696  53.332 164.460  1.00  0.00    -0.344 N 
ATOM      6  H1  UNL     1      -1.777  54.329 164.256  1.00  0.00     0.167 HD
HETATM    7  C5  UNL     1      -0.498  52.833 164.796  1.00  0.00     0.120 A 
HETATM    8  C6  UNL     1      -0.389  51.494 165.068  1.00  0.00     0.094 A 
HETATM    9  C7  UNL     1       0.863  50.899 165.434  1.00  0.00     0.104 C 
HETATM   10  N3  UNL     1       1.887  50.429 165.716  1.00  0.00    -0.191 NA
HETATM   11  C8  UNL     1      -4.051  53.252 163.961  1.00  0.00    -0.004 C 
HETATM   12  C9  UNL     1      -4.506  54.313 164.897  1.00  0.00     0.021 C 
HETATM   13  C10 UNL     1      -3.650  53.983 162.664  1.00  0.00     0.021 C 
HETATM   14  C11 UNL     1      -5.103  52.261 163.667  1.00  0.00     0.024 C 
HETATM   15  C12 UNL     1      -5.171  51.123 164.640  1.00  0.00    -0.035 C 
HETATM   16  C13 UNL     1      -6.367  50.280 164.170  1.00  0.00     0.016 C 
HETATM   17  C14 UNL     1      -5.543  51.574 166.026  1.00  0.00     0.016 C 
HETATM   18  C15 UNL     1      -3.897  50.264 164.613  1.00  0.00    -0.011 C 
HETATM   19  C16 UNL     1      -4.032  49.382 165.836  1.00  0.00     0.021 C 
HETATM   20  C17 UNL     1      -3.981  49.457 163.341  1.00  0.00     0.021 C 
ENDROOT
BRANCH   7  21
HETATM   21  N2  UNL     1       0.563  53.579 164.870  1.00  0.00    -0.384 N 
ATOM     22  H22 UNL     1       0.521  54.446 165.406  1.00  0.00     0.157 HD
ATOM     23  H21 UNL     1       1.437  53.324 164.410  1.00  0.00     0.157 HD
ENDBRANCH   7  21
TORSDOF 1
ENDMDL
MODEL 2
REMARK VINA RESULT: -8.046369949      1.383      1.845
REMARK  1 active torsions:
REMARK  status: ('A' for Active; 'I' for Inactive)
REMARK    1  A    between atoms: C5_7  and  N2_8 
ROOT
HETATM    1  C1  UNL     1       0.737  49.588 166.181  1.00  0.00     0.050 C 
HETATM    2  C2  UNL     1       0.268  50.851 165.623  1.00  0.00    -0.029 A 
HETATM    3  C3  UNL     1      -1.077  51.043 165.280  1.00  0.00    -0.018 A 
HETATM    4  C4  UNL     1      -1.449  52.252 164.721  1.00  0.00     0.026 A 
HETATM    5  N1  UNL     1      -0.523  53.237 164.510  1.00  0.00    -0.344 N 
ATOM      6  H1  UNL     1      -0.826  54.119 164.095  1.00  0.00     0.167 HD
HETATM    7  C5  UNL     1       0.769  53.080 164.831  1.00  0.00     0.120 A 
HETATM    8  C6  UNL     1       1.175  51.894 165.386  1.00  0.00     0.094 A 
HETATM    9  C7  UNL     1       2.542  51.662 165.752  1.00  0.00     0.104 C 
HETATM   10  N3  UNL     1       3.655  51.485 166.032  1.00  0.00    -0.191 NA
HETATM   11  C8  UNL     1      -2.828  52.577 164.273  1.00  0.00    -0.004 C 
HETATM   12  C9  UNL     1      -3.454  53.721 164.987  1.00  0.00     0.021 C 
HETATM   13  C10 UNL     1      -2.656  53.039 162.813  1.00  0.00     0.021 C 
HETATM   14  C11 UNL     1      -3.655  51.357 164.314  1.00  0.00     0.024 C 
HETATM   15  C12 UNL     1      -3.431  50.496 165.520  1.00  0.00    -0.035 C 
HETATM   16  C13 UNL     1      -4.439  49.347 165.370  1.00  0.00     0.016 C 
HETATM   17  C14 UNL     1      -3.823  51.185 166.798  1.00  0.00     0.016 C 
HETATM   18  C15 UNL     1      -2.005  49.925 165.563  1.00  0.00    -0.011 C 
HETATM   19  C16 UNL     1      -1.890  49.353 166.960  1.00  0.00     0.021 C 
HETATM   20  C17 UNL     1      -1.976  48.835 164.520  1.00  0.00     0.021 C 
ENDROOT
BRANCH   7  21
HETATM   21  N2  UNL     1       1.647  54.015 164.632  1.00  0.00    -0.384 N 
ATOM     22  H22 UNL     1       1.439  54.755 163.962  1.00  0.00     0.157 HD
ATOM     23  H21 UNL     1       2.540  54.033 165.126  1.00  0.00     0.157 HD
ENDBRANCH   7  21
TORSDOF 1
ENDMDL
MODEL 3
REMARK VINA RESULT: -7.819456898      1.773      3.140
REMARK  1 active torsions:
REMARK  status: ('A' for Active; 'I' for Inactive)
REMARK    1  A    between atoms: C5_7  and  N2_8 
ROOT
HETATM    1  C1  UNL     1      -0.219  51.417 163.417  1.00  0.00     0.050 C 
HETATM    2  C2  UNL     1      -1.169  51.091 164.474  1.00  0.00    -0.029 A 
HETATM    3  C3  UNL     1      -2.508  51.500 164.403  1.00  0.00    -0.018 A 
HETATM    4  C4  UNL     1      -3.349  51.191 165.457  1.00  0.00     0.026 A 
HETATM    5  N1  UNL     1      -2.883  50.500 166.541  1.00  0.00    -0.344 N 
ATOM      6  H1  UNL     1      -3.526  50.286 167.304  1.00  0.00     0.167 HD
HETATM    7  C5  UNL     1      -1.608  50.095 166.633  1.00  0.00     0.120 A 
HETATM    8  C6  UNL     1      -0.745  50.385 165.608  1.00  0.00     0.094 A 
HETATM    9  C7  UNL     1       0.631  49.981 165.645  1.00  0.00     0.104 C 
HETATM   10  N3  UNL     1       1.745  49.657 165.695  1.00  0.00    -0.191 NA
HETATM   11  C8  UNL     1      -4.776  51.595 165.533  1.00  0.00    -0.004 C 
HETATM   12  C9  UNL     1      -5.736  50.461 165.589  1.00  0.00     0.021 C 
HETATM   13  C10 UNL     1      -4.897  52.313 166.892  1.00  0.00     0.021 C 
HETATM   14  C11 UNL     1      -5.075  52.542 164.443  1.00  0.00     0.024 C 
HETATM   15  C12 UNL     1      -4.456  52.186 163.126  1.00  0.00    -0.035 C 
HETATM   16  C13 UNL     1      -4.962  53.264 162.154  1.00  0.00     0.016 C 
HETATM   17  C14 UNL     1      -4.988  50.893 162.572  1.00  0.00     0.016 C 
HETATM   18  C15 UNL     1      -2.921  52.227 163.181  1.00  0.00    -0.011 C 
HETATM   19  C16 UNL     1      -2.498  51.566 161.886  1.00  0.00     0.021 C 
HETATM   20  C17 UNL     1      -2.557  53.691 163.195  1.00  0.00     0.021 C 
ENDROOT
BRANCH   7  21
HETATM   21  N2  UNL     1      -1.166  49.439 167.662  1.00  0.00    -0.384 N 
ATOM     22  H22 UNL     1      -1.048  49.929 168.549  1.00  0.00     0.157 HD
ATOM     23  H21 UNL     1      -0.931  48.447 167.611  1.00  0.00     0.157 HD
ENDBRANCH   7  21
TORSDOF 1
ENDMDL
MODEL 4
REMARK VINA RESULT: -7.813652162      1.859      4.712
REMARK  1 active torsions:
REMARK  status: ('A' for Active; 'I' for Inactive)
REMARK    1  A    between atoms: C5_7  and  N2_8 
ROOT
HETATM    1  C1  UNL     1      -5.563  51.792 165.357  1.00  0.00     0.050 C 
HETATM    2  C2  UNL     1      -4.353  52.224 164.667  1.00  0.00    -0.029 A 
HETATM    3  C3  UNL     1      -3.086  51.781 165.070  1.00  0.00    -0.018 A 
HETATM    4  C4  UNL     1      -1.976  52.258 164.397  1.00  0.00     0.026 A 
HETATM    5  N1  UNL     1      -2.115  53.140 163.360  1.00  0.00    -0.344 N 
ATOM      6  H1  UNL     1      -1.278  53.475 162.882  1.00  0.00     0.167 HD
HETATM    7  C5  UNL     1      -3.315  53.577 162.954  1.00  0.00     0.120 A 
HETATM    8  C6  UNL     1      -4.438  53.127 163.599  1.00  0.00     0.094 A 
HETATM    9  C7  UNL     1      -5.751  53.557 163.213  1.00  0.00     0.104 C 
HETATM   10  N3  UNL     1      -6.807  53.923 162.896  1.00  0.00    -0.191 NA
HETATM   11  C8  UNL     1      -0.575  51.906 164.742  1.00  0.00    -0.004 C 
HETATM   12  C9  UNL     1       0.168  51.204 163.662  1.00  0.00     0.021 C 
HETATM   13  C10 UNL     1       0.128  53.266 164.916  1.00  0.00     0.021 C 
HETATM   14  C11 UNL     1      -0.556  51.169 166.019  1.00  0.00     0.024 C 
HETATM   15  C12 UNL     1      -1.652  50.158 166.168  1.00  0.00    -0.035 C 
HETATM   16  C13 UNL     1      -1.380  49.487 167.523  1.00  0.00     0.016 C 
HETATM   17  C14 UNL     1      -1.546  49.045 165.162  1.00  0.00     0.016 C 
HETATM   18  C15 UNL     1      -3.041  50.813 166.190  1.00  0.00    -0.011 C 
HETATM   19  C16 UNL     1      -3.992  49.644 166.046  1.00  0.00     0.021 C 
HETATM   20  C17 UNL     1      -3.163  51.455 167.550  1.00  0.00     0.021 C 
ENDROOT
BRANCH   7  21
HETATM   21  N2  UNL     1      -3.447  54.413 161.969  1.00  0.00    -0.384 N 
ATOM     22  H22 UNL     1      -4.305  54.398 161.419  1.00  0.00     0.157 HD
ATOM     23  H21 UNL     1      -2.718  55.086 161.728  1.00  0.00     0.157 HD
ENDBRANCH   7  21
TORSDOF 1
ENDMDL
MODEL 5
REMARK VINA RESULT: -7.790983539      1.750      3.581
REMARK  1 active torsions:
REMARK  status: ('A' for Active; 'I' for Inactive)
REMARK    1  A    between atoms: C5_7  and  N2_8 
ROOT
HETATM    1  C1  UNL     1       0.285  52.328 163.801  1.00  0.00     0.050 C 
HETATM    2  C2  UNL     1      -0.491  51.258 164.416  1.00  0.00    -0.029 A 
HETATM    3  C3  UNL     1      -1.873  51.148 164.210  1.00  0.00    -0.018 A 
HETATM    4  C4  UNL     1      -2.557  50.133 164.853  1.00  0.00     0.026 A 
HETATM    5  N1  UNL     1      -1.898  49.256 165.670  1.00  0.00    -0.344 N 
ATOM      6  H1  UNL     1      -2.428  48.517 166.132  1.00  0.00     0.167 HD
HETATM    7  C5  UNL     1      -0.577  49.338 165.883  1.00  0.00     0.120 A 
HETATM    8  C6  UNL     1       0.134  50.333 165.263  1.00  0.00     0.094 A 
HETATM    9  C7  UNL     1       1.550  50.475 165.449  1.00  0.00     0.104 C 
HETATM   10  N3  UNL     1       2.693  50.584 165.619  1.00  0.00    -0.191 NA
HETATM   11  C8  UNL     1      -4.025  49.924 164.758  1.00  0.00    -0.004 C 
HETATM   12  C9  UNL     1      -4.424  48.619 164.166  1.00  0.00     0.021 C 
HETATM   13  C10 UNL     1      -4.500  49.880 166.223  1.00  0.00     0.021 C 
HETATM   14  C11 UNL     1      -4.640  51.074 164.070  1.00  0.00     0.024 C 
HETATM   15  C12 UNL     1      -3.866  51.575 162.889  1.00  0.00    -0.035 C 
HETATM   16  C13 UNL     1      -4.729  52.708 162.311  1.00  0.00     0.016 C 
HETATM   17  C14 UNL     1      -3.780  50.558 161.785  1.00  0.00     0.016 C 
HETATM   18  C15 UNL     1      -2.493  52.134 163.294  1.00  0.00    -0.011 C 
HETATM   19  C16 UNL     1      -1.770  52.304 161.975  1.00  0.00     0.021 C 
HETATM   20  C17 UNL     1      -2.775  53.467 163.942  1.00  0.00     0.021 C 
ENDROOT
BRANCH   7  21
HETATM   21  N2  UNL     1       0.050  48.505 166.657  1.00  0.00    -0.384 N 
ATOM     22  H22 UNL     1      -0.104  47.504 166.534  1.00  0.00     0.157 HD
ATOM     23  H21 UNL     1       0.691  48.820 167.385  1.00  0.00     0.157 HD
ENDBRANCH   7  21
TORSDOF 1
ENDMDL
