MODEL 1
REMARK VINA RESULT: -8.493372065      0.000      0.000
REMARK  4 active torsions:
REMARK  status: ('A' for Active; 'I' for Inactive)
REMARK    1  A    between atoms: C2_2  and  C3_3 
REMARK    2  A    between atoms: C3_3  and  C5_5 
REMARK       I    between atoms: C5_5  and  N1_7 
REMARK    3  A    between atoms: N2_11  and  C9_12 
REMARK    4  A    between atoms: C9_12  and  C10_13 
REMARK       I    between atoms: C10_13  and  N3_15 
ROOT
HETATM    1  C10 UNL     1      26.455   8.085  19.003  1.00  0.00     0.237 C 
HETATM    2  O2  UNL     1      26.525   7.064  19.726  1.00  0.00    -0.272 OA
HETATM    3  N3  UNL     1      27.640   8.532  18.369  1.00  0.00    -0.341 N 
HETATM    4  C11 UNL     1      27.535   9.712  17.536  1.00  0.00     0.137 C 
HETATM    5  C12 UNL     1      28.802  10.519  17.748  1.00  0.00     0.057 C 
HETATM    6  C13 UNL     1      28.782  11.746  16.938  1.00  0.00    -0.030 A 
HETATM    7  C14 UNL     1      28.167  12.989  17.231  1.00  0.00     0.009 A 
HETATM    8  C15 UNL     1      28.218  14.046  16.364  1.00  0.00     0.001 A 
HETATM    9  C16 UNL     1      28.889  13.898  15.163  1.00  0.00     0.002 A 
HETATM   10  C17 UNL     1      29.505  12.700  14.836  1.00  0.00     0.024 A 
HETATM   11  C18 UNL     1      29.434  11.661  15.731  1.00  0.00     0.066 A 
HETATM   12  S1  UNL     1      30.106  10.044  15.662  1.00  0.00     0.181 S 
HETATM   13  O3  UNL     1      31.513  10.037  15.186  1.00  0.00    -0.222 OA
HETATM   14  O4  UNL     1      29.207   9.152  14.904  1.00  0.00    -0.222 OA
HETATM   15  C19 UNL     1      30.027   9.759  17.442  1.00  0.00     0.126 C 
HETATM   16  C20 UNL     1      30.020   8.320  17.775  1.00  0.00     0.051 C 
HETATM   17  C21 UNL     1      28.875   7.824  18.567  1.00  0.00     0.029 C 
HETATM   18  C22 UNL     1      29.221   7.899  20.041  1.00  0.00     0.038 C 
HETATM   19  C23 UNL     1      28.619   6.346  18.256  1.00  0.00     0.038 C 
ENDROOT
BRANCH   1  20
HETATM   20  C9  UNL     1      25.163   8.761  18.847  1.00  0.00     0.220 C 
BRANCH  20  21
HETATM   21  N2  UNL     1      24.365   8.337  17.756  1.00  0.00    -0.400 N 
HETATM   22  C8  UNL     1      23.143   7.675  18.066  1.00  0.00     0.142 C 
HETATM   23  C6  UNL     1      22.679   6.897  16.849  1.00  0.00     0.101 C 
HETATM   24  N1  UNL     1      22.773   7.662  15.642  1.00  0.00    -0.340 N 
HETATM   25  C7  UNL     1      23.428   5.586  16.764  1.00  0.00     0.034 C 
HETATM   26  C5  UNL     1      21.731   7.628  14.678  1.00  0.00     0.224 C 
HETATM   27  C25 UNL     1      23.927   8.485  15.405  1.00  0.00     0.101 C 
HETATM   28  O1  UNL     1      20.725   6.908  14.946  1.00  0.00    -0.273 OA
HETATM   29  C24 UNL     1      24.180   9.276  16.700  1.00  0.00     0.142 C 
HETATM   30  C26 UNL     1      25.156   7.719  14.999  1.00  0.00     0.034 C 
BRANCH  26  31
HETATM   31  C3  UNL     1      21.734   8.360  13.398  1.00  0.00     0.074 C 
HETATM   32  C4  UNL     1      22.289   7.508  12.266  1.00  0.00     0.020 C 
BRANCH  31  33
HETATM   33  C2  UNL     1      20.307   8.762  13.058  1.00  0.00     0.009 C 
HETATM   34  C1  UNL     1      19.943   8.381  11.646  1.00  0.00     0.006 C 
ENDBRANCH  31  33
ENDBRANCH  26  31
ENDBRANCH  20  21
ENDBRANCH   1  20
TORSDOF 4
ENDMDL
MODEL 2
REMARK VINA RESULT: -8.309489325      1.210      1.465
REMARK  4 active torsions:
REMARK  status: ('A' for Active; 'I' for Inactive)
REMARK    1  A    between atoms: C2_2  and  C3_3 
REMARK    2  A    between atoms: C3_3  and  C5_5 
REMARK       I    between atoms: C5_5  and  N1_7 
REMARK    3  A    between atoms: N2_11  and  C9_12 
REMARK    4  A    between atoms: C9_12  and  C10_13 
REMARK       I    between atoms: C10_13  and  N3_15 
ROOT
HETATM    1  C10 UNL     1      25.395   8.341  18.011  1.00  0.00     0.237 C 
HETATM    2  O2  UNL     1      25.265   7.331  18.740  1.00  0.00    -0.272 OA
HETATM    3  N3  UNL     1      26.689   8.900  17.875  1.00  0.00    -0.341 N 
HETATM    4  C11 UNL     1      26.817  10.065  17.025  1.00  0.00     0.137 C 
HETATM    5  C12 UNL     1      27.821  10.989  17.686  1.00  0.00     0.057 C 
HETATM    6  C13 UNL     1      28.013  12.210  16.888  1.00  0.00    -0.030 A 
HETATM    7  C14 UNL     1      27.226  13.388  16.872  1.00  0.00     0.009 A 
HETATM    8  C15 UNL     1      27.519  14.447  16.056  1.00  0.00     0.001 A 
HETATM    9  C16 UNL     1      28.619  14.364  15.220  1.00  0.00     0.002 A 
HETATM   10  C17 UNL     1      29.417  13.231  15.203  1.00  0.00     0.024 A 
HETATM   11  C18 UNL     1      29.092  12.188  16.037  1.00  0.00     0.066 A 
HETATM   12  S1  UNL     1      29.877  10.644  16.295  1.00  0.00     0.181 S 
HETATM   13  O3  UNL     1      31.352  10.771  16.408  1.00  0.00    -0.222 OA
HETATM   14  O4  UNL     1      29.431   9.671  15.279  1.00  0.00    -0.222 OA
HETATM   15  C19 UNL     1      29.131  10.351  17.912  1.00  0.00     0.126 C 
HETATM   16  C20 UNL     1      29.120   8.917  18.267  1.00  0.00     0.051 C 
HETATM   17  C21 UNL     1      27.805   8.314  18.567  1.00  0.00     0.029 C 
HETATM   18  C22 UNL     1      27.536   8.420  20.054  1.00  0.00     0.038 C 
HETATM   19  C23 UNL     1      27.823   6.818  18.235  1.00  0.00     0.038 C 
ENDROOT
BRANCH   1  20
HETATM   20  C9  UNL     1      24.215   8.891  17.337  1.00  0.00     0.220 C 
BRANCH  20  21
HETATM   21  N2  UNL     1      23.732   8.157  16.226  1.00  0.00    -0.400 N 
HETATM   22  C8  UNL     1      22.666   7.242  16.466  1.00  0.00     0.142 C 
HETATM   23  C6  UNL     1      22.609   6.240  15.329  1.00  0.00     0.101 C 
HETATM   24  N1  UNL     1      22.719   6.863  14.044  1.00  0.00    -0.340 N 
HETATM   25  C7  UNL     1      23.650   5.164  15.543  1.00  0.00     0.034 C 
HETATM   26  C5  UNL     1      21.890   6.455  12.966  1.00  0.00     0.224 C 
HETATM   27  C25 UNL     1      23.669   7.922  13.843  1.00  0.00     0.101 C 
HETATM   28  O1  UNL     1      21.053   5.536  13.203  1.00  0.00    -0.273 OA
HETATM   29  C24 UNL     1      23.509   8.892  15.026  1.00  0.00     0.142 C 
HETATM   30  C26 UNL     1      25.094   7.456  13.723  1.00  0.00     0.034 C 
BRANCH  26  31
HETATM   31  C3  UNL     1      21.933   7.015  11.603  1.00  0.00     0.074 C 
HETATM   32  C4  UNL     1      22.167   5.932  10.559  1.00  0.00     0.020 C 
BRANCH  31  33
HETATM   33  C2  UNL     1      20.608   7.701  11.311  1.00  0.00     0.009 C 
HETATM   34  C1  UNL     1      20.241   8.685  12.392  1.00  0.00     0.006 C 
ENDBRANCH  31  33
ENDBRANCH  26  31
ENDBRANCH  20  21
ENDBRANCH   1  20
TORSDOF 4
ENDMDL
MODEL 3
REMARK VINA RESULT: -8.022878161      2.447      7.929
REMARK  4 active torsions:
REMARK  status: ('A' for Active; 'I' for Inactive)
REMARK    1  A    between atoms: C2_2  and  C3_3 
REMARK    2  A    between atoms: C3_3  and  C5_5 
REMARK       I    between atoms: C5_5  and  N1_7 
REMARK    3  A    between atoms: N2_11  and  C9_12 
REMARK    4  A    between atoms: C9_12  and  C10_13 
REMARK       I    between atoms: C10_13  and  N3_15 
ROOT
HETATM    1  C10 UNL     1      25.070   6.948  17.201  1.00  0.00     0.237 C 
HETATM    2  O2  UNL     1      24.945   6.905  18.447  1.00  0.00    -0.272 OA
HETATM    3  N3  UNL     1      23.895   6.877  16.413  1.00  0.00    -0.341 N 
HETATM    4  C11 UNL     1      24.062   6.931  14.976  1.00  0.00     0.137 C 
HETATM    5  C12 UNL     1      23.054   5.972  14.375  1.00  0.00     0.057 C 
HETATM    6  C13 UNL     1      23.154   5.958  12.908  1.00  0.00    -0.030 A 
HETATM    7  C14 UNL     1      24.052   5.227  12.090  1.00  0.00     0.009 A 
HETATM    8  C15 UNL     1      24.040   5.331  10.726  1.00  0.00     0.001 A 
HETATM    9  C16 UNL     1      23.123   6.175  10.125  1.00  0.00     0.002 A 
HETATM   10  C17 UNL     1      22.226   6.909  10.886  1.00  0.00     0.024 A 
HETATM   11  C18 UNL     1      22.267   6.779  12.253  1.00  0.00     0.066 A 
HETATM   12  S1  UNL     1      21.285   7.517  13.502  1.00  0.00     0.181 S 
HETATM   13  O3  UNL     1      19.839   7.504  13.165  1.00  0.00    -0.222 OA
HETATM   14  O4  UNL     1      21.814   8.853  13.842  1.00  0.00    -0.222 OA
HETATM   15  C19 UNL     1      21.665   6.280  14.760  1.00  0.00     0.126 C 
HETATM   16  C20 UNL     1      21.451   6.795  16.128  1.00  0.00     0.051 C 
HETATM   17  C21 UNL     1      22.609   6.755  17.044  1.00  0.00     0.029 C 
HETATM   18  C22 UNL     1      22.592   5.447  17.811  1.00  0.00     0.038 C 
HETATM   19  C23 UNL     1      22.495   7.871  18.088  1.00  0.00     0.038 C 
ENDROOT
BRANCH   1  20
HETATM   20  C9  UNL     1      26.411   7.070  16.623  1.00  0.00     0.220 C 
BRANCH  20  21
HETATM   21  N2  UNL     1      27.007   8.354  16.693  1.00  0.00    -0.400 N 
HETATM   22  C8  UNL     1      28.430   8.410  16.663  1.00  0.00     0.142 C 
HETATM   23  C6  UNL     1      28.883   9.750  17.212  1.00  0.00     0.101 C 
HETATM   24  N1  UNL     1      28.128  10.844  16.679  1.00  0.00    -0.340 N 
HETATM   25  C7  UNL     1      28.865   9.714  18.724  1.00  0.00     0.034 C 
HETATM   26  C5  UNL     1      28.773  12.046  16.282  1.00  0.00     0.224 C 
HETATM   27  C25 UNL     1      26.704  10.725  16.531  1.00  0.00     0.101 C 
HETATM   28  O1  UNL     1      30.031  12.090  16.409  1.00  0.00    -0.273 OA
HETATM   29  C24 UNL     1      26.440   9.364  15.864  1.00  0.00     0.142 C 
HETATM   30  C26 UNL     1      25.940  10.843  17.821  1.00  0.00     0.034 C 
BRANCH  26  31
HETATM   31  C3  UNL     1      28.091  13.235  15.740  1.00  0.00     0.074 C 
HETATM   32  C4  UNL     1      27.895  14.303  16.806  1.00  0.00     0.020 C 
BRANCH  31  33
HETATM   33  C2  UNL     1      28.933  13.813  14.613  1.00  0.00     0.009 C 
HETATM   34  C1  UNL     1      28.292  15.037  14.010  1.00  0.00     0.006 C 
ENDBRANCH  31  33
ENDBRANCH  26  31
ENDBRANCH  20  21
ENDBRANCH   1  20
TORSDOF 4
ENDMDL
MODEL 4
REMARK VINA RESULT: -7.973696300      3.007      8.022
REMARK  4 active torsions:
REMARK  status: ('A' for Active; 'I' for Inactive)
REMARK    1  A    between atoms: C2_2  and  C3_3 
REMARK    2  A    between atoms: C3_3  and  C5_5 
REMARK       I    between atoms: C5_5  and  N1_7 
REMARK    3  A    between atoms: N2_11  and  C9_12 
REMARK    4  A    between atoms: C9_12  and  C10_13 
REMARK       I    between atoms: C10_13  and  N3_15 
ROOT
HETATM    1  C10 UNL     1      26.537   7.267  14.725  1.00  0.00     0.237 C 
HETATM    2  O2  UNL     1      26.962   7.279  13.547  1.00  0.00    -0.272 OA
HETATM    3  N3  UNL     1      25.188   6.894  14.941  1.00  0.00    -0.341 N 
HETATM    4  C11 UNL     1      24.718   6.883  16.311  1.00  0.00     0.137 C 
HETATM    5  C12 UNL     1      23.293   7.400  16.295  1.00  0.00     0.057 C 
HETATM    6  C13 UNL     1      22.731   7.429  17.654  1.00  0.00    -0.030 A 
HETATM    7  C14 UNL     1      22.880   8.425  18.651  1.00  0.00     0.009 A 
HETATM    8  C15 UNL     1      22.309   8.304  19.889  1.00  0.00     0.001 A 
HETATM    9  C16 UNL     1      21.562   7.175  20.176  1.00  0.00     0.002 A 
HETATM   10  C17 UNL     1      21.391   6.176  19.231  1.00  0.00     0.024 A 
HETATM   11  C18 UNL     1      21.979   6.331  17.999  1.00  0.00     0.066 A 
HETATM   12  S1  UNL     1      21.950   5.304  16.580  1.00  0.00     0.181 S 
HETATM   13  O3  UNL     1      20.590   4.784  16.286  1.00  0.00    -0.222 OA
HETATM   14  O4  UNL     1      22.986   4.258  16.689  1.00  0.00    -0.222 OA
HETATM   15  C19 UNL     1      22.403   6.612  15.423  1.00  0.00     0.126 C 
HETATM   16  C20 UNL     1      22.994   6.075  14.180  1.00  0.00     0.051 C 
HETATM   17  C21 UNL     1      24.348   6.548  13.826  1.00  0.00     0.029 C 
HETATM   18  C22 UNL     1      24.232   7.769  12.937  1.00  0.00     0.038 C 
HETATM   19  C23 UNL     1      25.081   5.482  13.005  1.00  0.00     0.038 C 
ENDROOT
BRANCH   1  20
HETATM   20  C9  UNL     1      27.446   7.635  15.815  1.00  0.00     0.220 C 
BRANCH  20  21
HETATM   21  N2  UNL     1      27.865   8.988  15.849  1.00  0.00    -0.400 N 
HETATM   22  C8  UNL     1      28.987   9.339  15.044  1.00  0.00     0.142 C 
HETATM   23  C6  UNL     1      29.570  10.644  15.551  1.00  0.00     0.101 C 
HETATM   24  N1  UNL     1      28.563  11.628  15.814  1.00  0.00    -0.340 N 
HETATM   25  C7  UNL     1      30.449  10.378  16.752  1.00  0.00     0.034 C 
HETATM   26  C5  UNL     1      28.753  12.982  15.430  1.00  0.00     0.224 C 
HETATM   27  C25 UNL     1      27.340  11.243  16.463  1.00  0.00     0.101 C 
HETATM   28  O1  UNL     1      29.836  13.264  14.840  1.00  0.00    -0.273 OA
HETATM   29  C24 UNL     1      26.841   9.974  15.752  1.00  0.00     0.142 C 
HETATM   30  C26 UNL     1      27.477  11.006  17.942  1.00  0.00     0.034 C 
BRANCH  26  31
HETATM   31  C3  UNL     1      27.792  14.075  15.669  1.00  0.00     0.074 C 
HETATM   32  C4  UNL     1      28.024  14.740  17.017  1.00  0.00     0.020 C 
BRANCH  31  33
HETATM   33  C2  UNL     1      27.950  15.116  14.572  1.00  0.00     0.009 C 
HETATM   34  C1  UNL     1      26.856  16.152  14.627  1.00  0.00     0.006 C 
ENDBRANCH  31  33
ENDBRANCH  26  31
ENDBRANCH  20  21
ENDBRANCH   1  20
TORSDOF 4
ENDMDL
MODEL 5
REMARK VINA RESULT: -7.966472310      4.493      9.613
REMARK  4 active torsions:
REMARK  status: ('A' for Active; 'I' for Inactive)
REMARK    1  A    between atoms: C2_2  and  C3_3 
REMARK    2  A    between atoms: C3_3  and  C5_5 
REMARK       I    between atoms: C5_5  and  N1_7 
REMARK    3  A    between atoms: N2_11  and  C9_12 
REMARK    4  A    between atoms: C9_12  and  C10_13 
REMARK       I    between atoms: C10_13  and  N3_15 
ROOT
HETATM    1  C10 UNL     1      30.913   8.013  15.963  1.00  0.00     0.237 C 
HETATM    2  O2  UNL     1      30.891   6.760  15.973  1.00  0.00    -0.272 OA
HETATM    3  N3  UNL     1      29.743   8.701  16.366  1.00  0.00    -0.341 N 
HETATM    4  C11 UNL     1      29.792  10.149  16.349  1.00  0.00     0.137 C 
HETATM    5  C12 UNL     1      28.437  10.633  15.872  1.00  0.00     0.057 C 
HETATM    6  C13 UNL     1      28.395  12.102  15.820  1.00  0.00    -0.030 A 
HETATM    7  C14 UNL     1      28.854  12.963  14.792  1.00  0.00     0.009 A 
HETATM    8  C15 UNL     1      28.765  14.325  14.892  1.00  0.00     0.001 A 
HETATM    9  C16 UNL     1      28.210  14.879  16.032  1.00  0.00     0.002 A 
HETATM   10  C17 UNL     1      27.748  14.075  17.062  1.00  0.00     0.024 A 
HETATM   11  C18 UNL     1      27.854  12.711  16.926  1.00  0.00     0.066 A 
HETATM   12  S1  UNL     1      27.359  11.415  17.995  1.00  0.00     0.181 S 
HETATM   13  O3  UNL     1      26.003  11.633  18.559  1.00  0.00    -0.222 OA
HETATM   14  O4  UNL     1      28.402  11.165  19.008  1.00  0.00    -0.222 OA
HETATM   15  C19 UNL     1      27.324  10.149  16.708  1.00  0.00     0.126 C 
HETATM   16  C20 UNL     1      27.453   8.787  17.265  1.00  0.00     0.051 C 
HETATM   17  C21 UNL     1      28.575   7.965  16.766  1.00  0.00     0.029 C 
HETATM   18  C22 UNL     1      28.106   7.155  15.574  1.00  0.00     0.038 C 
HETATM   19  C23 UNL     1      29.005   6.956  17.835  1.00  0.00     0.038 C 
ENDROOT
BRANCH   1  20
HETATM   20  C9  UNL     1      32.137   8.701  15.539  1.00  0.00     0.220 C 
BRANCH  20  21
HETATM   21  N2  UNL     1      33.280   8.499  16.352  1.00  0.00    -0.400 N 
HETATM   22  C8  UNL     1      34.201   9.580  16.455  1.00  0.00     0.142 C 
HETATM   23  C6  UNL     1      35.536   9.047  16.940  1.00  0.00     0.101 C 
HETATM   24  N1  UNL     1      35.396   8.141  18.040  1.00  0.00    -0.340 N 
HETATM   25  C7  UNL     1      36.296   8.441  15.781  1.00  0.00     0.034 C 
HETATM   26  C5  UNL     1      36.280   8.205  19.150  1.00  0.00     0.224 C 
HETATM   27  C25 UNL     1      34.346   7.161  18.030  1.00  0.00     0.101 C 
HETATM   28  O1  UNL     1      37.172   9.102  19.121  1.00  0.00    -0.273 OA
HETATM   29  C24 UNL     1      33.057   7.898  17.625  1.00  0.00     0.142 C 
HETATM   30  C26 UNL     1      34.602   5.993  17.117  1.00  0.00     0.034 C 
BRANCH  26  31
HETATM   31  C3  UNL     1      36.237   7.312  20.322  1.00  0.00     0.074 C 
HETATM   32  C4  UNL     1      37.106   6.079  20.119  1.00  0.00     0.020 C 
BRANCH  31  33
HETATM   33  C2  UNL     1      36.737   8.073  21.539  1.00  0.00     0.009 C 
HETATM   34  C1  UNL     1      37.480   7.172  22.492  1.00  0.00     0.006 C 
ENDBRANCH  31  33
ENDBRANCH  26  31
ENDBRANCH  20  21
ENDBRANCH   1  20
TORSDOF 4
ENDMDL
