MODEL 1
REMARK VINA RESULT: -6.766944915      0.000      0.000
REMARK  6 active torsions:
REMARK  status: ('A' for Active; 'I' for Inactive)
REMARK    1  A    between atoms: C7_7  and  C8_8 
REMARK       I    between atoms: C8_8  and  N1_10 
REMARK    2  A    between atoms: N1_10  and  C9_11 
REMARK    3  A    between atoms: N1_10  and  C14_19 
REMARK    4  A    between atoms: C9_11  and  C10_12 
REMARK       I    between atoms: N2_27  and  C21_28 
REMARK    5  A    between atoms: C21_28  and  O5_30 
REMARK    6  A    between atoms: O5_30  and  C22_31 
ROOT
HETATM    1  C8  UNL     1      29.467   9.007  16.089  1.00  0.00     0.258 C 
HETATM    2  O1  UNL     1      30.646   9.439  16.054  1.00  0.00    -0.267 OA
HETATM    3  N1  UNL     1      28.416   9.776  16.730  1.00  0.00    -0.322 N 
ENDROOT
BRANCH   3   4
HETATM    4  C9  UNL     1      28.804  11.008  17.294  1.00  0.00     0.073 C 
BRANCH   4   5
HETATM    5  C10 UNL     1      28.835  12.247  16.522  1.00  0.00     0.039 C 
HETATM    6  C11 UNL     1      28.727  12.268  15.063  1.00  0.00     0.026 C 
HETATM    7  C12 UNL     1      28.870  13.761  14.673  1.00  0.00     0.141 C 
HETATM    8  S1  UNL     1      27.921  14.527  15.961  1.00  0.00     0.145 S 
HETATM    9  O2  UNL     1      28.760  15.447  16.798  1.00  0.00    -0.228 OA
HETATM   10  O3  UNL     1      26.681  15.178  15.448  1.00  0.00    -0.228 OA
HETATM   11  C13 UNL     1      27.568  13.073  16.924  1.00  0.00     0.150 C 
ENDBRANCH   4   5
ENDBRANCH   3   4
BRANCH   3  12
HETATM   12  C14 UNL     1      27.136   9.182  16.823  1.00  0.00     0.096 C 
HETATM   13  C15 UNL     1      27.065   8.328  18.104  1.00  0.00     0.051 C 
HETATM   14  C16 UNL     1      25.674   7.756  18.265  1.00  0.00     0.094 C 
HETATM   15  C17 UNL     1      24.844   8.702  19.117  1.00  0.00     0.065 C 
HETATM   16  N2  UNL     1      24.941   7.771  17.016  1.00  0.00    -0.316 N 
HETATM   17  C18 UNL     1      23.982   9.508  18.149  1.00  0.00     0.195 C 
HETATM   18  F1  UNL     1      24.077  10.848  18.428  1.00  0.00    -0.247 F 
HETATM   19  C19 UNL     1      24.646   9.186  16.811  1.00  0.00     0.125 C 
HETATM   20  C20 UNL     1      25.921  10.008  16.679  1.00  0.00     0.054 C 
HETATM   21  C21 UNL     1      24.621   6.636  16.244  1.00  0.00     0.364 C 
HETATM   22  O4  UNL     1      24.990   5.509  16.648  1.00  0.00    -0.238 OA
BRANCH  21  23
HETATM   23  O5  UNL     1      23.918   6.684  15.058  1.00  0.00    -0.294 OA
BRANCH  23  24
HETATM   24  C22 UNL     1      22.529   6.867  14.944  1.00  0.00     0.061 C 
HETATM   25  C23 UNL     1      22.021   5.802  13.986  1.00  0.00     0.046 C 
HETATM   26  C24 UNL     1      21.770   6.729  16.220  1.00  0.00     0.046 C 
HETATM   27  C25 UNL     1      22.209   8.207  14.264  1.00  0.00     0.046 C 
ENDBRANCH  23  24
ENDBRANCH  21  23
ENDBRANCH   3  12
BRANCH   1  28
HETATM   28  C7  UNL     1      29.232   7.721  15.461  1.00  0.00     0.038 A 
HETATM   29  C5  UNL     1      29.633   6.563  16.089  1.00  0.00    -0.046 A 
HETATM   30  C4  UNL     1      29.442   5.316  15.562  1.00  0.00     0.008 A 
HETATM   31  C6  UNL     1      30.321   6.661  17.423  1.00  0.00     0.049 C 
HETATM   32  C3  UNL     1      28.822   5.175  14.351  1.00  0.00     0.007 A 
HETATM   33  C2  UNL     1      28.404   6.314  13.691  1.00  0.00    -0.061 A 
HETATM   34  C1  UNL     1      27.730   6.187  12.376  1.00  0.00     0.048 C 
HETATM   35  C26 UNL     1      28.608   7.576  14.242  1.00  0.00     0.024 A 
ENDBRANCH   1  28
TORSDOF 6
ENDMDL
MODEL 2
REMARK VINA RESULT: -6.728973473      2.670      4.661
REMARK  6 active torsions:
REMARK  status: ('A' for Active; 'I' for Inactive)
REMARK    1  A    between atoms: C7_7  and  C8_8 
REMARK       I    between atoms: C8_8  and  N1_10 
REMARK    2  A    between atoms: N1_10  and  C9_11 
REMARK    3  A    between atoms: N1_10  and  C14_19 
REMARK    4  A    between atoms: C9_11  and  C10_12 
REMARK       I    between atoms: N2_27  and  C21_28 
REMARK    5  A    between atoms: C21_28  and  O5_30 
REMARK    6  A    between atoms: O5_30  and  C22_31 
ROOT
HETATM    1  C8  UNL     1      25.136   7.692  14.545  1.00  0.00     0.258 C 
HETATM    2  O1  UNL     1      25.961   7.981  13.645  1.00  0.00    -0.267 OA
HETATM    3  N1  UNL     1      25.511   7.768  15.945  1.00  0.00    -0.322 N 
ENDROOT
BRANCH   3   4
HETATM    4  C9  UNL     1      26.832   8.179  16.212  1.00  0.00     0.073 C 
BRANCH   4   5
HETATM    5  C10 UNL     1      27.183   9.574  16.461  1.00  0.00     0.039 C 
HETATM    6  C11 UNL     1      26.179  10.600  16.744  1.00  0.00     0.026 C 
HETATM    7  C12 UNL     1      26.981  11.919  16.875  1.00  0.00     0.141 C 
HETATM    8  S1  UNL     1      28.404  11.348  17.769  1.00  0.00     0.145 S 
HETATM    9  O2  UNL     1      29.668  11.542  16.985  1.00  0.00    -0.228 OA
HETATM   10  O3  UNL     1      28.481  11.918  19.145  1.00  0.00    -0.228 OA
HETATM   11  C13 UNL     1      28.023   9.611  17.781  1.00  0.00     0.150 C 
ENDBRANCH   4   5
ENDBRANCH   3   4
BRANCH   3  12
HETATM   12  C14 UNL     1      24.564   7.329  16.900  1.00  0.00     0.096 C 
HETATM   13  C15 UNL     1      25.281   7.057  18.237  1.00  0.00     0.051 C 
HETATM   14  C16 UNL     1      24.269   6.672  19.294  1.00  0.00     0.094 C 
HETATM   15  C17 UNL     1      23.830   7.920  20.040  1.00  0.00     0.065 C 
HETATM   16  N2  UNL     1      23.022   6.230  18.706  1.00  0.00    -0.316 N 
HETATM   17  C18 UNL     1      22.482   8.323  19.448  1.00  0.00     0.195 C 
HETATM   18  F1  UNL     1      22.481   9.656  19.125  1.00  0.00    -0.247 F 
HETATM   19  C19 UNL     1      22.436   7.462  18.185  1.00  0.00     0.125 C 
HETATM   20  C20 UNL     1      23.321   8.095  17.120  1.00  0.00     0.054 C 
HETATM   21  C21 UNL     1      22.552   4.901  18.689  1.00  0.00     0.364 C 
HETATM   22  O4  UNL     1      23.253   4.008  19.220  1.00  0.00    -0.238 OA
BRANCH  21  23
HETATM   23  O5  UNL     1      21.356   4.513  18.122  1.00  0.00    -0.294 OA
BRANCH  23  24
HETATM   24  C22 UNL     1      21.201   3.483  17.180  1.00  0.00     0.061 C 
HETATM   25  C23 UNL     1      20.231   3.992  16.125  1.00  0.00     0.046 C 
HETATM   26  C24 UNL     1      22.454   3.074  16.483  1.00  0.00     0.046 C 
HETATM   27  C25 UNL     1      20.509   2.265  17.809  1.00  0.00     0.046 C 
ENDBRANCH  23  24
ENDBRANCH  21  23
ENDBRANCH   3  12
BRANCH   1  28
HETATM   28  C7  UNL     1      23.814   7.289  14.104  1.00  0.00     0.038 A 
HETATM   29  C5  UNL     1      23.518   5.953  13.946  1.00  0.00    -0.046 A 
HETATM   30  C4  UNL     1      22.295   5.496  13.539  1.00  0.00     0.008 A 
HETATM   31  C6  UNL     1      24.586   4.933  14.231  1.00  0.00     0.049 C 
HETATM   32  C3  UNL     1      21.291   6.385  13.267  1.00  0.00     0.007 A 
HETATM   33  C2  UNL     1      21.550   7.733  13.414  1.00  0.00    -0.061 A 
HETATM   34  C1  UNL     1      20.478   8.716  13.125  1.00  0.00     0.048 C 
HETATM   35  C26 UNL     1      22.801   8.181  13.829  1.00  0.00     0.024 A 
ENDBRANCH   1  28
TORSDOF 6
ENDMDL
MODEL 3
REMARK VINA RESULT: -6.614042409      3.190      4.946
REMARK  6 active torsions:
REMARK  status: ('A' for Active; 'I' for Inactive)
REMARK    1  A    between atoms: C7_7  and  C8_8 
REMARK       I    between atoms: C8_8  and  N1_10 
REMARK    2  A    between atoms: N1_10  and  C9_11 
REMARK    3  A    between atoms: N1_10  and  C14_19 
REMARK    4  A    between atoms: C9_11  and  C10_12 
REMARK       I    between atoms: N2_27  and  C21_28 
REMARK    5  A    between atoms: C21_28  and  O5_30 
REMARK    6  A    between atoms: O5_30  and  C22_31 
ROOT
HETATM    1  C8  UNL     1      29.708   6.881  16.232  1.00  0.00     0.258 C 
HETATM    2  O1  UNL     1      30.542   5.944  16.175  1.00  0.00    -0.267 OA
HETATM    3  N1  UNL     1      30.096   8.187  16.734  1.00  0.00    -0.322 N 
ENDROOT
BRANCH   3   4
HETATM    4  C9  UNL     1      31.439   8.322  17.139  1.00  0.00     0.073 C 
BRANCH   4   5
HETATM    5  C10 UNL     1      32.539   8.424  16.184  1.00  0.00     0.039 C 
HETATM    6  C11 UNL     1      32.431   9.182  14.938  1.00  0.00     0.026 C 
HETATM    7  C12 UNL     1      33.786   8.965  14.219  1.00  0.00     0.141 C 
HETATM    8  S1  UNL     1      34.903   9.063  15.594  1.00  0.00     0.145 S 
HETATM    9  O2  UNL     1      35.662   7.783  15.786  1.00  0.00    -0.228 OA
HETATM   10  O3  UNL     1      35.791  10.259  15.525  1.00  0.00    -0.228 OA
HETATM   11  C13 UNL     1      33.700   9.193  16.897  1.00  0.00     0.150 C 
ENDBRANCH   4   5
ENDBRANCH   3   4
BRANCH   3  12
HETATM   12  C14 UNL     1      29.081   9.162  16.868  1.00  0.00     0.096 C 
HETATM   13  C15 UNL     1      29.557  10.259  17.841  1.00  0.00     0.051 C 
HETATM   14  C16 UNL     1      28.519  11.356  17.927  1.00  0.00     0.094 C 
HETATM   15  C17 UNL     1      28.848  12.432  16.906  1.00  0.00     0.065 C 
HETATM   16  N2  UNL     1      27.223  10.904  17.468  1.00  0.00    -0.316 N 
HETATM   17  C18 UNL     1      27.928  12.187  15.713  1.00  0.00     0.195 C 
HETATM   18  F1  UNL     1      28.650  12.183  14.546  1.00  0.00    -0.247 F 
HETATM   19  C19 UNL     1      27.395  10.788  16.022  1.00  0.00     0.125 C 
HETATM   20  C20 UNL     1      28.463   9.761  15.669  1.00  0.00     0.054 C 
HETATM   21  C21 UNL     1      26.103  10.664  18.289  1.00  0.00     0.364 C 
HETATM   22  O4  UNL     1      26.211  10.849  19.524  1.00  0.00    -0.238 OA
BRANCH  21  23
HETATM   23  O5  UNL     1      24.879  10.236  17.819  1.00  0.00    -0.294 OA
BRANCH  23  24
HETATM   24  C22 UNL     1      24.294   8.989  18.095  1.00  0.00     0.061 C 
HETATM   25  C23 UNL     1      23.783   8.439  16.773  1.00  0.00     0.046 C 
HETATM   26  C24 UNL     1      25.220   7.977  18.680  1.00  0.00     0.046 C 
HETATM   27  C25 UNL     1      23.045   9.153  18.973  1.00  0.00     0.046 C 
ENDBRANCH  23  24
ENDBRANCH  21  23
ENDBRANCH   3  12
BRANCH   1  28
HETATM   28  C7  UNL     1      28.365   6.579  15.775  1.00  0.00     0.038 A 
HETATM   29  C5  UNL     1      27.465   5.980  16.627  1.00  0.00    -0.046 A 
HETATM   30  C4  UNL     1      26.182   5.670  16.271  1.00  0.00     0.008 A 
HETATM   31  C6  UNL     1      27.902   5.643  18.026  1.00  0.00     0.049 C 
HETATM   32  C3  UNL     1      25.737   5.956  15.009  1.00  0.00     0.007 A 
HETATM   33  C2  UNL     1      26.611   6.558  14.126  1.00  0.00    -0.061 A 
HETATM   34  C1  UNL     1      26.152   6.878  12.752  1.00  0.00     0.048 C 
HETATM   35  C26 UNL     1      27.915   6.866  14.506  1.00  0.00     0.024 A 
ENDBRANCH   1  28
TORSDOF 6
ENDMDL
MODEL 4
REMARK VINA RESULT: -6.604797037      3.283      6.556
REMARK  6 active torsions:
REMARK  status: ('A' for Active; 'I' for Inactive)
REMARK    1  A    between atoms: C7_7  and  C8_8 
REMARK       I    between atoms: C8_8  and  N1_10 
REMARK    2  A    between atoms: N1_10  and  C9_11 
REMARK    3  A    between atoms: N1_10  and  C14_19 
REMARK    4  A    between atoms: C9_11  and  C10_12 
REMARK       I    between atoms: N2_27  and  C21_28 
REMARK    5  A    between atoms: C21_28  and  O5_30 
REMARK    6  A    between atoms: O5_30  and  C22_31 
ROOT
HETATM    1  C8  UNL     1      27.270   7.911  15.279  1.00  0.00     0.258 C 
HETATM    2  O1  UNL     1      27.378   7.568  14.076  1.00  0.00    -0.267 OA
HETATM    3  N1  UNL     1      26.140   7.470  16.076  1.00  0.00    -0.322 N 
ENDROOT
BRANCH   3   4
HETATM    4  C9  UNL     1      25.200   6.651  15.421  1.00  0.00     0.073 C 
BRANCH   4   5
HETATM    5  C10 UNL     1      23.874   7.130  15.040  1.00  0.00     0.039 C 
HETATM    6  C11 UNL     1      23.669   8.129  13.992  1.00  0.00     0.026 C 
HETATM    7  C12 UNL     1      22.141   8.380  13.971  1.00  0.00     0.141 C 
HETATM    8  S1  UNL     1      21.536   6.726  14.191  1.00  0.00     0.145 S 
HETATM    9  O2  UNL     1      20.734   6.590  15.451  1.00  0.00    -0.228 OA
HETATM   10  O3  UNL     1      20.819   6.215  12.988  1.00  0.00    -0.228 OA
HETATM   11  C13 UNL     1      23.097   5.911  14.441  1.00  0.00     0.150 C 
ENDBRANCH   4   5
ENDBRANCH   3   4
BRANCH   3  12
HETATM   12  C14 UNL     1      26.030   7.980  17.391  1.00  0.00     0.096 C 
HETATM   13  C15 UNL     1      25.064   9.181  17.390  1.00  0.00     0.051 C 
HETATM   14  C16 UNL     1      24.866   9.683  18.803  1.00  0.00     0.094 C 
HETATM   15  C17 UNL     1      23.654   8.995  19.409  1.00  0.00     0.065 C 
HETATM   16  N2  UNL     1      25.925   9.237  19.684  1.00  0.00    -0.316 N 
HETATM   17  C18 UNL     1      24.194   7.875  20.295  1.00  0.00     0.195 C 
HETATM   18  F1  UNL     1      23.550   6.696  20.019  1.00  0.00    -0.247 F 
HETATM   19  C19 UNL     1      25.654   7.811  19.847  1.00  0.00     0.125 C 
HETATM   20  C20 UNL     1      25.734   7.072  18.517  1.00  0.00     0.054 C 
HETATM   21  C21 UNL     1      26.939  10.054  20.222  1.00  0.00     0.364 C 
HETATM   22  O4  UNL     1      26.948  11.273  19.929  1.00  0.00    -0.238 OA
BRANCH  21  23
HETATM   23  O5  UNL     1      27.933   9.598  21.061  1.00  0.00    -0.294 OA
BRANCH  23  24
HETATM   24  C22 UNL     1      28.055   9.918  22.424  1.00  0.00     0.061 C 
HETATM   25  C23 UNL     1      28.985   8.883  23.038  1.00  0.00     0.046 C 
HETATM   26  C24 UNL     1      28.628  11.265  22.705  1.00  0.00     0.046 C 
HETATM   27  C25 UNL     1      26.714   9.735  23.151  1.00  0.00     0.046 C 
ENDBRANCH  23  24
ENDBRANCH  21  23
ENDBRANCH   3  12
BRANCH   1  28
HETATM   28  C7  UNL     1      28.325   8.757  15.806  1.00  0.00     0.038 A 
HETATM   29  C5  UNL     1      29.421   8.191  16.417  1.00  0.00    -0.046 A 
HETATM   30  C4  UNL     1      30.455   8.922  16.933  1.00  0.00     0.008 A 
HETATM   31  C6  UNL     1      29.498   6.694  16.531  1.00  0.00     0.049 C 
HETATM   32  C3  UNL     1      30.432  10.287  16.855  1.00  0.00     0.007 A 
HETATM   33  C2  UNL     1      29.348  10.891  16.248  1.00  0.00    -0.061 A 
HETATM   34  C1  UNL     1      29.299  12.370  16.152  1.00  0.00     0.048 C 
HETATM   35  C26 UNL     1      28.303  10.132  15.729  1.00  0.00     0.024 A 
ENDBRANCH   1  28
TORSDOF 6
ENDMDL
MODEL 5
REMARK VINA RESULT: -6.596776944      3.518      5.644
REMARK  6 active torsions:
REMARK  status: ('A' for Active; 'I' for Inactive)
REMARK    1  A    between atoms: C7_7  and  C8_8 
REMARK       I    between atoms: C8_8  and  N1_10 
REMARK    2  A    between atoms: N1_10  and  C9_11 
REMARK    3  A    between atoms: N1_10  and  C14_19 
REMARK    4  A    between atoms: C9_11  and  C10_12 
REMARK       I    between atoms: N2_27  and  C21_28 
REMARK    5  A    between atoms: C21_28  and  O5_30 
REMARK    6  A    between atoms: O5_30  and  C22_31 
ROOT
HETATM    1  C8  UNL     1      29.889   7.131  17.106  1.00  0.00     0.258 C 
HETATM    2  O1  UNL     1      30.724   6.253  16.780  1.00  0.00    -0.267 OA
HETATM    3  N1  UNL     1      29.675   8.297  16.268  1.00  0.00    -0.322 N 
ENDROOT
BRANCH   3   4
HETATM    4  C9  UNL     1      30.452   8.368  15.094  1.00  0.00     0.073 C 
BRANCH   4   5
HETATM    5  C10 UNL     1      31.826   8.861  15.093  1.00  0.00     0.039 C 
HETATM    6  C11 UNL     1      32.664   8.859  16.292  1.00  0.00     0.026 C 
HETATM    7  C12 UNL     1      33.995   9.518  15.852  1.00  0.00     0.141 C 
HETATM    8  S1  UNL     1      34.197   8.801  14.242  1.00  0.00     0.145 S 
HETATM    9  O2  UNL     1      34.200   9.845  13.164  1.00  0.00    -0.228 OA
HETATM   10  O3  UNL     1      35.372   7.886  14.167  1.00  0.00    -0.228 OA
HETATM   11  C13 UNL     1      32.653   7.922  14.154  1.00  0.00     0.150 C 
ENDBRANCH   4   5
ENDBRANCH   3   4
BRANCH   3  12
HETATM   12  C14 UNL     1      28.796   9.295  16.748  1.00  0.00     0.096 C 
HETATM   13  C15 UNL     1      29.580  10.271  17.648  1.00  0.00     0.051 C 
HETATM   14  C16 UNL     1      28.674  11.395  18.099  1.00  0.00     0.094 C 
HETATM   15  C17 UNL     1      28.794  12.552  17.121  1.00  0.00     0.065 C 
HETATM   16  N2  UNL     1      27.276  11.044  17.964  1.00  0.00    -0.316 N 
HETATM   17  C18 UNL     1      27.580  12.463  16.199  1.00  0.00     0.195 C 
HETATM   18  F1  UNL     1      27.971  12.545  14.887  1.00  0.00    -0.247 F 
HETATM   19  C19 UNL     1      27.057  11.063  16.520  1.00  0.00     0.125 C 
HETATM   20  C20 UNL     1      27.926  10.033  15.811  1.00  0.00     0.054 C 
HETATM   21  C21 UNL     1      26.396  10.770  19.030  1.00  0.00     0.364 C 
HETATM   22  O4  UNL     1      26.835  10.827  20.203  1.00  0.00    -0.238 OA
BRANCH  21  23
HETATM   23  O5  UNL     1      25.067  10.440  18.868  1.00  0.00    -0.294 OA
BRANCH  23  24
HETATM   24  C22 UNL     1      24.546   9.135  18.888  1.00  0.00     0.061 C 
HETATM   25  C23 UNL     1      23.032   9.263  18.828  1.00  0.00     0.046 C 
HETATM   26  C24 UNL     1      24.973   8.270  17.751  1.00  0.00     0.046 C 
HETATM   27  C25 UNL     1      24.839   8.450  20.231  1.00  0.00     0.046 C 
ENDBRANCH  23  24
ENDBRANCH  21  23
ENDBRANCH   3  12
BRANCH   1  28
HETATM   28  C7  UNL     1      29.168   6.909  18.346  1.00  0.00     0.038 A 
HETATM   29  C5  UNL     1      28.010   6.164  18.346  1.00  0.00    -0.046 A 
HETATM   30  C4  UNL     1      27.280   5.908  19.473  1.00  0.00     0.008 A 
HETATM   31  C6  UNL     1      27.511   5.597  17.045  1.00  0.00     0.049 C 
HETATM   32  C3  UNL     1      27.692   6.403  20.680  1.00  0.00     0.007 A 
HETATM   33  C2  UNL     1      28.850   7.155  20.719  1.00  0.00    -0.061 A 
HETATM   34  C1  UNL     1      29.318   7.703  22.016  1.00  0.00     0.048 C 
HETATM   35  C26 UNL     1      29.581   7.406  19.562  1.00  0.00     0.024 A 
ENDBRANCH   1  28
TORSDOF 6
ENDMDL
