MODEL 1
REMARK VINA RESULT: -7.272140031      0.000      0.000
REMARK  4 active torsions:
REMARK  status: ('A' for Active; 'I' for Inactive)
REMARK    1  A    between atoms: O1_2  and  C2_3 
REMARK    2  A    between atoms: N1_8  and  O2_9 
REMARK    3  A    between atoms: N3_21  and  C17_22 
REMARK    4  A    between atoms: C17_22  and  C18_23 
ROOT
HETATM    1  C2  UNL     1      26.170   9.158  21.955  1.00  0.00     0.051 C 
HETATM    2  C3  UNL     1      25.253   8.648  22.758  1.00  0.00     0.033 C 
HETATM    3  C4  UNL     1      23.945   7.955  22.678  1.00  0.00     0.012 C 
HETATM    4  C5  UNL     1      23.221   7.458  21.671  1.00  0.00    -0.030 C 
HETATM    5  C6  UNL     1      22.096   6.965  22.467  1.00  0.00     0.160 C 
HETATM    6  N1  UNL     1      20.875   7.441  21.794  1.00  0.00    -0.193 NA
HETATM    7  C8  UNL     1      20.633   6.535  20.718  1.00  0.00     0.127 C 
HETATM    8  C9  UNL     1      21.055   7.030  19.364  1.00  0.00     0.075 C 
HETATM    9  C10 UNL     1      22.509   7.254  19.255  1.00  0.00     0.024 A 
HETATM   10  C11 UNL     1      23.498   7.436  20.212  1.00  0.00     0.002 A 
HETATM   11  C12 UNL     1      24.666   7.594  19.477  1.00  0.00    -0.022 A 
HETATM   12  C13 UNL     1      24.378   7.511  18.137  1.00  0.00     0.020 A 
HETATM   13  N2  UNL     1      23.059   7.301  18.004  1.00  0.00    -0.357 N 
HETATM   14  C14 UNL     1      22.376   7.157  16.726  1.00  0.00     0.156 C 
HETATM   15  C15 UNL     1      25.452   7.671  17.096  1.00  0.00     0.077 C 
HETATM   16  C16 UNL     1      25.909   9.128  17.071  1.00  0.00     0.132 C 
HETATM   17  N3  UNL     1      27.317   9.264  17.375  1.00  0.00    -0.347 N 
HETATM   18  C22 UNL     1      27.894   9.355  18.646  1.00  0.00     0.224 C 
HETATM   19  O4  UNL     1      29.047   8.809  18.782  1.00  0.00    -0.273 OA
HETATM   20  C23 UNL     1      27.273  10.033  19.846  1.00  0.00     0.084 C 
HETATM   21  C24 UNL     1      28.433  10.520  20.659  1.00  0.00     0.020 C 
HETATM   22  C25 UNL     1      26.232   9.234  20.481  1.00  0.00     0.059 C 
HETATM   23  C26 UNL     1      26.087   7.825  19.907  1.00  0.00     0.053 C 
ENDROOT
BRANCH  17  24
HETATM   24  C17 UNL     1      28.209   9.298  16.198  1.00  0.00     0.166 C 
BRANCH  24  25
HETATM   25  C18 UNL     1      28.627  10.728  16.054  1.00  0.00    -0.015 A 
HETATM   26  C19 UNL     1      29.907  11.249  16.182  1.00  0.00     0.152 A 
HETATM   27  O3  UNL     1      29.870  12.548  15.987  1.00  0.00    -0.315 OA
HETATM   28  C20 UNL     1      28.647  12.938  15.735  1.00  0.00     0.121 A 
HETATM   29 BR1  UNL     1      28.061  14.730  15.380  1.00  0.00    -0.023 Br
HETATM   30  C21 UNL     1      27.825  11.822  15.768  1.00  0.00     0.056 A 
ENDBRANCH  24  25
ENDBRANCH  17  24
BRANCH   1  31
HETATM   31  O1  UNL     1      27.205   9.686  22.682  1.00  0.00    -0.360 OA
HETATM   32  C1  UNL     1      27.090  10.107  23.994  1.00  0.00     0.209 C 
ENDBRANCH   1  31
BRANCH   6  33
HETATM   33  O2  UNL     1      19.873   7.434  22.689  1.00  0.00    -0.308 OA
HETATM   34  C7  UNL     1      20.325   7.537  23.998  1.00  0.00     0.229 C 
ENDBRANCH   6  33
TORSDOF 4
ENDMDL
MODEL 2
REMARK VINA RESULT: -7.200312835      1.338      1.709
REMARK  4 active torsions:
REMARK  status: ('A' for Active; 'I' for Inactive)
REMARK    1  A    between atoms: O1_2  and  C2_3 
REMARK    2  A    between atoms: N1_8  and  O2_9 
REMARK    3  A    between atoms: N3_21  and  C17_22 
REMARK    4  A    between atoms: C17_22  and  C18_23 
ROOT
HETATM    1  C2  UNL     1      26.301   9.138  21.250  1.00  0.00     0.051 C 
HETATM    2  C3  UNL     1      25.392   8.327  21.762  1.00  0.00     0.033 C 
HETATM    3  C4  UNL     1      24.234   7.512  21.323  1.00  0.00     0.012 C 
HETATM    4  C5  UNL     1      23.726   7.195  20.128  1.00  0.00    -0.030 C 
HETATM    5  C6  UNL     1      22.611   6.375  20.606  1.00  0.00     0.160 C 
HETATM    6  N1  UNL     1      21.416   6.841  19.880  1.00  0.00    -0.193 NA
HETATM    7  C8  UNL     1      21.455   6.212  18.600  1.00  0.00     0.127 C 
HETATM    8  C9  UNL     1      21.947   7.082  17.479  1.00  0.00     0.075 C 
HETATM    9  C10 UNL     1      23.347   7.514  17.651  1.00  0.00     0.024 A 
HETATM   10  C11 UNL     1      24.173   7.577  18.765  1.00  0.00     0.002 A 
HETATM   11  C12 UNL     1      25.377   8.065  18.276  1.00  0.00    -0.022 A 
HETATM   12  C13 UNL     1      25.267   8.285  16.925  1.00  0.00     0.020 A 
HETATM   13  N2  UNL     1      24.025   7.946  16.545  1.00  0.00    -0.357 N 
HETATM   14  C14 UNL     1      23.531   8.040  15.179  1.00  0.00     0.156 C 
HETATM   15  C15 UNL     1      26.415   8.841  16.128  1.00  0.00     0.077 C 
HETATM   16  C16 UNL     1      26.627  10.305  16.511  1.00  0.00     0.132 C 
HETATM   17  N3  UNL     1      27.947  10.542  17.052  1.00  0.00    -0.347 N 
HETATM   18  C22 UNL     1      28.348  10.384  18.384  1.00  0.00     0.224 C 
HETATM   19  O4  UNL     1      29.551   9.977  18.566  1.00  0.00    -0.273 OA
HETATM   20  C23 UNL     1      27.486  10.652  19.597  1.00  0.00     0.084 C 
HETATM   21  C24 UNL     1      28.447  11.066  20.669  1.00  0.00     0.020 C 
HETATM   22  C25 UNL     1      26.523   9.590  19.861  1.00  0.00     0.059 C 
HETATM   23  C26 UNL     1      26.680   8.365  18.962  1.00  0.00     0.053 C 
ENDROOT
BRANCH  17  24
HETATM   24  C17 UNL     1      28.955  10.987  16.067  1.00  0.00     0.166 C 
BRANCH  24  25
HETATM   25  C18 UNL     1      28.678  12.440  15.841  1.00  0.00    -0.015 A 
HETATM   26  C19 UNL     1      28.461  13.416  16.804  1.00  0.00     0.152 A 
HETATM   27  O3  UNL     1      28.251  14.572  16.214  1.00  0.00    -0.315 OA
HETATM   28  C20 UNL     1      28.311  14.438  14.914  1.00  0.00     0.121 A 
HETATM   29 BR1  UNL     1      28.076  15.821  13.604  1.00  0.00    -0.023 Br
HETATM   30  C21 UNL     1      28.578  13.108  14.630  1.00  0.00     0.056 A 
ENDBRANCH  24  25
ENDBRANCH  17  24
BRANCH   1  31
HETATM   31  O1  UNL     1      27.143   9.596  22.230  1.00  0.00    -0.360 OA
HETATM   32  C1  UNL     1      26.825   9.609  23.575  1.00  0.00     0.209 C 
ENDBRANCH   1  31
BRANCH   6  33
HETATM   33  O2  UNL     1      20.331   6.479  20.584  1.00  0.00    -0.308 OA
HETATM   34  C7  UNL     1      20.470   6.719  21.945  1.00  0.00     0.229 C 
ENDBRANCH   6  33
TORSDOF 4
ENDMDL
MODEL 3
REMARK VINA RESULT: -7.164505767      3.261      6.223
REMARK  4 active torsions:
REMARK  status: ('A' for Active; 'I' for Inactive)
REMARK    1  A    between atoms: O1_2  and  C2_3 
REMARK    2  A    between atoms: N1_8  and  O2_9 
REMARK    3  A    between atoms: N3_21  and  C17_22 
REMARK    4  A    between atoms: C17_22  and  C18_23 
ROOT
HETATM    1  C2  UNL     1      26.632   9.801  16.858  1.00  0.00     0.051 C 
HETATM    2  C3  UNL     1      25.956   9.703  15.727  1.00  0.00     0.033 C 
HETATM    3  C4  UNL     1      24.704   9.100  15.212  1.00  0.00     0.012 C 
HETATM    4  C5  UNL     1      23.669   8.481  15.789  1.00  0.00    -0.030 C 
HETATM    5  C6  UNL     1      22.900   8.217  14.571  1.00  0.00     0.160 C 
HETATM    6  N1  UNL     1      22.502   6.800  14.635  1.00  0.00    -0.193 NA
HETATM    7  C8  UNL     1      21.356   6.744  15.483  1.00  0.00     0.127 C 
HETATM    8  C9  UNL     1      21.628   6.285  16.888  1.00  0.00     0.075 C 
HETATM    9  C10 UNL     1      22.519   7.193  17.634  1.00  0.00     0.024 A 
HETATM   10  C11 UNL     1      23.415   8.169  17.218  1.00  0.00     0.002 A 
HETATM   11  C12 UNL     1      23.946   8.676  18.397  1.00  0.00    -0.022 A 
HETATM   12  C13 UNL     1      23.387   8.024  19.468  1.00  0.00     0.020 A 
HETATM   13  N2  UNL     1      22.513   7.119  18.999  1.00  0.00    -0.357 N 
HETATM   14  C14 UNL     1      21.720   6.232  19.838  1.00  0.00     0.156 C 
HETATM   15  C15 UNL     1      23.793   8.350  20.879  1.00  0.00     0.077 C 
HETATM   16  C16 UNL     1      25.218   7.852  21.116  1.00  0.00     0.132 C 
HETATM   17  N3  UNL     1      26.119   8.927  21.471  1.00  0.00    -0.347 N 
HETATM   18  C22 UNL     1      26.813   9.763  20.590  1.00  0.00     0.224 C 
HETATM   19  O4  UNL     1      26.981  10.975  20.977  1.00  0.00    -0.273 OA
HETATM   20  C23 UNL     1      27.367   9.355  19.244  1.00  0.00     0.084 C 
HETATM   21  C24 UNL     1      28.563  10.232  19.036  1.00  0.00     0.020 C 
HETATM   22  C25 UNL     1      26.346   9.268  18.207  1.00  0.00     0.059 C 
HETATM   23  C26 UNL     1      24.965   9.752  18.646  1.00  0.00     0.053 C 
ENDROOT
BRANCH  17  24
HETATM   24  C17 UNL     1      26.294   9.140  22.923  1.00  0.00     0.166 C 
BRANCH  24  25
HETATM   25  C18 UNL     1      27.727   8.813  23.204  1.00  0.00    -0.015 A 
HETATM   26  C19 UNL     1      28.681   9.638  23.784  1.00  0.00     0.152 A 
HETATM   27  O3  UNL     1      29.824   8.993  23.863  1.00  0.00    -0.315 OA
HETATM   28  C20 UNL     1      29.703   7.786  23.372  1.00  0.00     0.121 A 
HETATM   29 BR1  UNL     1      31.075   6.450  23.254  1.00  0.00    -0.023 Br
HETATM   30  C21 UNL     1      28.394   7.626  22.943  1.00  0.00     0.056 A 
ENDBRANCH  24  25
ENDBRANCH  17  24
BRANCH   1  31
HETATM   31  O1  UNL     1      27.777  10.531  16.672  1.00  0.00    -0.360 OA
HETATM   32  C1  UNL     1      27.898  11.554  15.750  1.00  0.00     0.209 C 
ENDBRANCH   1  31
BRANCH   6  33
HETATM   33  O2  UNL     1      22.221   6.388  13.387  1.00  0.00    -0.308 OA
HETATM   34  C7  UNL     1      22.125   7.440  12.485  1.00  0.00     0.229 C 
ENDBRANCH   6  33
TORSDOF 4
ENDMDL
MODEL 4
REMARK VINA RESULT: -7.035148326      3.687      6.490
REMARK  4 active torsions:
REMARK  status: ('A' for Active; 'I' for Inactive)
REMARK    1  A    between atoms: O1_2  and  C2_3 
REMARK    2  A    between atoms: N1_8  and  O2_9 
REMARK    3  A    between atoms: N3_21  and  C17_22 
REMARK    4  A    between atoms: C17_22  and  C18_23 
ROOT
HETATM    1  C2  UNL     1      24.742   7.747  17.266  1.00  0.00     0.051 C 
HETATM    2  C3  UNL     1      24.667   6.459  16.978  1.00  0.00     0.033 C 
HETATM    3  C4  UNL     1      25.454   5.412  16.286  1.00  0.00     0.012 C 
HETATM    4  C5  UNL     1      26.682   5.374  15.759  1.00  0.00    -0.030 C 
HETATM    5  C6  UNL     1      26.647   3.987  15.291  1.00  0.00     0.160 C 
HETATM    6  N1  UNL     1      27.131   4.009  13.900  1.00  0.00    -0.193 NA
HETATM    7  C8  UNL     1      28.555   4.048  13.972  1.00  0.00     0.127 C 
HETATM    8  C9  UNL     1      29.165   5.404  13.751  1.00  0.00     0.075 C 
HETATM    9  C10 UNL     1      28.778   6.388  14.779  1.00  0.00     0.024 A 
HETATM   10  C11 UNL     1      27.724   6.428  15.682  1.00  0.00     0.002 A 
HETATM   11  C12 UNL     1      27.912   7.613  16.381  1.00  0.00    -0.022 A 
HETATM   12  C13 UNL     1      29.032   8.251  15.908  1.00  0.00     0.020 A 
HETATM   13  N2  UNL     1      29.561   7.500  14.929  1.00  0.00    -0.357 N 
HETATM   14  C14 UNL     1      30.761   7.850  14.183  1.00  0.00     0.156 C 
HETATM   15  C15 UNL     1      29.468   9.579  16.464  1.00  0.00     0.077 C 
HETATM   16  C16 UNL     1      28.476  10.654  16.027  1.00  0.00     0.132 C 
HETATM   17  N3  UNL     1      27.845  11.306  17.154  1.00  0.00    -0.347 N 
HETATM   18  C22 UNL     1      26.706  10.873  17.842  1.00  0.00     0.224 C 
HETATM   19  O4  UNL     1      26.684  11.112  19.103  1.00  0.00    -0.273 OA
HETATM   20  C23 UNL     1      25.526  10.158  17.224  1.00  0.00     0.084 C 
HETATM   21  C24 UNL     1      24.352  10.551  18.068  1.00  0.00     0.020 C 
HETATM   22  C25 UNL     1      25.785   8.748  16.959  1.00  0.00     0.059 C 
HETATM   23  C26 UNL     1      27.125   8.246  17.494  1.00  0.00     0.053 C 
ENDROOT
BRANCH  17  24
HETATM   24  C17 UNL     1      28.503  12.550  17.604  1.00  0.00     0.166 C 
BRANCH  24  25
HETATM   25  C18 UNL     1      28.314  13.528  16.488  1.00  0.00    -0.015 A 
HETATM   26  C19 UNL     1      29.092  13.665  15.346  1.00  0.00     0.152 A 
HETATM   27  O3  UNL     1      28.609  14.636  14.603  1.00  0.00    -0.315 OA
HETATM   28  C20 UNL     1      27.554  15.163  15.170  1.00  0.00     0.121 A 
HETATM   29 BR1  UNL     1      26.485  16.606  14.493  1.00  0.00    -0.023 Br
HETATM   30  C21 UNL     1      27.329  14.496  16.364  1.00  0.00     0.056 A 
ENDBRANCH  24  25
ENDBRANCH  17  24
BRANCH   1  31
HETATM   31  O1  UNL     1      23.635   8.148  17.968  1.00  0.00    -0.360 OA
HETATM   32  C1  UNL     1      22.476   7.402  18.072  1.00  0.00     0.209 C 
ENDBRANCH   1  31
BRANCH   6  33
HETATM   33  O2  UNL     1      26.691   2.897  13.286  1.00  0.00    -0.308 OA
HETATM   34  C7  UNL     1      25.318   2.907  13.081  1.00  0.00     0.229 C 
ENDBRANCH   6  33
TORSDOF 4
ENDMDL
MODEL 5
REMARK VINA RESULT: -6.936432840      3.582      5.898
REMARK  4 active torsions:
REMARK  status: ('A' for Active; 'I' for Inactive)
REMARK    1  A    between atoms: O1_2  and  C2_3 
REMARK    2  A    between atoms: N1_8  and  O2_9 
REMARK    3  A    between atoms: N3_21  and  C17_22 
REMARK    4  A    between atoms: C17_22  and  C18_23 
ROOT
HETATM    1  C2  UNL     1      22.647   7.600  17.544  1.00  0.00     0.051 C 
HETATM    2  C3  UNL     1      21.731   6.809  17.014  1.00  0.00     0.033 C 
HETATM    3  C4  UNL     1      21.495   6.032  15.774  1.00  0.00     0.012 C 
HETATM    4  C5  UNL     1      22.245   5.744  14.705  1.00  0.00    -0.030 C 
HETATM    5  C6  UNL     1      21.250   4.950  13.981  1.00  0.00     0.160 C 
HETATM    6  N1  UNL     1      21.245   5.458  12.598  1.00  0.00    -0.193 NA
HETATM    7  C8  UNL     1      22.353   4.843  11.942  1.00  0.00     0.127 C 
HETATM    8  C9  UNL     1      23.570   5.713  11.800  1.00  0.00     0.075 C 
HETATM    9  C10 UNL     1      24.158   6.103  13.095  1.00  0.00     0.024 A 
HETATM   10  C11 UNL     1      23.642   6.129  14.384  1.00  0.00     0.002 A 
HETATM   11  C12 UNL     1      24.691   6.590  15.168  1.00  0.00    -0.022 A 
HETATM   12  C13 UNL     1      25.786   6.829  14.373  1.00  0.00     0.020 A 
HETATM   13  N2  UNL     1      25.458   6.529  13.106  1.00  0.00    -0.357 N 
HETATM   14  C14 UNL     1      26.363   6.653  11.973  1.00  0.00     0.156 C 
HETATM   15  C15 UNL     1      27.068   7.361  14.950  1.00  0.00     0.077 C 
HETATM   16  C16 UNL     1      26.860   8.814  15.375  1.00  0.00     0.132 C 
HETATM   17  N3  UNL     1      27.092   9.007  16.790  1.00  0.00    -0.347 N 
HETATM   18  C22 UNL     1      26.166   8.823  17.823  1.00  0.00     0.224 C 
HETATM   19  O4  UNL     1      26.639   8.380  18.931  1.00  0.00    -0.273 OA
HETATM   20  C23 UNL     1      24.683   9.100  17.733  1.00  0.00     0.084 C 
HETATM   21  C24 UNL     1      24.275   9.473  19.125  1.00  0.00     0.020 C 
HETATM   22  C25 UNL     1      23.949   8.062  17.019  1.00  0.00     0.059 C 
HETATM   23  C26 UNL     1      24.791   6.844  16.645  1.00  0.00     0.053 C 
ENDROOT
BRANCH  17  24
HETATM   24  C17 UNL     1      28.461   9.436  17.145  1.00  0.00     0.166 C 
BRANCH  24  25
HETATM   25  C18 UNL     1      28.406  10.930  17.213  1.00  0.00    -0.015 A 
HETATM   26  C19 UNL     1      28.481  11.725  18.348  1.00  0.00     0.152 A 
HETATM   27  O3  UNL     1      28.396  12.990  18.000  1.00  0.00    -0.315 OA
HETATM   28  C20 UNL     1      28.268  13.099  16.702  1.00  0.00     0.121 A 
HETATM   29 BR1  UNL     1      28.106  14.725  15.696  1.00  0.00    -0.023 Br
HETATM   30  C21 UNL     1      28.269  11.823  16.161  1.00  0.00     0.056 A 
ENDBRANCH  24  25
ENDBRANCH  17  24
BRANCH   1  31
HETATM   31  O1  UNL     1      22.255   8.023  18.788  1.00  0.00    -0.360 OA
HETATM   32  C1  UNL     1      21.552   7.238  19.683  1.00  0.00     0.209 C 
ENDBRANCH   1  31
BRANCH   6  33
HETATM   33  O2  UNL     1      20.075   5.118  12.032  1.00  0.00    -0.308 OA
HETATM   34  C7  UNL     1      19.683   6.006  11.039  1.00  0.00     0.229 C 
ENDBRANCH   6  33
TORSDOF 4
ENDMDL
