MODEL 1
REMARK VINA RESULT: -7.175660654      0.000      0.000
REMARK  4 active torsions:
REMARK  status: ('A' for Active; 'I' for Inactive)
REMARK    1  A    between atoms: C2_2  and  C4_4 
REMARK    2  A    between atoms: C4_4  and  C5_5 
REMARK    3  A    between atoms: C6_7  and  C7_8 
REMARK    4  A    between atoms: N3_12  and  O1_13 
ROOT
HETATM    1  C5  UNL     1      30.113  10.225  17.134  1.00  0.00     0.199 C 
HETATM    2  N1  UNL     1      28.950  10.039  17.903  1.00  0.00    -0.264 N 
HETATM    3  C6  UNL     1      28.752   8.884  18.586  1.00  0.00     0.118 C 
HETATM    4  S1  UNL     1      28.076  11.436  18.163  1.00  0.00     0.267 S 
HETATM    5  O2  UNL     1      26.581  11.239  18.237  1.00  0.00    -0.200 OA
HETATM    6  O3  UNL     1      28.481  12.103  19.427  1.00  0.00    -0.200 OA
HETATM    7  C15 UNL     1      28.263  12.588  16.813  1.00  0.00     0.099 A 
HETATM    8  C16 UNL     1      27.895  13.857  17.034  1.00  0.00     0.027 A 
HETATM    9  C17 UNL     1      28.005  14.778  15.981  1.00  0.00     0.002 A 
HETATM   10  C18 UNL     1      28.504  14.359  14.739  1.00  0.00     0.002 A 
HETATM   11  C19 UNL     1      28.856  13.033  14.625  1.00  0.00     0.023 A 
HETATM   12  C20 UNL     1      28.749  12.143  15.656  1.00  0.00     0.057 A 
HETATM   13  S2  UNL     1      29.345  10.555  15.439  1.00  0.00     0.075 S 
HETATM   14  O4  UNL     1      28.178   9.342  15.249  1.00  0.00    -0.251 OA
ENDROOT
BRANCH   1  15
HETATM   15  C4  UNL     1      30.993   9.056  16.894  1.00  0.00     0.044 C 
BRANCH  15  16
HETATM   16  C2  UNL     1      32.157   9.382  16.005  1.00  0.00    -0.020 C 
HETATM   17  C1  UNL     1      33.366   9.475  16.875  1.00  0.00     0.009 C 
HETATM   18  C3  UNL     1      32.345   8.627  14.775  1.00  0.00     0.009 C 
ENDBRANCH  15  16
ENDBRANCH   1  15
BRANCH   3  19
HETATM   19  C7  UNL     1      27.402   8.579  19.068  1.00  0.00     0.010 A 
HETATM   20  C8  UNL     1      26.343   8.193  18.407  1.00  0.00     0.123 A 
HETATM   21  N2  UNL     1      25.149   7.867  18.954  1.00  0.00    -0.284 N 
HETATM   22  N3  UNL     1      25.072   7.939  20.313  1.00  0.00    -0.162 N 
ATOM     23  H2  UNL     1      24.353   7.585  18.382  1.00  0.00     0.188 HD
HETATM   24  C9  UNL     1      26.101   8.319  21.053  1.00  0.00     0.109 A 
HETATM   25  C10 UNL     1      25.964   8.427  22.423  1.00  0.00     0.042 A 
HETATM   26  C14 UNL     1      27.302   8.653  20.473  1.00  0.00     0.009 A 
HETATM   27 BR1  UNL     1      24.329   7.975  23.286  1.00  0.00    -0.049 Br
HETATM   28  C11 UNL     1      27.034   8.884  23.201  1.00  0.00     0.021 A 
HETATM   29  C12 UNL     1      28.250   9.225  22.619  1.00  0.00     0.002 A 
HETATM   30  C13 UNL     1      28.348   9.087  21.232  1.00  0.00     0.015 A 
BRANCH  22  31
HETATM   31  O1  UNL     1      23.879   7.609  20.892  1.00  0.00    -0.267 OA
ATOM     32  H1  UNL     1      23.627   6.694  20.882  1.00  0.00     0.247 HD
ENDBRANCH  22  31
ENDBRANCH   3  19
TORSDOF 4
ENDMDL
MODEL 2
REMARK VINA RESULT: -6.986331807      1.887      2.268
REMARK  4 active torsions:
REMARK  status: ('A' for Active; 'I' for Inactive)
REMARK    1  A    between atoms: C2_2  and  C4_4 
REMARK    2  A    between atoms: C4_4  and  C5_5 
REMARK    3  A    between atoms: C6_7  and  C7_8 
REMARK    4  A    between atoms: N3_12  and  O1_13 
ROOT
HETATM    1  C5  UNL     1      29.087   9.499  17.617  1.00  0.00     0.199 C 
HETATM    2  N1  UNL     1      27.698   9.353  17.785  1.00  0.00    -0.264 N 
HETATM    3  C6  UNL     1      27.176   8.176  18.212  1.00  0.00     0.118 C 
HETATM    4  S1  UNL     1      26.854  10.791  17.758  1.00  0.00     0.267 S 
HETATM    5  O2  UNL     1      25.472  10.699  17.158  1.00  0.00    -0.200 OA
HETATM    6  O3  UNL     1      26.689  11.350  19.125  1.00  0.00    -0.200 OA
HETATM    7  C15 UNL     1      27.660  12.006  16.729  1.00  0.00     0.099 A 
HETATM    8  C16 UNL     1      27.282  13.282  16.875  1.00  0.00     0.027 A 
HETATM    9  C17 UNL     1      27.879  14.254  16.059  1.00  0.00     0.002 A 
HETATM   10  C18 UNL     1      28.856  13.876  15.126  1.00  0.00     0.002 A 
HETATM   11  C19 UNL     1      29.170  12.537  15.063  1.00  0.00     0.023 A 
HETATM   12  C20 UNL     1      28.586  11.597  15.864  1.00  0.00     0.057 A 
HETATM   13  S2  UNL     1      29.155   9.986  15.792  1.00  0.00     0.075 S 
HETATM   14  O4  UNL     1      28.143   8.874  15.011  1.00  0.00    -0.251 OA
ENDROOT
BRANCH   1  15
HETATM   15  C4  UNL     1      29.937   8.286  17.684  1.00  0.00     0.044 C 
BRANCH  15  16
HETATM   16  C2  UNL     1      30.997   8.264  16.622  1.00  0.00    -0.020 C 
HETATM   17  C1  UNL     1      32.268   8.725  17.256  1.00  0.00     0.009 C 
HETATM   18  C3  UNL     1      31.128   7.089  15.773  1.00  0.00     0.009 C 
ENDBRANCH  15  16
ENDBRANCH   1  15
BRANCH   3  19
HETATM   19  C7  UNL     1      25.740   7.941  18.031  1.00  0.00     0.010 A 
HETATM   20  C8  UNL     1      25.060   7.702  16.941  1.00  0.00     0.123 A 
HETATM   21  N2  UNL     1      23.737   7.429  16.882  1.00  0.00    -0.284 N 
HETATM   22  N3  UNL     1      23.079   7.388  18.075  1.00  0.00    -0.162 N 
ATOM     23  H2  UNL     1      23.259   7.264  15.996  1.00  0.00     0.188 HD
HETATM   24  C9  UNL     1      23.698   7.617  19.223  1.00  0.00     0.109 A 
HETATM   25  C10 UNL     1      22.983   7.616  20.405  1.00  0.00     0.042 A 
HETATM   26  C14 UNL     1      25.042   7.901  19.255  1.00  0.00     0.009 A 
HETATM   27 BR1  UNL     1      21.120   7.225  20.426  1.00  0.00    -0.049 Br
HETATM   28  C11 UNL     1      23.624   7.914  21.612  1.00  0.00     0.021 A 
HETATM   29  C12 UNL     1      24.983   8.204  21.650  1.00  0.00     0.002 A 
HETATM   30  C13 UNL     1      25.669   8.180  20.433  1.00  0.00     0.015 A 
BRANCH  22  31
HETATM   31  O1  UNL     1      21.742   7.108  18.046  1.00  0.00    -0.267 OA
ATOM     32  H1  UNL     1      21.471   6.244  18.334  1.00  0.00     0.247 HD
ENDBRANCH  22  31
ENDBRANCH   3  19
TORSDOF 4
ENDMDL
MODEL 3
REMARK VINA RESULT: -6.898302167      3.206      7.006
REMARK  4 active torsions:
REMARK  status: ('A' for Active; 'I' for Inactive)
REMARK    1  A    between atoms: C2_2  and  C4_4 
REMARK    2  A    between atoms: C4_4  and  C5_5 
REMARK    3  A    between atoms: C6_7  and  C7_8 
REMARK    4  A    between atoms: N3_12  and  O1_13 
ROOT
HETATM    1  C5  UNL     1      27.390   8.980  19.317  1.00  0.00     0.199 C 
HETATM    2  N1  UNL     1      27.727   9.408  18.020  1.00  0.00    -0.264 N 
HETATM    3  C6  UNL     1      28.861  10.121  17.802  1.00  0.00     0.118 C 
HETATM    4  S1  UNL     1      26.838   8.681  16.812  1.00  0.00     0.267 S 
HETATM    5  O2  UNL     1      26.560   9.561  15.618  1.00  0.00    -0.200 OA
HETATM    6  O3  UNL     1      27.515   7.463  16.295  1.00  0.00    -0.200 OA
HETATM    7  C15 UNL     1      25.203   8.240  17.375  1.00  0.00     0.099 A 
HETATM    8  C16 UNL     1      24.510   7.369  16.628  1.00  0.00     0.027 A 
HETATM    9  C17 UNL     1      23.212   7.026  17.033  1.00  0.00     0.002 A 
HETATM   10  C18 UNL     1      22.676   7.586  18.202  1.00  0.00     0.002 A 
HETATM   11  C19 UNL     1      23.477   8.466  18.894  1.00  0.00     0.023 A 
HETATM   12  C20 UNL     1      24.742   8.792  18.495  1.00  0.00     0.057 A 
HETATM   13  S2  UNL     1      25.693   9.789  19.507  1.00  0.00     0.075 S 
HETATM   14  O4  UNL     1      25.915  11.385  18.984  1.00  0.00    -0.251 OA
ENDROOT
BRANCH   1  15
HETATM   15  C4  UNL     1      28.163   9.522  20.461  1.00  0.00     0.044 C 
BRANCH  15  16
HETATM   16  C2  UNL     1      27.330   9.676  21.700  1.00  0.00    -0.020 C 
HETATM   17  C1  UNL     1      27.477   8.419  22.492  1.00  0.00     0.009 C 
HETATM   18  C3  UNL     1      27.431  10.903  22.476  1.00  0.00     0.009 C 
ENDBRANCH  15  16
ENDBRANCH   1  15
BRANCH   3  19
HETATM   19  C7  UNL     1      28.996  10.849  16.537  1.00  0.00     0.010 A 
HETATM   20  C8  UNL     1      29.344  10.418  15.354  1.00  0.00     0.123 A 
HETATM   21  N2  UNL     1      29.375  11.159  14.224  1.00  0.00    -0.284 N 
HETATM   22  N3  UNL     1      28.990  12.461  14.349  1.00  0.00    -0.162 N 
ATOM     23  H2  UNL     1      29.669  10.767  13.329  1.00  0.00     0.188 HD
HETATM   24  C9  UNL     1      28.622  12.972  15.513  1.00  0.00     0.109 A 
HETATM   25  C10 UNL     1      28.289  14.310  15.606  1.00  0.00     0.042 A 
HETATM   26  C14 UNL     1      28.607  12.200  16.650  1.00  0.00     0.009 A 
HETATM   27 BR1  UNL     1      28.285  15.431  14.067  1.00  0.00    -0.049 Br
HETATM   28  C11 UNL     1      27.955  14.865  16.846  1.00  0.00     0.021 A 
HETATM   29  C12 UNL     1      27.940  14.088  18.000  1.00  0.00     0.002 A 
HETATM   30  C13 UNL     1      28.271  12.738  17.857  1.00  0.00     0.015 A 
BRANCH  22  31
HETATM   31  O1  UNL     1      29.005  13.232  13.221  1.00  0.00    -0.267 OA
ATOM     32  H1  UNL     1      29.144  12.791  12.392  1.00  0.00     0.247 HD
ENDBRANCH  22  31
ENDBRANCH   3  19
TORSDOF 4
ENDMDL
MODEL 4
REMARK VINA RESULT: -6.884228808      3.079      5.733
REMARK  4 active torsions:
REMARK  status: ('A' for Active; 'I' for Inactive)
REMARK    1  A    between atoms: C2_2  and  C4_4 
REMARK    2  A    between atoms: C4_4  and  C5_5 
REMARK    3  A    between atoms: C6_7  and  C7_8 
REMARK    4  A    between atoms: N3_12  and  O1_13 
ROOT
HETATM    1  C5  UNL     1      28.050  10.910  16.112  1.00  0.00     0.199 C 
HETATM    2  N1  UNL     1      27.112   9.885  16.332  1.00  0.00    -0.264 N 
HETATM    3  C6  UNL     1      25.799  10.178  16.508  1.00  0.00     0.118 C 
HETATM    4  S1  UNL     1      27.689   8.354  16.008  1.00  0.00     0.267 S 
HETATM    5  O2  UNL     1      27.129   7.270  16.897  1.00  0.00    -0.200 OA
HETATM    6  O3  UNL     1      27.402   7.949  14.608  1.00  0.00    -0.200 OA
HETATM    7  C15 UNL     1      29.447   8.241  16.295  1.00  0.00     0.099 A 
HETATM    8  C16 UNL     1      30.088   7.188  15.771  1.00  0.00     0.027 A 
HETATM    9  C17 UNL     1      31.465   7.060  16.005  1.00  0.00     0.002 A 
HETATM   10  C18 UNL     1      32.136   8.031  16.763  1.00  0.00     0.002 A 
HETATM   11  C19 UNL     1      31.379   9.072  17.250  1.00  0.00     0.023 A 
HETATM   12  C20 UNL     1      30.039   9.191  17.015  1.00  0.00     0.057 A 
HETATM   13  S2  UNL     1      29.231  10.599  17.554  1.00  0.00     0.075 S 
HETATM   14  O4  UNL     1      28.224  10.408  18.903  1.00  0.00    -0.251 OA
ENDROOT
BRANCH   1  15
HETATM   15  C4  UNL     1      27.619  12.315  16.314  1.00  0.00     0.044 C 
BRANCH  15  16
HETATM   16  C2  UNL     1      28.692  13.304  15.961  1.00  0.00    -0.020 C 
HETATM   17  C1  UNL     1      29.231  12.915  14.625  1.00  0.00     0.009 C 
HETATM   18  C3  UNL     1      28.427  14.726  16.125  1.00  0.00     0.009 C 
ENDBRANCH  15  16
ENDBRANCH   1  15
BRANCH   3  19
HETATM   19  C7  UNL     1      24.925   9.153  17.085  1.00  0.00     0.010 A 
HETATM   20  C8  UNL     1      24.807   8.752  18.323  1.00  0.00     0.123 A 
HETATM   21  N2  UNL     1      23.916   7.839  18.773  1.00  0.00    -0.284 N 
HETATM   22  N3  UNL     1      23.068   7.318  17.841  1.00  0.00    -0.162 N 
ATOM     23  H2  UNL     1      23.881   7.557  19.752  1.00  0.00     0.188 HD
HETATM   24  C9  UNL     1      23.124   7.674  16.567  1.00  0.00     0.109 A 
HETATM   25  C10 UNL     1      22.280   7.083  15.647  1.00  0.00     0.042 A 
HETATM   26  C14 UNL     1      24.044   8.598  16.133  1.00  0.00     0.009 A 
HETATM   27 BR1  UNL     1      20.981   5.801  16.187  1.00  0.00    -0.049 Br
HETATM   28  C11 UNL     1      22.376   7.417  14.292  1.00  0.00     0.021 A 
HETATM   29  C12 UNL     1      23.307   8.350  13.847  1.00  0.00     0.002 A 
HETATM   30  C13 UNL     1      24.131   8.932  14.814  1.00  0.00     0.015 A 
BRANCH  22  31
HETATM   31  O1  UNL     1      22.153   6.397  18.269  1.00  0.00    -0.267 OA
ATOM     32  H1  UNL     1      21.387   6.723  18.727  1.00  0.00     0.247 HD
ENDBRANCH  22  31
ENDBRANCH   3  19
TORSDOF 4
ENDMDL
MODEL 5
REMARK VINA RESULT: -6.881606023      1.544      2.706
REMARK  4 active torsions:
REMARK  status: ('A' for Active; 'I' for Inactive)
REMARK    1  A    between atoms: C2_2  and  C4_4 
REMARK    2  A    between atoms: C4_4  and  C5_5 
REMARK    3  A    between atoms: C6_7  and  C7_8 
REMARK    4  A    between atoms: N3_12  and  O1_13 
ROOT
HETATM    1  C5  UNL     1      29.935  10.067  17.248  1.00  0.00     0.199 C 
HETATM    2  N1  UNL     1      28.751  10.001  18.004  1.00  0.00    -0.264 N 
HETATM    3  C6  UNL     1      28.427   8.872  18.682  1.00  0.00     0.118 C 
HETATM    4  S1  UNL     1      28.023  11.480  18.259  1.00  0.00     0.267 S 
HETATM    5  O2  UNL     1      26.515  11.439  18.316  1.00  0.00    -0.200 OA
HETATM    6  O3  UNL     1      28.481  12.100  19.529  1.00  0.00    -0.200 OA
HETATM    7  C15 UNL     1      28.343  12.609  16.914  1.00  0.00     0.099 A 
HETATM    8  C16 UNL     1      28.106  13.909  17.134  1.00  0.00     0.027 A 
HETATM    9  C17 UNL     1      28.322  14.815  16.086  1.00  0.00     0.002 A 
HETATM   10  C18 UNL     1      28.789  14.349  14.848  1.00  0.00     0.002 A 
HETATM   11  C19 UNL     1      29.003  12.994  14.734  1.00  0.00     0.023 A 
HETATM   12  C20 UNL     1      28.793  12.119  15.761  1.00  0.00     0.057 A 
HETATM   13  S2  UNL     1      29.224  10.478  15.546  1.00  0.00     0.075 S 
HETATM   14  O4  UNL     1      27.941   9.392  15.340  1.00  0.00    -0.251 OA
ENDROOT
BRANCH   1  15
HETATM   15  C4  UNL     1      30.693   8.814  17.014  1.00  0.00     0.044 C 
BRANCH  15  16
HETATM   16  C2  UNL     1      31.693   8.942  15.902  1.00  0.00    -0.020 C 
HETATM   17  C1  UNL     1      32.953   9.475  16.500  1.00  0.00     0.009 C 
HETATM   18  C3  UNL     1      31.875   7.832  14.979  1.00  0.00     0.009 C 
ENDBRANCH  15  16
ENDBRANCH   1  15
BRANCH   3  19
HETATM   19  C7  UNL     1      27.047   8.706  19.148  1.00  0.00     0.010 A 
HETATM   20  C8  UNL     1      26.461   9.178  20.216  1.00  0.00     0.123 A 
HETATM   21  N2  UNL     1      25.154   9.026  20.528  1.00  0.00    -0.284 N 
HETATM   22  N3  UNL     1      24.399   8.332  19.630  1.00  0.00    -0.162 N 
ATOM     23  H2  UNL     1      24.756   9.408  21.386  1.00  0.00     0.188 HD
HETATM   24  C9  UNL     1      24.919   7.825  18.523  1.00  0.00     0.109 A 
HETATM   25  C10 UNL     1      24.129   7.085  17.666  1.00  0.00     0.042 A 
HETATM   26  C14 UNL     1      26.252   7.986  18.232  1.00  0.00     0.009 A 
HETATM   27 BR1  UNL     1      22.274   6.830  18.010  1.00  0.00    -0.049 Br
HETATM   28  C11 UNL     1      24.690   6.500  16.525  1.00  0.00     0.021 A 
HETATM   29  C12 UNL     1      26.040   6.658  16.227  1.00  0.00     0.002 A 
HETATM   30  C13 UNL     1      26.797   7.425  17.115  1.00  0.00     0.015 A 
BRANCH  22  31
HETATM   31  O1  UNL     1      23.073   8.169  19.917  1.00  0.00    -0.267 OA
ATOM     32  H1  UNL     1      22.852   7.790  20.759  1.00  0.00     0.247 HD
ENDBRANCH  22  31
ENDBRANCH   3  19
TORSDOF 4
ENDMDL
