MODEL 1
REMARK VINA RESULT: -8.001430356      0.000      0.000
REMARK  5 active torsions:
REMARK  status: ('A' for Active; 'I' for Inactive)
REMARK    1  A    between atoms: N1_4  and  C4_5 
REMARK    2  A    between atoms: C4_5  and  C5_6 
REMARK    3  A    between atoms: C18_25  and  C19_26 
REMARK    4  A    between atoms: C19_26  and  O3_28 
REMARK    5  A    between atoms: O3_28  and  C20_29 
ROOT
HETATM    1  C1  UNL     1      24.677   8.578  14.419  1.00  0.00     0.021 C 
HETATM    2  C2  UNL     1      25.275   8.712  15.580  1.00  0.00    -0.030 C 
HETATM    3  C3  UNL     1      26.715   9.083  15.802  1.00  0.00     0.313 C 
HETATM    4  N1  UNL     1      26.707   9.748  17.098  1.00  0.00     0.113 N 
HETATM    5  C14 UNL     1      25.622   9.235  17.855  1.00  0.00     0.319 C 
HETATM    6  S1  UNL     1      26.052   7.976  19.090  1.00  0.00    -0.118 SA
HETATM    7  C15 UNL     1      24.485   7.129  19.506  1.00  0.00     0.019 C 
HETATM    8  C16 UNL     1      24.345   7.017  20.992  1.00  0.00     0.028 C 
HETATM    9  C17 UNL     1      24.556   5.745  18.916  1.00  0.00     0.028 C 
HETATM   10  C18 UNL     1      23.383   7.945  18.868  1.00  0.00     0.126 C 
HETATM   11  C22 UNL     1      23.654   7.926  17.406  1.00  0.00    -0.000 C 
HETATM   12  C23 UNL     1      24.707   8.527  16.903  1.00  0.00    -0.011 C 
ENDROOT
BRANCH   4  13
HETATM   13  C4  UNL     1      27.978   9.812  17.709  1.00  0.00     0.309 C 
BRANCH  13  14
HETATM   14  C5  UNL     1      28.737  11.106  17.538  1.00  0.00     0.204 A 
HETATM   15  C6  UNL     1      27.901  12.260  17.309  1.00  0.00     0.187 A 
HETATM   16  O1  UNL     1      26.911  12.573  18.053  1.00  0.00    -0.290 OA
HETATM   17  C7  UNL     1      28.121  13.169  16.203  1.00  0.00     0.041 A 
HETATM   18  C8  UNL     1      27.305  14.276  16.005  1.00  0.00     0.036 A 
HETATM   19  C12 UNL     1      29.166  12.909  15.347  1.00  0.00     0.061 A 
HETATM   20  C9  UNL     1      27.538  15.120  14.948  1.00  0.00     0.012 A 
HETATM   21 BR1  UNL     1      26.463  16.640  14.632  1.00  0.00    -0.051 Br
HETATM   22  C10 UNL     1      28.601  14.843  14.090  1.00  0.00     0.021 A 
HETATM   23  C11 UNL     1      29.412  13.745  14.285  1.00  0.00     0.033 A 
HETATM   24  N2  UNL     1      29.938  11.767  15.628  1.00  0.00    -0.302 N 
HETATM   25  N3  UNL     1      29.780  10.958  16.573  1.00  0.00    -0.318 N 
ATOM     26  H2  UNL     1      30.712  11.576  14.993  1.00  0.00     0.186 HD
HETATM   27  C13 UNL     1      30.699   9.802  16.713  1.00  0.00     0.171 C 
ENDBRANCH  13  14
ENDBRANCH   4  13
BRANCH  10  28
HETATM   28  C19 UNL     1      22.031   7.461  19.155  1.00  0.00     0.268 C 
HETATM   29  O2  UNL     1      21.514   6.652  18.319  1.00  0.00    -0.264 OA
BRANCH  28  30
HETATM   30  O3  UNL     1      21.281   7.811  20.250  1.00  0.00    -0.321 OA
BRANCH  30  31
HETATM   31  C20 UNL     1      20.641   6.794  20.996  1.00  0.00     0.174 C 
HETATM   32  C21 UNL     1      20.605   7.146  22.463  1.00  0.00     0.034 C 
ENDBRANCH  30  31
ENDBRANCH  28  30
ENDBRANCH  10  28
TORSDOF 5
ENDMDL
MODEL 2
REMARK VINA RESULT: -7.690532513      1.889      3.003
REMARK  5 active torsions:
REMARK  status: ('A' for Active; 'I' for Inactive)
REMARK    1  A    between atoms: N1_4  and  C4_5 
REMARK    2  A    between atoms: C4_5  and  C5_6 
REMARK    3  A    between atoms: C18_25  and  C19_26 
REMARK    4  A    between atoms: C19_26  and  O3_28 
REMARK    5  A    between atoms: O3_28  and  C20_29 
ROOT
HETATM    1  C1  UNL     1      27.894   6.689  13.883  1.00  0.00     0.021 C 
HETATM    2  C2  UNL     1      27.550   7.411  14.923  1.00  0.00    -0.030 C 
HETATM    3  C3  UNL     1      28.485   8.094  15.882  1.00  0.00     0.313 C 
HETATM    4  N1  UNL     1      27.719   9.235  16.363  1.00  0.00     0.113 N 
HETATM    5  C14 UNL     1      26.339   8.908  16.288  1.00  0.00     0.319 C 
HETATM    6  S1  UNL     1      25.567   8.397  17.850  1.00  0.00    -0.118 SA
HETATM    7  C15 UNL     1      24.019   7.543  17.385  1.00  0.00     0.019 C 
HETATM    8  C16 UNL     1      22.885   8.054  18.219  1.00  0.00     0.028 C 
HETATM    9  C17 UNL     1      24.214   6.077  17.671  1.00  0.00     0.028 C 
HETATM   10  C18 UNL     1      23.826   7.796  15.906  1.00  0.00     0.126 C 
HETATM   11  C22 UNL     1      25.011   7.204  15.232  1.00  0.00    -0.000 C 
HETATM   12  C23 UNL     1      26.211   7.710  15.399  1.00  0.00    -0.011 C 
ENDROOT
BRANCH   4  13
HETATM   13  C4  UNL     1      28.212   9.780  17.568  1.00  0.00     0.309 C 
BRANCH  13  14
HETATM   14  C5  UNL     1      28.891  11.125  17.463  1.00  0.00     0.204 A 
HETATM   15  C6  UNL     1      27.989  12.232  17.254  1.00  0.00     0.187 A 
HETATM   16  O1  UNL     1      26.963  12.455  17.982  1.00  0.00    -0.290 OA
HETATM   17  C7  UNL     1      28.177  13.194  16.187  1.00  0.00     0.041 A 
HETATM   18  C8  UNL     1      27.296  14.253  16.006  1.00  0.00     0.036 A 
HETATM   19  C12 UNL     1      29.257  13.032  15.350  1.00  0.00     0.061 A 
HETATM   20  C9  UNL     1      27.501  15.150  14.987  1.00  0.00     0.012 A 
HETATM   21 BR1  UNL     1      26.338  16.609  14.697  1.00  0.00    -0.051 Br
HETATM   22  C10 UNL     1      28.600  14.972  14.148  1.00  0.00     0.021 A 
HETATM   23  C11 UNL     1      29.474  13.921  14.325  1.00  0.00     0.033 A 
HETATM   24  N2  UNL     1      30.092  11.931  15.610  1.00  0.00    -0.302 N 
HETATM   25  N3  UNL     1      29.964  11.079  16.521  1.00  0.00    -0.318 N 
ATOM     26  H2  UNL     1      30.892  11.813  14.989  1.00  0.00     0.186 HD
HETATM   27  C13 UNL     1      30.952   9.979  16.644  1.00  0.00     0.171 C 
ENDBRANCH  13  14
ENDBRANCH   4  13
BRANCH  10  28
HETATM   28  C19 UNL     1      22.584   7.247  15.358  1.00  0.00     0.268 C 
HETATM   29  O2  UNL     1      22.450   5.981  15.379  1.00  0.00    -0.264 OA
BRANCH  28  30
HETATM   30  O3  UNL     1      21.559   7.988  14.823  1.00  0.00    -0.321 OA
BRANCH  30  31
HETATM   31  C20 UNL     1      21.613   8.346  13.456  1.00  0.00     0.174 C 
HETATM   32  C21 UNL     1      20.242   8.710  12.942  1.00  0.00     0.034 C 
ENDBRANCH  30  31
ENDBRANCH  28  30
ENDBRANCH  10  28
TORSDOF 5
ENDMDL
MODEL 3
REMARK VINA RESULT: -7.630694548      3.844      8.188
REMARK  5 active torsions:
REMARK  status: ('A' for Active; 'I' for Inactive)
REMARK    1  A    between atoms: N1_4  and  C4_5 
REMARK    2  A    between atoms: C4_5  and  C5_6 
REMARK    3  A    between atoms: C18_25  and  C19_26 
REMARK    4  A    between atoms: C19_26  and  O3_28 
REMARK    5  A    between atoms: O3_28  and  C20_29 
ROOT
HETATM    1  C1  UNL     1      23.981   9.848  18.375  1.00  0.00     0.021 C 
HETATM    2  C2  UNL     1      24.871   9.465  17.490  1.00  0.00    -0.030 C 
HETATM    3  C3  UNL     1      25.032   8.080  16.930  1.00  0.00     0.313 C 
HETATM    4  N1  UNL     1      25.594   8.302  15.605  1.00  0.00     0.113 N 
HETATM    5  C14 UNL     1      26.321   9.520  15.628  1.00  0.00     0.319 C 
HETATM    6  S1  UNL     1      28.122   9.357  15.791  1.00  0.00    -0.118 SA
HETATM    7  C15 UNL     1      28.726  10.996  16.331  1.00  0.00     0.019 C 
HETATM    8  C16 UNL     1      29.902  11.405  15.500  1.00  0.00     0.028 C 
HETATM    9  C17 UNL     1      29.165  10.860  17.765  1.00  0.00     0.028 C 
HETATM   10  C18 UNL     1      27.552  11.941  16.200  1.00  0.00     0.126 C 
HETATM   11  C22 UNL     1      26.498  11.411  17.105  1.00  0.00    -0.000 C 
HETATM   12  C23 UNL     1      25.902  10.268  16.857  1.00  0.00    -0.011 C 
ENDROOT
BRANCH   4  13
HETATM   13  C4  UNL     1      26.217   7.161  15.055  1.00  0.00     0.309 C 
BRANCH  13  14
HETATM   14  C5  UNL     1      25.428   6.406  14.012  1.00  0.00     0.204 A 
HETATM   15  C6  UNL     1      24.505   7.221  13.258  1.00  0.00     0.187 A 
HETATM   16  O1  UNL     1      24.838   8.307  12.674  1.00  0.00    -0.290 OA
HETATM   17  C7  UNL     1      23.110   6.867  13.101  1.00  0.00     0.041 A 
HETATM   18  C8  UNL     1      22.240   7.666  12.369  1.00  0.00     0.036 A 
HETATM   19  C12 UNL     1      22.661   5.712  13.700  1.00  0.00     0.061 A 
HETATM   20  C9  UNL     1      20.923   7.304  12.236  1.00  0.00     0.012 A 
HETATM   21 BR1  UNL     1      19.699   8.350  11.250  1.00  0.00    -0.051 Br
HETATM   22  C10 UNL     1      20.485   6.131  12.848  1.00  0.00     0.021 A 
HETATM   23  C11 UNL     1      21.345   5.338  13.576  1.00  0.00     0.033 A 
HETATM   24  N2  UNL     1      23.614   4.968  14.420  1.00  0.00    -0.302 N 
HETATM   25  N3  UNL     1      24.827   5.240  14.578  1.00  0.00    -0.318 N 
ATOM     26  H2  UNL     1      23.280   4.112  14.862  1.00  0.00     0.186 HD
HETATM   27  C13 UNL     1      25.686   4.331  15.375  1.00  0.00     0.171 C 
ENDBRANCH  13  14
ENDBRANCH   4  13
BRANCH  10  28
HETATM   28  C19 UNL     1      27.863  13.336  16.521  1.00  0.00     0.268 C 
HETATM   29  O2  UNL     1      27.421  13.790  17.625  1.00  0.00    -0.264 OA
BRANCH  28  30
HETATM   30  O3  UNL     1      28.589  14.187  15.726  1.00  0.00    -0.321 OA
BRANCH  30  31
HETATM   31  C20 UNL     1      27.901  15.101  14.893  1.00  0.00     0.174 C 
HETATM   32  C21 UNL     1      28.481  15.100  13.500  1.00  0.00     0.034 C 
ENDBRANCH  30  31
ENDBRANCH  28  30
ENDBRANCH  10  28
TORSDOF 5
ENDMDL
MODEL 4
REMARK VINA RESULT: -7.506858336      4.249      8.331
REMARK  5 active torsions:
REMARK  status: ('A' for Active; 'I' for Inactive)
REMARK    1  A    between atoms: N1_4  and  C4_5 
REMARK    2  A    between atoms: C4_5  and  C5_6 
REMARK    3  A    between atoms: C18_25  and  C19_26 
REMARK    4  A    between atoms: C19_26  and  O3_28 
REMARK    5  A    between atoms: O3_28  and  C20_29 
ROOT
HETATM    1  C1  UNL     1      23.621   9.782  18.750  1.00  0.00     0.021 C 
HETATM    2  C2  UNL     1      24.239   9.389  17.661  1.00  0.00    -0.030 C 
HETATM    3  C3  UNL     1      23.820   8.265  16.755  1.00  0.00     0.313 C 
HETATM    4  N1  UNL     1      24.341   8.654  15.452  1.00  0.00     0.113 N 
HETATM    5  C14 UNL     1      25.481   9.475  15.656  1.00  0.00     0.319 C 
HETATM    6  S1  UNL     1      27.087   8.650  15.468  1.00  0.00    -0.118 SA
HETATM    7  C15 UNL     1      28.306   9.737  16.289  1.00  0.00     0.019 C 
HETATM    8  C16 UNL     1      29.495   9.931  15.401  1.00  0.00     0.028 C 
HETATM    9  C17 UNL     1      28.747   9.041  17.550  1.00  0.00     0.028 C 
HETATM   10  C18 UNL     1      27.580  11.027  16.596  1.00  0.00     0.126 C 
HETATM   11  C22 UNL     1      26.461  10.661  17.504  1.00  0.00    -0.000 C 
HETATM   12  C23 UNL     1      25.458   9.926  17.084  1.00  0.00    -0.011 C 
ENDROOT
BRANCH   4  13
HETATM   13  C4  UNL     1      24.443   7.582  14.540  1.00  0.00     0.309 C 
BRANCH  13  14
HETATM   14  C5  UNL     1      23.946   7.847  13.139  1.00  0.00     0.204 A 
HETATM   15  C6  UNL     1      22.510   7.957  13.028  1.00  0.00     0.187 A 
HETATM   16  O1  UNL     1      21.802   8.725  13.763  1.00  0.00    -0.290 OA
HETATM   17  C7  UNL     1      21.748   7.194  12.061  1.00  0.00     0.041 A 
HETATM   18  C8  UNL     1      20.367   7.318  11.971  1.00  0.00     0.036 A 
HETATM   19  C12 UNL     1      22.429   6.338  11.227  1.00  0.00     0.061 A 
HETATM   20  C9  UNL     1      19.671   6.583  11.043  1.00  0.00     0.012 A 
HETATM   21 BR1  UNL     1      17.795   6.714  10.875  1.00  0.00    -0.051 Br
HETATM   22  C10 UNL     1      20.376   5.721  10.206  1.00  0.00     0.021 A 
HETATM   23  C11 UNL     1      21.746   5.596  10.294  1.00  0.00     0.033 A 
HETATM   24  N2  UNL     1      23.825   6.280  11.391  1.00  0.00    -0.302 N 
HETATM   25  N3  UNL     1      24.519   6.922  12.214  1.00  0.00    -0.318 N 
ATOM     26  H2  UNL     1      24.328   5.645  10.772  1.00  0.00     0.186 HD
HETATM   27  C13 UNL     1      25.990   6.731  12.242  1.00  0.00     0.171 C 
ENDBRANCH  13  14
ENDBRANCH   4  13
BRANCH  10  28
HETATM   28  C19 UNL     1      28.422  12.064  17.196  1.00  0.00     0.268 C 
HETATM   29  O2  UNL     1      28.397  12.171  18.465  1.00  0.00    -0.264 OA
BRANCH  28  30
HETATM   30  O3  UNL     1      29.231  12.928  16.500  1.00  0.00    -0.321 OA
BRANCH  30  31
HETATM   31  C20 UNL     1      28.714  13.578  15.356  1.00  0.00     0.174 C 
HETATM   32  C21 UNL     1      27.815  14.725  15.750  1.00  0.00     0.034 C 
ENDBRANCH  30  31
ENDBRANCH  28  30
ENDBRANCH  10  28
TORSDOF 5
ENDMDL
MODEL 5
REMARK VINA RESULT: -7.409871038      3.879      8.161
REMARK  5 active torsions:
REMARK  status: ('A' for Active; 'I' for Inactive)
REMARK    1  A    between atoms: N1_4  and  C4_5 
REMARK    2  A    between atoms: C4_5  and  C5_6 
REMARK    3  A    between atoms: C18_25  and  C19_26 
REMARK    4  A    between atoms: C19_26  and  O3_28 
REMARK    5  A    between atoms: O3_28  and  C20_29 
ROOT
HETATM    1  C1  UNL     1      24.655   9.405  19.367  1.00  0.00     0.021 C 
HETATM    2  C2  UNL     1      25.139   9.199  18.165  1.00  0.00    -0.030 C 
HETATM    3  C3  UNL     1      24.879   8.003  17.293  1.00  0.00     0.313 C 
HETATM    4  N1  UNL     1      25.018   8.521  15.939  1.00  0.00     0.113 N 
HETATM    5  C14 UNL     1      25.909   9.625  15.974  1.00  0.00     0.319 C 
HETATM    6  S1  UNL     1      27.613   9.277  15.455  1.00  0.00    -0.118 SA
HETATM    7  C15 UNL     1      28.622  10.660  16.097  1.00  0.00     0.019 C 
HETATM    8  C16 UNL     1      29.524  11.176  15.019  1.00  0.00     0.028 C 
HETATM    9  C17 UNL     1      29.466  10.113  17.219  1.00  0.00     0.028 C 
HETATM   10  C18 UNL     1      27.644  11.699  16.598  1.00  0.00     0.126 C 
HETATM   11  C22 UNL     1      26.860  11.037  17.674  1.00  0.00    -0.000 C 
HETATM   12  C23 UNL     1      26.034  10.053  17.405  1.00  0.00    -0.011 C 
ENDROOT
BRANCH   4  13
HETATM   13  C4  UNL     1      25.233   7.519  14.969  1.00  0.00     0.309 C 
BRANCH  13  14
HETATM   14  C5  UNL     1      24.779   7.840  13.565  1.00  0.00     0.204 A 
HETATM   15  C6  UNL     1      23.352   8.008  13.425  1.00  0.00     0.187 A 
HETATM   16  O1  UNL     1      22.657   8.783  14.164  1.00  0.00    -0.290 OA
HETATM   17  C7  UNL     1      22.584   7.301  12.421  1.00  0.00     0.041 A 
HETATM   18  C8  UNL     1      21.211   7.481  12.303  1.00  0.00     0.036 A 
HETATM   19  C12 UNL     1      23.252   6.441  11.579  1.00  0.00     0.061 A 
HETATM   20  C9  UNL     1      20.510   6.798  11.341  1.00  0.00     0.012 A 
HETATM   21 BR1  UNL     1      18.645   7.005  11.134  1.00  0.00    -0.051 Br
HETATM   22  C10 UNL     1      21.201   5.931  10.496  1.00  0.00     0.021 A 
HETATM   23  C11 UNL     1      22.562   5.751  10.611  1.00  0.00     0.033 A 
HETATM   24  N2  UNL     1      24.640   6.325  11.773  1.00  0.00    -0.302 N 
HETATM   25  N3  UNL     1      25.339   6.918  12.628  1.00  0.00    -0.318 N 
ATOM     26  H2  UNL     1      25.132   5.688  11.148  1.00  0.00     0.186 HD
HETATM   27  C13 UNL     1      26.800   6.669  12.684  1.00  0.00     0.171 C 
ENDBRANCH  13  14
ENDBRANCH   4  13
BRANCH  10  28
HETATM   28  C19 UNL     1      28.270  12.929  17.089  1.00  0.00     0.268 C 
HETATM   29  O2  UNL     1      28.379  13.062  18.350  1.00  0.00    -0.264 OA
BRANCH  28  30
HETATM   30  O3  UNL     1      28.744  13.945  16.297  1.00  0.00    -0.321 OA
BRANCH  30  31
HETATM   31  C20 UNL     1      27.836  14.659  15.481  1.00  0.00     0.174 C 
HETATM   32  C21 UNL     1      28.394  14.844  14.091  1.00  0.00     0.034 C 
ENDBRANCH  30  31
ENDBRANCH  28  30
ENDBRANCH  10  28
TORSDOF 5
ENDMDL
