MODEL 1
REMARK VINA RESULT: -8.028873093      0.000      0.000
REMARK  5 active torsions:
REMARK  status: ('A' for Active; 'I' for Inactive)
REMARK    1  A    between atoms: C2_2  and  C4_5 
REMARK    2  A    between atoms: N1_10  and  C9_11 
REMARK    3  A    between atoms: N2_13  and  C11_14 
REMARK    4  A    between atoms: C11_14  and  C12_15 
REMARK    5  A    between atoms: C21_30  and  C22_31 
ROOT
HETATM    1  C4  UNL     1      25.651   5.152  15.734  1.00  0.00     0.015 C 
HETATM    2  C5  UNL     1      25.142   6.343  15.628  1.00  0.00    -0.040 C 
HETATM    3  C6  UNL     1      26.076   7.345  15.001  1.00  0.00    -0.059 C 
HETATM    4  C7  UNL     1      26.388   7.077  13.572  1.00  0.00     0.046 C 
HETATM    5  C8  UNL     1      25.912   8.739  15.427  1.00  0.00     0.160 C 
HETATM    6  N1  UNL     1      25.178   8.842  16.649  1.00  0.00    -0.341 N 
HETATM    7  C20 UNL     1      23.987   8.099  16.794  1.00  0.00     0.229 C 
HETATM    8  O5  UNL     1      23.052   8.490  17.510  1.00  0.00    -0.273 OA
HETATM    9  C21 UNL     1      23.826   6.757  16.052  1.00  0.00     0.118 C 
ENDROOT
BRANCH   6  10
HETATM   10  C9  UNL     1      25.615   9.695  17.754  1.00  0.00     0.117 C 
HETATM   11  C10 UNL     1      26.550  10.736  17.317  1.00  0.00     0.134 C 
HETATM   12  N2  UNL     1      27.770  10.781  18.025  1.00  0.00    -0.204 NA
HETATM   13  S1  UNL     1      27.407  10.033  19.527  1.00  0.00     0.213 S 
HETATM   14  O3  UNL     1      28.488   9.184  20.071  1.00  0.00    -0.211 OA
HETATM   15  O4  UNL     1      26.821  10.977  20.521  1.00  0.00    -0.211 OA
HETATM   16  C19 UNL     1      26.128   8.914  18.919  1.00  0.00     0.184 C 
BRANCH  12  17
HETATM   17  C11 UNL     1      28.227  12.129  18.114  1.00  0.00     0.145 C 
BRANCH  17  18
HETATM   18  C12 UNL     1      28.392  12.838  16.856  1.00  0.00    -0.041 A 
HETATM   19  C13 UNL     1      29.306  12.449  15.916  1.00  0.00     0.011 A 
HETATM   20  C14 UNL     1      29.392  13.180  14.746  1.00  0.00     0.040 A 
HETATM   21  C15 UNL     1      28.600  14.272  14.495  1.00  0.00     0.105 A 
HETATM   22  C16 UNL     1      27.676  14.671  15.440  1.00  0.00     0.105 A 
HETATM   23  O2  UNL     1      28.510  15.153  13.401  1.00  0.00    -0.323 OA
HETATM   24  C17 UNL     1      27.605  13.933  16.596  1.00  0.00     0.048 A 
HETATM   25  O1  UNL     1      27.045  15.772  14.913  1.00  0.00    -0.323 OA
HETATM   26  C18 UNL     1      27.788  16.301  13.832  1.00  0.00     0.352 C 
ENDBRANCH  17  18
ENDBRANCH  12  17
ENDBRANCH   6  10
BRANCH   9  27
HETATM   27  C22 UNL     1      22.708   6.993  15.127  1.00  0.00    -0.035 C 
HETATM   28  C23 UNL     1      22.501   8.341  14.524  1.00  0.00     0.015 C 
HETATM   29  C24 UNL     1      21.355   6.650  15.803  1.00  0.00     0.015 C 
HETATM   30  C25 UNL     1      22.733   6.047  13.890  1.00  0.00     0.015 C 
ENDBRANCH   9  27
BRANCH   1  31
HETATM   31  C2  UNL     1      25.277   3.879  16.222  1.00  0.00    -0.051 C 
HETATM   32  C1  UNL     1      24.250   3.009  15.634  1.00  0.00     0.049 C 
HETATM   33  C3  UNL     1      25.821   3.388  17.372  1.00  0.00     0.091 C 
HETATM   34 CL1  UNL     1      27.050   4.363  18.139  1.00  0.00    -0.096 Cl
ENDBRANCH   1  31
TORSDOF 5
ENDMDL
MODEL 2
REMARK VINA RESULT: -8.028835612      0.887      1.026
REMARK  5 active torsions:
REMARK  status: ('A' for Active; 'I' for Inactive)
REMARK    1  A    between atoms: C2_2  and  C4_5 
REMARK    2  A    between atoms: N1_10  and  C9_11 
REMARK    3  A    between atoms: N2_13  and  C11_14 
REMARK    4  A    between atoms: C11_14  and  C12_15 
REMARK    5  A    between atoms: C21_30  and  C22_31 
ROOT
HETATM    1  C4  UNL     1      25.658   5.170  15.701  1.00  0.00     0.015 C 
HETATM    2  C5  UNL     1      25.140   6.359  15.606  1.00  0.00    -0.040 C 
HETATM    3  C6  UNL     1      26.063   7.371  14.977  1.00  0.00    -0.059 C 
HETATM    4  C7  UNL     1      26.366   7.112  13.544  1.00  0.00     0.046 C 
HETATM    5  C8  UNL     1      25.895   8.761  15.412  1.00  0.00     0.160 C 
HETATM    6  N1  UNL     1      25.170   8.853  16.640  1.00  0.00    -0.341 N 
HETATM    7  C20 UNL     1      23.983   8.101  16.790  1.00  0.00     0.229 C 
HETATM    8  O5  UNL     1      23.052   8.482  17.515  1.00  0.00    -0.273 OA
HETATM    9  C21 UNL     1      23.825   6.763  16.041  1.00  0.00     0.118 C 
ENDROOT
BRANCH   6  10
HETATM   10  C9  UNL     1      25.610   9.702  17.746  1.00  0.00     0.117 C 
HETATM   11  C10 UNL     1      26.544  10.744  17.310  1.00  0.00     0.134 C 
HETATM   12  N2  UNL     1      27.766  10.785  18.016  1.00  0.00    -0.204 NA
HETATM   13  S1  UNL     1      27.406  10.034  19.517  1.00  0.00     0.213 S 
HETATM   14  O3  UNL     1      28.487   9.182  20.056  1.00  0.00    -0.211 OA
HETATM   15  O4  UNL     1      26.822  10.975  20.514  1.00  0.00    -0.211 OA
HETATM   16  C19 UNL     1      26.124   8.918  18.908  1.00  0.00     0.184 C 
BRANCH  12  17
HETATM   17  C11 UNL     1      28.224  12.133  18.107  1.00  0.00     0.145 C 
BRANCH  17  18
HETATM   18  C12 UNL     1      28.393  12.843  16.850  1.00  0.00    -0.041 A 
HETATM   19  C13 UNL     1      29.310  12.456  15.914  1.00  0.00     0.011 A 
HETATM   20  C14 UNL     1      29.399  13.188  14.744  1.00  0.00     0.040 A 
HETATM   21  C15 UNL     1      28.607  14.280  14.492  1.00  0.00     0.105 A 
HETATM   22  C16 UNL     1      27.679  14.677  15.434  1.00  0.00     0.105 A 
HETATM   23  O2  UNL     1      28.519  15.162  13.398  1.00  0.00    -0.323 OA
HETATM   24  C17 UNL     1      27.605  13.937  16.589  1.00  0.00     0.048 A 
HETATM   25  O1  UNL     1      27.048  15.777  14.906  1.00  0.00    -0.323 OA
HETATM   26  C18 UNL     1      27.794  16.309  13.828  1.00  0.00     0.352 C 
ENDBRANCH  17  18
ENDBRANCH  12  17
ENDBRANCH   6  10
BRANCH   9  27
HETATM   27  C22 UNL     1      22.699   6.997  15.127  1.00  0.00    -0.035 C 
HETATM   28  C23 UNL     1      22.497   8.338  14.508  1.00  0.00     0.015 C 
HETATM   29  C24 UNL     1      21.351   6.675  15.823  1.00  0.00     0.015 C 
HETATM   30  C25 UNL     1      22.701   6.034  13.903  1.00  0.00     0.015 C 
ENDBRANCH   9  27
BRANCH   1  31
HETATM   31  C2  UNL     1      25.296   3.893  16.184  1.00  0.00    -0.051 C 
HETATM   32  C1  UNL     1      25.246   3.499  17.598  1.00  0.00     0.049 C 
HETATM   33  C3  UNL     1      25.032   2.872  15.320  1.00  0.00     0.091 C 
HETATM   34 CL1  UNL     1      25.073   3.253  13.616  1.00  0.00    -0.096 Cl
ENDBRANCH   1  31
TORSDOF 5
ENDMDL
MODEL 3
REMARK VINA RESULT: -7.781143052      1.519      1.990
REMARK  5 active torsions:
REMARK  status: ('A' for Active; 'I' for Inactive)
REMARK    1  A    between atoms: C2_2  and  C4_5 
REMARK    2  A    between atoms: N1_10  and  C9_11 
REMARK    3  A    between atoms: N2_13  and  C11_14 
REMARK    4  A    between atoms: C11_14  and  C12_15 
REMARK    5  A    between atoms: C21_30  and  C22_31 
ROOT
HETATM    1  C4  UNL     1      23.270   5.268  17.316  1.00  0.00     0.015 C 
HETATM    2  C5  UNL     1      23.948   6.241  16.785  1.00  0.00    -0.040 C 
HETATM    3  C6  UNL     1      25.441   6.074  16.908  1.00  0.00    -0.059 C 
HETATM    4  C7  UNL     1      25.992   4.930  16.134  1.00  0.00     0.046 C 
HETATM    5  C8  UNL     1      26.228   7.309  16.979  1.00  0.00     0.160 C 
HETATM    6  N1  UNL     1      25.423   8.438  17.325  1.00  0.00    -0.341 N 
HETATM    7  C20 UNL     1      24.193   8.629  16.658  1.00  0.00     0.229 C 
HETATM    8  O5  UNL     1      23.712   9.758  16.480  1.00  0.00    -0.273 OA
HETATM    9  C21 UNL     1      23.410   7.410  16.131  1.00  0.00     0.118 C 
ENDROOT
BRANCH   6  10
HETATM   10  C9  UNL     1      25.829   9.405  18.343  1.00  0.00     0.117 C 
HETATM   11  C10 UNL     1      26.797  10.379  17.830  1.00  0.00     0.134 C 
HETATM   12  N2  UNL     1      27.988  10.490  18.579  1.00  0.00    -0.204 NA
HETATM   13  S1  UNL     1      27.554   9.923  20.139  1.00  0.00     0.213 S 
HETATM   14  O3  UNL     1      28.599   9.129  20.820  1.00  0.00    -0.211 OA
HETATM   15  O4  UNL     1      26.944  10.980  20.994  1.00  0.00    -0.211 OA
HETATM   16  C19 UNL     1      26.282   8.757  19.609  1.00  0.00     0.184 C 
BRANCH  12  17
HETATM   17  C11 UNL     1      28.464  11.835  18.533  1.00  0.00     0.145 C 
BRANCH  17  18
HETATM   18  C12 UNL     1      28.619  12.418  17.211  1.00  0.00    -0.041 A 
HETATM   19  C13 UNL     1      29.466  11.889  16.277  1.00  0.00     0.011 A 
HETATM   20  C14 UNL     1      29.549  12.508  15.043  1.00  0.00     0.040 A 
HETATM   21  C15 UNL     1      28.817  13.624  14.725  1.00  0.00     0.105 A 
HETATM   22  C16 UNL     1      27.960  14.165  15.663  1.00  0.00     0.105 A 
HETATM   23  O2  UNL     1      28.736  14.411  13.560  1.00  0.00    -0.323 OA
HETATM   24  C17 UNL     1      27.893  13.536  16.882  1.00  0.00     0.048 A 
HETATM   25  O1  UNL     1      27.379  15.255  15.063  1.00  0.00    -0.323 OA
HETATM   26  C18 UNL     1      28.107  15.637  13.912  1.00  0.00     0.352 C 
ENDBRANCH  17  18
ENDBRANCH  12  17
ENDBRANCH   6  10
BRANCH   9  27
HETATM   27  C22 UNL     1      23.399   7.595  14.673  1.00  0.00    -0.035 C 
HETATM   28  C23 UNL     1      24.503   8.337  14.000  1.00  0.00     0.015 C 
HETATM   29  C24 UNL     1      22.103   8.320  14.223  1.00  0.00     0.015 C 
HETATM   30  C25 UNL     1      23.340   6.250  13.890  1.00  0.00     0.015 C 
ENDBRANCH   9  27
BRANCH   1  31
HETATM   31  C2  UNL     1      21.919   4.900  17.509  1.00  0.00    -0.051 C 
HETATM   32  C1  UNL     1      20.975   4.535  16.444  1.00  0.00     0.049 C 
HETATM   33  C3  UNL     1      21.358   4.938  18.751  1.00  0.00     0.091 C 
HETATM   34 CL1  UNL     1      22.412   5.367  20.077  1.00  0.00    -0.096 Cl
ENDBRANCH   1  31
TORSDOF 5
ENDMDL
MODEL 4
REMARK VINA RESULT: -7.628898161      2.361      2.970
REMARK  5 active torsions:
REMARK  status: ('A' for Active; 'I' for Inactive)
REMARK    1  A    between atoms: C2_2  and  C4_5 
REMARK    2  A    between atoms: N1_10  and  C9_11 
REMARK    3  A    between atoms: N2_13  and  C11_14 
REMARK    4  A    between atoms: C11_14  and  C12_15 
REMARK    5  A    between atoms: C21_30  and  C22_31 
ROOT
HETATM    1  C4  UNL     1      24.052   5.560  14.172  1.00  0.00     0.015 C 
HETATM    2  C5  UNL     1      24.071   6.383  15.178  1.00  0.00    -0.040 C 
HETATM    3  C6  UNL     1      24.390   7.803  14.790  1.00  0.00    -0.059 C 
HETATM    4  C7  UNL     1      23.350   8.455  13.951  1.00  0.00     0.046 C 
HETATM    5  C8  UNL     1      25.075   8.614  15.802  1.00  0.00     0.160 C 
HETATM    6  N1  UNL     1      25.677   7.807  16.817  1.00  0.00    -0.341 N 
HETATM    7  C20 UNL     1      24.923   6.761  17.394  1.00  0.00     0.229 C 
HETATM    8  O5  UNL     1      25.110   6.384  18.560  1.00  0.00    -0.273 OA
HETATM    9  C21 UNL     1      23.833   6.055  16.563  1.00  0.00     0.118 C 
ENDROOT
BRANCH   6  10
HETATM   10  C9  UNL     1      27.045   8.028  17.282  1.00  0.00     0.117 C 
HETATM   11  C10 UNL     1      27.446   9.434  17.182  1.00  0.00     0.134 C 
HETATM   12  N2  UNL     1      28.641   9.666  16.468  1.00  0.00    -0.204 NA
HETATM   13  S1  UNL     1      29.481   8.172  16.564  1.00  0.00     0.213 S 
HETATM   14  O3  UNL     1      30.215   7.796  15.337  1.00  0.00    -0.211 OA
HETATM   15  O4  UNL     1      30.281   8.033  17.814  1.00  0.00    -0.211 OA
HETATM   16  C19 UNL     1      28.029   7.103  16.646  1.00  0.00     0.184 C 
BRANCH  12  17
HETATM   17  C11 UNL     1      29.328  10.785  17.027  1.00  0.00     0.145 C 
BRANCH  17  18
HETATM   18  C12 UNL     1      28.895  12.097  16.577  1.00  0.00    -0.041 A 
HETATM   19  C13 UNL     1      28.193  12.948  17.385  1.00  0.00     0.011 A 
HETATM   20  C14 UNL     1      27.825  14.179  16.875  1.00  0.00     0.040 A 
HETATM   21  C15 UNL     1      28.137  14.575  15.598  1.00  0.00     0.105 A 
HETATM   22  C16 UNL     1      28.845  13.721  14.777  1.00  0.00     0.105 A 
HETATM   23  O2  UNL     1      27.875  15.754  14.876  1.00  0.00    -0.323 OA
HETATM   24  C17 UNL     1      29.202  12.503  15.301  1.00  0.00     0.048 A 
HETATM   25  O1  UNL     1      29.003  14.385  13.585  1.00  0.00    -0.323 OA
HETATM   26  C18 UNL     1      28.106  15.475  13.500  1.00  0.00     0.352 C 
ENDBRANCH  17  18
ENDBRANCH  12  17
ENDBRANCH   6  10
BRANCH   9  27
HETATM   27  C22 UNL     1      22.585   6.368  17.272  1.00  0.00    -0.035 C 
HETATM   28  C23 UNL     1      22.481   7.600  18.106  1.00  0.00     0.015 C 
HETATM   29  C24 UNL     1      22.189   5.211  18.225  1.00  0.00     0.015 C 
HETATM   30  C25 UNL     1      21.356   6.475  16.320  1.00  0.00     0.015 C 
ENDBRANCH   9  27
BRANCH   1  31
HETATM   31  C2  UNL     1      23.838   4.184  13.932  1.00  0.00    -0.051 C 
HETATM   32  C1  UNL     1      24.808   3.112  14.192  1.00  0.00     0.049 C 
HETATM   33  C3  UNL     1      22.687   3.752  13.343  1.00  0.00     0.091 C 
HETATM   34 CL1  UNL     1      21.478   4.965  12.996  1.00  0.00    -0.096 Cl
ENDBRANCH   1  31
TORSDOF 5
ENDMDL
MODEL 5
REMARK VINA RESULT: -7.610530008      1.528      1.871
REMARK  5 active torsions:
REMARK  status: ('A' for Active; 'I' for Inactive)
REMARK    1  A    between atoms: C2_2  and  C4_5 
REMARK    2  A    between atoms: N1_10  and  C9_11 
REMARK    3  A    between atoms: N2_13  and  C11_14 
REMARK    4  A    between atoms: C11_14  and  C12_15 
REMARK    5  A    between atoms: C21_30  and  C22_31 
ROOT
HETATM    1  C4  UNL     1      23.683   5.023  17.145  1.00  0.00     0.015 C 
HETATM    2  C5  UNL     1      24.229   6.081  16.621  1.00  0.00    -0.040 C 
HETATM    3  C6  UNL     1      25.735   6.059  16.646  1.00  0.00    -0.059 C 
HETATM    4  C7  UNL     1      26.344   5.009  15.786  1.00  0.00     0.046 C 
HETATM    5  C8  UNL     1      26.401   7.362  16.729  1.00  0.00     0.160 C 
HETATM    6  N1  UNL     1      25.514   8.389  17.177  1.00  0.00    -0.341 N 
HETATM    7  C20 UNL     1      24.231   8.484  16.595  1.00  0.00     0.229 C 
HETATM    8  O5  UNL     1      23.631   9.566  16.500  1.00  0.00    -0.273 OA
HETATM    9  C21 UNL     1      23.538   7.216  16.058  1.00  0.00     0.118 C 
ENDROOT
BRANCH   6  10
HETATM   10  C9  UNL     1      25.889   9.349  18.214  1.00  0.00     0.117 C 
HETATM   11  C10 UNL     1      26.862  10.335  17.734  1.00  0.00     0.134 C 
HETATM   12  N2  UNL     1      28.034  10.446  18.512  1.00  0.00    -0.204 NA
HETATM   13  S1  UNL     1      27.568   9.860  20.056  1.00  0.00     0.213 S 
HETATM   14  O3  UNL     1      28.602   9.066  20.753  1.00  0.00    -0.211 OA
HETATM   15  O4  UNL     1      26.930  10.904  20.907  1.00  0.00    -0.211 OA
HETATM   16  C19 UNL     1      26.317   8.691  19.484  1.00  0.00     0.184 C 
BRANCH  12  17
HETATM   17  C11 UNL     1      28.501  11.794  18.491  1.00  0.00     0.145 C 
BRANCH  17  18
HETATM   18  C12 UNL     1      28.639  12.409  17.181  1.00  0.00    -0.041 A 
HETATM   19  C13 UNL     1      29.491  11.915  16.232  1.00  0.00     0.011 A 
HETATM   20  C14 UNL     1      29.555  12.562  15.012  1.00  0.00     0.040 A 
HETATM   21  C15 UNL     1      28.800  13.670  14.720  1.00  0.00     0.105 A 
HETATM   22  C16 UNL     1      27.938  14.174  15.673  1.00  0.00     0.105 A 
HETATM   23  O2  UNL     1      28.698  14.479  13.572  1.00  0.00    -0.323 OA
HETATM   24  C17 UNL     1      27.888  13.518  16.879  1.00  0.00     0.048 A 
HETATM   25  O1  UNL     1      27.331  15.264  15.099  1.00  0.00    -0.323 OA
HETATM   26  C18 UNL     1      28.047  15.685  13.953  1.00  0.00     0.352 C 
ENDBRANCH  17  18
ENDBRANCH  12  17
ENDBRANCH   6  10
BRANCH   9  27
HETATM   27  C22 UNL     1      23.414   7.461  14.614  1.00  0.00    -0.035 C 
HETATM   28  C23 UNL     1      24.376   8.363  13.918  1.00  0.00     0.015 C 
HETATM   29  C24 UNL     1      22.015   8.036  14.273  1.00  0.00     0.015 C 
HETATM   30  C25 UNL     1      23.472   6.154  13.769  1.00  0.00     0.015 C 
ENDBRANCH   9  27
BRANCH   1  31
HETATM   31  C2  UNL     1      22.390   4.514  17.400  1.00  0.00    -0.051 C 
HETATM   32  C1  UNL     1      21.515   4.925  18.506  1.00  0.00     0.049 C 
HETATM   33  C3  UNL     1      21.879   3.502  16.643  1.00  0.00     0.091 C 
HETATM   34 CL1  UNL     1      22.859   2.949  15.306  1.00  0.00    -0.096 Cl
ENDBRANCH   1  31
TORSDOF 5
ENDMDL
