MODEL 1
REMARK VINA RESULT: -8.370247754      0.000      0.000
REMARK  5 active torsions:
REMARK  status: ('A' for Active; 'I' for Inactive)
REMARK    1  A    between atoms: O1_2  and  C2_3 
REMARK    2  A    between atoms: C2_3  and  C3_5 
REMARK    3  A    between atoms: C5_8  and  C6_9 
REMARK       I    between atoms: C6_9  and  N1_11 
REMARK    4  A    between atoms: C21_27  and  C22_28 
REMARK    5  A    between atoms: C23_29  and  C24_30 
ROOT
HETATM    1  C3  UNL     1      29.269   8.811  16.747  1.00  0.00     0.044 C 
HETATM    2  C4  UNL     1      28.842   7.596  17.012  1.00  0.00     0.149 C 
HETATM    3  O3  UNL     1      27.475   7.419  17.052  1.00  0.00    -0.347 OA
HETATM    4  C5  UNL     1      26.718   8.126  16.056  1.00  0.00     0.224 C 
HETATM    5  C16 UNL     1      26.961   9.634  16.263  1.00  0.00     0.037 C 
HETATM    6  C17 UNL     1      25.966  10.253  17.180  1.00  0.00     0.035 C 
HETATM    7  C18 UNL     1      26.416  10.503  18.554  1.00  0.00    -0.023 C 
HETATM    8  C19 UNL     1      27.660  10.820  18.774  1.00  0.00    -0.079 C 
HETATM    9  C20 UNL     1      28.082  11.070  20.195  1.00  0.00     0.044 C 
HETATM   10  C21 UNL     1      28.618  10.926  17.678  1.00  0.00     0.045 C 
HETATM   11  C26 UNL     1      28.382   9.970  16.526  1.00  0.00     0.045 C 
ENDROOT
BRANCH   4  12
HETATM   12  C6  UNL     1      25.327   7.728  16.179  1.00  0.00     0.251 C 
HETATM   13  O4  UNL     1      24.927   7.225  17.279  1.00  0.00    -0.270 OA
HETATM   14  N1  UNL     1      24.360   7.854  15.145  1.00  0.00    -0.331 N 
HETATM   15  C7  UNL     1      24.715   8.400  13.850  1.00  0.00     0.166 C 
HETATM   16  C15 UNL     1      22.981   7.429  15.372  1.00  0.00     0.164 C 
HETATM   17  C8  UNL     1      23.772   7.979  12.784  1.00  0.00    -0.034 A 
HETATM   18  C9  UNL     1      24.126   7.661  11.497  1.00  0.00     0.009 A 
HETATM   19  C13 UNL     1      22.411   7.902  13.100  1.00  0.00    -0.048 A 
HETATM   20  C10 UNL     1      23.143   7.283  10.578  1.00  0.00     0.001 A 
HETATM   21  C11 UNL     1      21.811   7.220  10.932  1.00  0.00     0.001 A 
HETATM   22  C12 UNL     1      21.444   7.540  12.228  1.00  0.00     0.008 A 
HETATM   23  C14 UNL     1      22.073   8.256  14.525  1.00  0.00     0.076 C 
HETATM   24 BR1  UNL     1      22.853   5.576  14.783  1.00  0.00    -0.068 Br
ENDBRANCH   4  12
BRANCH   1  25
HETATM   25  C2  UNL     1      30.738   8.972  16.706  1.00  0.00     0.291 C 
HETATM   26  O2  UNL     1      31.473   8.433  17.581  1.00  0.00    -0.260 OA
BRANCH  25  27
HETATM   27  O1  UNL     1      31.380   9.708  15.728  1.00  0.00    -0.323 OA
HETATM   28  C1  UNL     1      32.214   9.109  14.775  1.00  0.00     0.213 C 
ENDBRANCH  25  27
ENDBRANCH   1  25
BRANCH  10  29
HETATM   29  C22 UNL     1      28.713  12.343  17.225  1.00  0.00    -0.018 C 
HETATM   30  C23 UNL     1      28.659  12.691  15.962  1.00  0.00     0.003 C 
BRANCH  30  31
HETATM   31  C24 UNL     1      28.754  14.105  15.517  1.00  0.00     0.167 A 
HETATM   32  C25 UNL     1      27.639  15.005  15.422  1.00  0.00     0.204 A 
HETATM   33  O5  UNL     1      28.124  14.413  14.261  1.00  0.00    -0.377 OA
ENDBRANCH  30  31
ENDBRANCH  10  29
TORSDOF 5
ENDMDL
MODEL 2
REMARK VINA RESULT: -7.815777521      3.933      7.280
REMARK  5 active torsions:
REMARK  status: ('A' for Active; 'I' for Inactive)
REMARK    1  A    between atoms: O1_2  and  C2_3 
REMARK    2  A    between atoms: C2_3  and  C3_5 
REMARK    3  A    between atoms: C5_8  and  C6_9 
REMARK       I    between atoms: C6_9  and  N1_11 
REMARK    4  A    between atoms: C21_27  and  C22_28 
REMARK    5  A    between atoms: C23_29  and  C24_30 
ROOT
HETATM    1  C3  UNL     1      28.439  10.132  19.589  1.00  0.00     0.044 C 
HETATM    2  C4  UNL     1      28.682   8.858  19.811  1.00  0.00     0.149 C 
HETATM    3  O3  UNL     1      29.105   8.115  18.729  1.00  0.00    -0.347 OA
HETATM    4  C5  UNL     1      30.028   8.764  17.839  1.00  0.00     0.224 C 
HETATM    5  C16 UNL     1      29.325  10.006  17.257  1.00  0.00     0.037 C 
HETATM    6  C17 UNL     1      28.605   9.714  15.988  1.00  0.00     0.035 C 
HETATM    7  C18 UNL     1      27.151   9.557  16.086  1.00  0.00    -0.023 C 
HETATM    8  C19 UNL     1      26.487  10.257  16.961  1.00  0.00    -0.079 C 
HETATM    9  C20 UNL     1      24.997  10.069  17.030  1.00  0.00     0.044 C 
HETATM   10  C21 UNL     1      27.166  11.192  17.852  1.00  0.00     0.045 C 
HETATM   11  C26 UNL     1      28.564  10.780  18.269  1.00  0.00     0.045 C 
ENDROOT
BRANCH   4  12
HETATM   12  C6  UNL     1      30.447   7.798  16.840  1.00  0.00     0.251 C 
HETATM   13  O4  UNL     1      29.808   6.701  16.740  1.00  0.00    -0.270 OA
HETATM   14  N1  UNL     1      31.540   7.984  15.950  1.00  0.00    -0.331 N 
HETATM   15  C7  UNL     1      32.342   9.190  15.992  1.00  0.00     0.166 C 
HETATM   16  C15 UNL     1      31.877   6.951  14.974  1.00  0.00     0.164 C 
HETATM   17  C8  UNL     1      33.689   8.991  15.400  1.00  0.00    -0.034 A 
HETATM   18  C9  UNL     1      34.851   9.543  15.877  1.00  0.00     0.009 A 
HETATM   19  C13 UNL     1      33.797   8.184  14.263  1.00  0.00    -0.048 A 
HETATM   20  C10 UNL     1      36.062   9.286  15.228  1.00  0.00     0.001 A 
HETATM   21  C11 UNL     1      36.123   8.483  14.108  1.00  0.00     0.001 A 
HETATM   22  C12 UNL     1      34.956   7.922  13.619  1.00  0.00     0.008 A 
HETATM   23  C14 UNL     1      32.496   7.595  13.780  1.00  0.00     0.076 C 
HETATM   24 BR1  UNL     1      33.207   5.795  15.807  1.00  0.00    -0.068 Br
ENDBRANCH   4  12
BRANCH   1  25
HETATM   25  C2  UNL     1      27.992  10.906  20.766  1.00  0.00     0.291 C 
HETATM   26  O2  UNL     1      28.576  11.976  21.097  1.00  0.00    -0.260 OA
BRANCH  25  27
HETATM   27  O1  UNL     1      26.930  10.510  21.558  1.00  0.00    -0.323 OA
HETATM   28  C1  UNL     1      26.912  10.732  22.942  1.00  0.00     0.213 C 
ENDBRANCH  25  27
ENDBRANCH   1  25
BRANCH  10  29
HETATM   29  C22 UNL     1      27.134  12.562  17.266  1.00  0.00    -0.018 C 
HETATM   30  C23 UNL     1      28.204  13.312  17.151  1.00  0.00     0.003 C 
BRANCH  30  31
HETATM   31  C24 UNL     1      28.164  14.677  16.565  1.00  0.00     0.167 A 
HETATM   32  C25 UNL     1      27.507  15.016  15.334  1.00  0.00     0.204 A 
HETATM   33  O5  UNL     1      28.889  14.855  15.336  1.00  0.00    -0.377 OA
ENDBRANCH  30  31
ENDBRANCH  10  29
TORSDOF 5
ENDMDL
MODEL 3
REMARK VINA RESULT: -7.805276637      1.087      1.228
REMARK  5 active torsions:
REMARK  status: ('A' for Active; 'I' for Inactive)
REMARK    1  A    between atoms: O1_2  and  C2_3 
REMARK    2  A    between atoms: C2_3  and  C3_5 
REMARK    3  A    between atoms: C5_8  and  C6_9 
REMARK       I    between atoms: C6_9  and  N1_11 
REMARK    4  A    between atoms: C21_27  and  C22_28 
REMARK    5  A    between atoms: C23_29  and  C24_30 
ROOT
HETATM    1  C3  UNL     1      28.172   8.907  16.555  1.00  0.00     0.044 C 
HETATM    2  C4  UNL     1      27.932   7.618  16.667  1.00  0.00     0.149 C 
HETATM    3  O3  UNL     1      26.608   7.246  16.775  1.00  0.00    -0.347 OA
HETATM    4  C5  UNL     1      25.680   7.968  15.948  1.00  0.00     0.224 C 
HETATM    5  C16 UNL     1      25.742   9.452  16.358  1.00  0.00     0.037 C 
HETATM    6  C17 UNL     1      24.761   9.793  17.423  1.00  0.00     0.035 C 
HETATM    7  C18 UNL     1      25.294   9.915  18.784  1.00  0.00    -0.023 C 
HETATM    8  C19 UNL     1      26.501  10.372  18.962  1.00  0.00    -0.079 C 
HETATM    9  C20 UNL     1      27.011  10.482  20.372  1.00  0.00     0.044 C 
HETATM   10  C21 UNL     1      27.336  10.760  17.830  1.00  0.00     0.045 C 
HETATM   11  C26 UNL     1      27.125   9.948  16.569  1.00  0.00     0.045 C 
ENDROOT
BRANCH   4  12
HETATM   12  C6  UNL     1      24.369   7.363  16.107  1.00  0.00     0.251 C 
HETATM   13  O4  UNL     1      24.123   6.701  17.166  1.00  0.00    -0.270 OA
HETATM   14  N1  UNL     1      23.322   7.452  15.150  1.00  0.00    -0.331 N 
HETATM   15  C7  UNL     1      23.505   8.170  13.905  1.00  0.00     0.166 C 
HETATM   16  C15 UNL     1      22.034   6.813  15.409  1.00  0.00     0.164 C 
HETATM   17  C8  UNL     1      22.553   7.727  12.855  1.00  0.00    -0.034 A 
HETATM   18  C9  UNL     1      22.853   7.593  11.523  1.00  0.00     0.009 A 
HETATM   19  C13 UNL     1      21.242   7.424  13.238  1.00  0.00    -0.048 A 
HETATM   20  C10 UNL     1      21.867   7.172  10.626  1.00  0.00     0.001 A 
HETATM   21  C11 UNL     1      20.586   6.883  11.047  1.00  0.00     0.001 A 
HETATM   22  C12 UNL     1      20.273   7.016  12.389  1.00  0.00     0.008 A 
HETATM   23  C14 UNL     1      20.963   7.581  14.711  1.00  0.00     0.076 C 
HETATM   24 BR1  UNL     1      22.120   5.029  14.629  1.00  0.00    -0.068 Br
ENDBRANCH   4  12
BRANCH   1  25
HETATM   25  C2  UNL     1      29.598   9.278  16.437  1.00  0.00     0.291 C 
HETATM   26  O2  UNL     1      30.377   9.178  17.427  1.00  0.00    -0.260 OA
BRANCH  25  27
HETATM   27  O1  UNL     1      30.150   9.747  15.260  1.00  0.00    -0.323 OA
HETATM   28  C1  UNL     1      31.463   9.437  14.880  1.00  0.00     0.213 C 
ENDBRANCH  25  27
ENDBRANCH   1  25
BRANCH  10  29
HETATM   29  C22 UNL     1      27.204  12.225  17.585  1.00  0.00    -0.018 C 
HETATM   30  C23 UNL     1      27.633  12.804  16.490  1.00  0.00     0.003 C 
BRANCH  30  31
HETATM   31  C24 UNL     1      27.499  14.265  16.252  1.00  0.00     0.167 A 
HETATM   32  C25 UNL     1      27.863  14.928  15.032  1.00  0.00     0.204 A 
HETATM   33  O5  UNL     1      28.730  14.995  16.117  1.00  0.00    -0.377 OA
ENDBRANCH  30  31
ENDBRANCH  10  29
TORSDOF 5
ENDMDL
MODEL 4
REMARK VINA RESULT: -7.533691525      2.998      5.475
REMARK  5 active torsions:
REMARK  status: ('A' for Active; 'I' for Inactive)
REMARK    1  A    between atoms: O1_2  and  C2_3 
REMARK    2  A    between atoms: C2_3  and  C3_5 
REMARK    3  A    between atoms: C5_8  and  C6_9 
REMARK       I    between atoms: C6_9  and  N1_11 
REMARK    4  A    between atoms: C21_27  and  C22_28 
REMARK    5  A    between atoms: C23_29  and  C24_30 
ROOT
HETATM    1  C3  UNL     1      25.778  10.009  17.282  1.00  0.00     0.044 C 
HETATM    2  C4  UNL     1      26.537   9.812  16.226  1.00  0.00     0.149 C 
HETATM    3  O3  UNL     1      26.166   8.783  15.385  1.00  0.00    -0.347 OA
HETATM    4  C5  UNL     1      24.755   8.633  15.156  1.00  0.00     0.224 C 
HETATM    5  C16 UNL     1      24.088   8.338  16.514  1.00  0.00     0.037 C 
HETATM    6  C17 UNL     1      24.000   6.881  16.803  1.00  0.00     0.035 C 
HETATM    7  C18 UNL     1      24.990   6.344  17.741  1.00  0.00    -0.023 C 
HETATM    8  C19 UNL     1      25.416   7.089  18.721  1.00  0.00    -0.079 C 
HETATM    9  C20 UNL     1      26.430   6.501  19.663  1.00  0.00     0.044 C 
HETATM   10  C21 UNL     1      24.930   8.453  18.900  1.00  0.00     0.045 C 
HETATM   11  C26 UNL     1      24.597   9.189  17.618  1.00  0.00     0.045 C 
ENDROOT
BRANCH   4  12
HETATM   12  C6  UNL     1      24.567   7.590  14.164  1.00  0.00     0.251 C 
HETATM   13  O4  UNL     1      25.579   6.920  13.778  1.00  0.00    -0.270 OA
HETATM   14  N1  UNL     1      23.317   7.256  13.575  1.00  0.00    -0.331 N 
HETATM   15  C7  UNL     1      22.107   7.968  13.934  1.00  0.00     0.166 C 
HETATM   16  C15 UNL     1      23.233   6.182  12.588  1.00  0.00     0.164 C 
HETATM   17  C8  UNL     1      21.059   7.860  12.887  1.00  0.00    -0.034 A 
HETATM   18  C9  UNL     1      20.206   8.868  12.516  1.00  0.00     0.009 A 
HETATM   19  C13 UNL     1      20.916   6.637  12.223  1.00  0.00    -0.048 A 
HETATM   20  C10 UNL     1      19.254   8.642  11.518  1.00  0.00     0.001 A 
HETATM   21  C11 UNL     1      19.146   7.420  10.887  1.00  0.00     0.001 A 
HETATM   22  C12 UNL     1      20.002   6.397  11.255  1.00  0.00     0.008 A 
HETATM   23  C14 UNL     1      21.878   5.563  12.660  1.00  0.00     0.076 C 
HETATM   24 BR1  UNL     1      23.441   7.005  10.834  1.00  0.00    -0.068 Br
ENDBRANCH   4  12
BRANCH   1  25
HETATM   25  C2  UNL     1      26.195  11.119  18.164  1.00  0.00     0.291 C 
HETATM   26  O2  UNL     1      26.455  12.261  17.689  1.00  0.00    -0.260 OA
BRANCH  25  27
HETATM   27  O1  UNL     1      26.325  10.975  19.533  1.00  0.00    -0.323 OA
HETATM   28  C1  UNL     1      27.535  10.598  20.129  1.00  0.00     0.213 C 
ENDBRANCH  25  27
ENDBRANCH   1  25
BRANCH  10  29
HETATM   29  C22 UNL     1      23.793   8.461  19.865  1.00  0.00    -0.018 C 
HETATM   30  C23 UNL     1      22.900   7.502  19.919  1.00  0.00     0.003 C 
BRANCH  30  31
HETATM   31  C24 UNL     1      21.768   7.517  20.883  1.00  0.00     0.167 A 
HETATM   32  C25 UNL     1      20.933   6.386  21.175  1.00  0.00     0.204 A 
HETATM   33  O5  UNL     1      20.456   7.369  20.314  1.00  0.00    -0.377 OA
ENDBRANCH  30  31
ENDBRANCH  10  29
TORSDOF 5
ENDMDL
MODEL 5
REMARK VINA RESULT: -7.496804676      3.849      7.830
REMARK  5 active torsions:
REMARK  status: ('A' for Active; 'I' for Inactive)
REMARK    1  A    between atoms: O1_2  and  C2_3 
REMARK    2  A    between atoms: C2_3  and  C3_5 
REMARK    3  A    between atoms: C5_8  and  C6_9 
REMARK       I    between atoms: C6_9  and  N1_11 
REMARK    4  A    between atoms: C21_27  and  C22_28 
REMARK    5  A    between atoms: C23_29  and  C24_30 
ROOT
HETATM    1  C3  UNL     1      28.255   9.881  19.505  1.00  0.00     0.044 C 
HETATM    2  C4  UNL     1      28.532   8.609  19.696  1.00  0.00     0.149 C 
HETATM    3  O3  UNL     1      29.134   7.946  18.647  1.00  0.00    -0.347 OA
HETATM    4  C5  UNL     1      30.134   8.684  17.925  1.00  0.00     0.224 C 
HETATM    5  C16 UNL     1      29.453   9.924  17.314  1.00  0.00     0.037 C 
HETATM    6  C17 UNL     1      28.928   9.671  15.945  1.00  0.00     0.035 C 
HETATM    7  C18 UNL     1      27.484   9.445  15.834  1.00  0.00    -0.023 C 
HETATM    8  C19 UNL     1      26.673  10.065  16.643  1.00  0.00    -0.079 C 
HETATM    9  C20 UNL     1      25.199   9.807  16.497  1.00  0.00     0.044 C 
HETATM   10  C21 UNL     1      27.176  10.978  17.664  1.00  0.00     0.045 C 
HETATM   11  C26 UNL     1      28.524  10.607  18.248  1.00  0.00     0.045 C 
ENDROOT
BRANCH   4  12
HETATM   12  C6  UNL     1      30.734   7.794  16.947  1.00  0.00     0.251 C 
HETATM   13  O4  UNL     1      30.016   6.881  16.426  1.00  0.00    -0.270 OA
HETATM   14  N1  UNL     1      32.089   7.863  16.522  1.00  0.00    -0.331 N 
HETATM   15  C7  UNL     1      32.994   8.856  17.064  1.00  0.00     0.166 C 
HETATM   16  C15 UNL     1      32.594   6.923  15.524  1.00  0.00     0.164 C 
HETATM   17  C8  UNL     1      34.417   8.458  16.919  1.00  0.00    -0.034 A 
HETATM   18  C9  UNL     1      35.399   8.684  17.852  1.00  0.00     0.009 A 
HETATM   19  C13 UNL     1      34.804   7.807  15.744  1.00  0.00    -0.048 A 
HETATM   20  C10 UNL     1      36.708   8.266  17.598  1.00  0.00     0.001 A 
HETATM   21  C11 UNL     1      37.047   7.626  16.424  1.00  0.00     0.001 A 
HETATM   22  C12 UNL     1      36.063   7.395  15.477  1.00  0.00     0.008 A 
HETATM   23  C14 UNL     1      33.690   7.577  14.754  1.00  0.00     0.076 C 
HETATM   24 BR1  UNL     1      33.344   5.411  16.498  1.00  0.00    -0.068 Br
ENDBRANCH   4  12
BRANCH   1  25
HETATM   25  C2  UNL     1      27.614  10.568  20.646  1.00  0.00     0.291 C 
HETATM   26  O2  UNL     1      26.493  10.184  21.085  1.00  0.00    -0.260 OA
BRANCH  25  27
HETATM   27  O1  UNL     1      28.192  11.649  21.285  1.00  0.00    -0.323 OA
HETATM   28  C1  UNL     1      28.574  11.599  22.632  1.00  0.00     0.213 C 
ENDBRANCH  25  27
ENDBRANCH   1  25
BRANCH  10  29
HETATM   29  C22 UNL     1      27.153  12.376  17.146  1.00  0.00    -0.018 C 
HETATM   30  C23 UNL     1      28.218  13.140  17.113  1.00  0.00     0.003 C 
BRANCH  30  31
HETATM   31  C24 UNL     1      28.188  14.533  16.596  1.00  0.00     0.167 A 
HETATM   32  C25 UNL     1      27.577  14.928  15.358  1.00  0.00     0.204 A 
HETATM   33  O5  UNL     1      28.959  14.779  15.407  1.00  0.00    -0.377 OA
ENDBRANCH  30  31
ENDBRANCH  10  29
TORSDOF 5
ENDMDL
