MODEL 1
REMARK VINA RESULT: -7.492544092      0.000      0.000
REMARK  4 active torsions:
REMARK  status: ('A' for Active; 'I' for Inactive)
REMARK    1  A    between atoms: S1_3  and  N1_6 
REMARK    2  A    between atoms: N2_17  and  C11_18 
REMARK    3  A    between atoms: C11_18  and  C12_19 
REMARK    4  A    between atoms: C16_23  and  N3_24 
ROOT
HETATM    1  C1  UNL     1      12.049  51.475  65.979  1.00  0.00     0.031 C 
HETATM    2  C2  UNL     1      12.393  50.385  65.582  1.00  0.00     0.038 C 
HETATM    3  S1  UNL     1      12.920  48.850  65.021  1.00  0.00     0.311 S 
HETATM    4  O1  UNL     1      13.644  48.020  66.040  1.00  0.00    -0.191 OA
HETATM    5  O2  UNL     1      11.572  48.065  65.067  1.00  0.00    -0.191 OA
ENDROOT
BRANCH   3   6
HETATM    6  N1  UNL     1      13.388  48.735  63.419  1.00  0.00    -0.192 N 
HETATM    7  C3  UNL     1      12.597  48.041  62.411  1.00  0.00     0.247 C 
HETATM    8  O3  UNL     1      11.884  47.105  62.827  1.00  0.00    -0.271 OA
HETATM    9  C4  UNL     1      12.719  48.508  61.026  1.00  0.00     0.039 C 
HETATM   10  C5  UNL     1      12.174  49.925  60.840  1.00  0.00     0.025 C 
HETATM   11  C6  UNL     1      12.006  47.559  60.073  1.00  0.00     0.025 C 
HETATM   12  C7  UNL     1      14.173  48.558  60.574  1.00  0.00     0.060 C 
HETATM   13  C8  UNL     1      14.994  49.195  61.612  1.00  0.00    -0.011 A 
HETATM   14  C9  UNL     1      14.606  49.302  62.934  1.00  0.00     0.130 A 
HETATM   15  C26 UNL     1      16.197  49.742  61.232  1.00  0.00     0.003 A 
HETATM   16  C10 UNL     1      15.436  49.944  63.779  1.00  0.00     0.281 A 
HETATM   17  O4  UNL     1      15.143  50.077  64.991  1.00  0.00    -0.265 OA
HETATM   18  N2  UNL     1      16.654  50.514  63.445  1.00  0.00    -0.283 N 
HETATM   19  C21 UNL     1      17.024  50.404  62.162  1.00  0.00     0.091 A 
HETATM   20  C22 UNL     1      18.212  50.922  61.718  1.00  0.00     0.144 A 
HETATM   21  F1  UNL     1      19.017  51.563  62.589  1.00  0.00    -0.204 F 
HETATM   22  C23 UNL     1      18.645  50.827  60.386  1.00  0.00     0.045 A 
HETATM   23  C24 UNL     1      17.831  50.183  59.504  1.00  0.00     0.004 A 
HETATM   24  C25 UNL     1      16.616  49.643  59.922  1.00  0.00     0.014 A 
BRANCH  18  25
HETATM   25  C11 UNL     1      17.375  51.154  64.413  1.00  0.00     0.113 C 
BRANCH  25  26
HETATM   26  C12 UNL     1      18.340  50.202  65.063  1.00  0.00    -0.012 A 
HETATM   27  C13 UNL     1      18.118  48.844  65.069  1.00  0.00     0.013 A 
HETATM   28  C14 UNL     1      19.024  47.990  65.684  1.00  0.00     0.003 A 
HETATM   29  C15 UNL     1      20.158  48.456  66.300  1.00  0.00     0.030 A 
HETATM   30  C16 UNL     1      20.393  49.813  66.301  1.00  0.00     0.036 A 
HETATM   31  C19 UNL     1      19.492  50.641  65.692  1.00  0.00    -0.024 A 
HETATM   32  C20 UNL     1      19.740  52.101  65.710  1.00  0.00     0.051 C 
BRANCH  30  33
HETATM   33  N3  UNL     1      21.585  50.289  66.917  1.00  0.00    -0.389 N 
HETATM   34  C17 UNL     1      22.813  50.333  66.160  1.00  0.00     0.149 C 
HETATM   35  C18 UNL     1      21.611  50.743  68.307  1.00  0.00     0.149 C 
ENDBRANCH  30  33
ENDBRANCH  25  26
ENDBRANCH  18  25
ENDBRANCH   3   6
TORSDOF 4
ENDMDL
MODEL 2
REMARK VINA RESULT: -7.263659788      1.739      2.633
REMARK  4 active torsions:
REMARK  status: ('A' for Active; 'I' for Inactive)
REMARK    1  A    between atoms: S1_3  and  N1_6 
REMARK    2  A    between atoms: N2_17  and  C11_18 
REMARK    3  A    between atoms: C11_18  and  C12_19 
REMARK    4  A    between atoms: C16_23  and  N3_24 
ROOT
HETATM    1  C1  UNL     1      12.399  49.698  66.690  1.00  0.00     0.031 C 
HETATM    2  C2  UNL     1      12.745  48.788  65.969  1.00  0.00     0.038 C 
HETATM    3  S1  UNL     1      13.272  47.511  64.951  1.00  0.00     0.311 S 
HETATM    4  O1  UNL     1      14.088  46.454  65.635  1.00  0.00    -0.191 OA
HETATM    5  O2  UNL     1      11.952  46.685  64.843  1.00  0.00    -0.191 OA
ENDROOT
BRANCH   3   6
HETATM    6  N1  UNL     1      13.629  47.891  63.361  1.00  0.00    -0.192 N 
HETATM    7  C3  UNL     1      12.791  47.481  62.242  1.00  0.00     0.247 C 
HETATM    8  O3  UNL     1      12.139  46.429  62.405  1.00  0.00    -0.271 OA
HETATM    9  C4  UNL     1      12.799  48.336  61.050  1.00  0.00     0.039 C 
HETATM   10  C5  UNL     1      12.199  49.716  61.321  1.00  0.00     0.025 C 
HETATM   11  C6  UNL     1      12.052  47.671  59.904  1.00  0.00     0.025 C 
HETATM   12  C7  UNL     1      14.216  48.590  60.549  1.00  0.00     0.060 C 
HETATM   13  C8  UNL     1      15.088  48.938  61.678  1.00  0.00    -0.011 A 
HETATM   14  C9  UNL     1      14.791  48.636  62.994  1.00  0.00     0.130 A 
HETATM   15  C26 UNL     1      16.243  49.633  61.407  1.00  0.00     0.003 A 
HETATM   16  C10 UNL     1      15.657  49.046  63.940  1.00  0.00     0.281 A 
HETATM   17  O4  UNL     1      15.447  48.805  65.153  1.00  0.00    -0.265 OA
HETATM   18  N2  UNL     1      16.831  49.750  63.718  1.00  0.00    -0.283 N 
HETATM   19  C21 UNL     1      17.112  50.037  62.439  1.00  0.00     0.091 A 
HETATM   20  C22 UNL     1      18.248  50.722  62.099  1.00  0.00     0.144 A 
HETATM   21  F1  UNL     1      19.092  51.122  63.071  1.00  0.00    -0.204 F 
HETATM   22  C23 UNL     1      18.589  51.041  60.775  1.00  0.00     0.045 A 
HETATM   23  C24 UNL     1      17.736  50.641  59.791  1.00  0.00     0.004 A 
HETATM   24  C25 UNL     1      16.571  49.941  60.102  1.00  0.00     0.014 A 
BRANCH  18  25
HETATM   25  C11 UNL     1      17.597  50.117  64.787  1.00  0.00     0.113 C 
BRANCH  25  26
HETATM   26  C12 UNL     1      17.185  51.475  65.284  1.00  0.00    -0.012 A 
HETATM   27  C13 UNL     1      15.939  51.994  65.015  1.00  0.00     0.013 A 
HETATM   28  C14 UNL     1      15.591  53.254  65.481  1.00  0.00     0.003 A 
HETATM   29  C15 UNL     1      16.458  54.022  66.216  1.00  0.00     0.030 A 
HETATM   30  C16 UNL     1      17.708  53.515  66.494  1.00  0.00     0.036 A 
HETATM   31  C19 UNL     1      18.037  52.273  66.028  1.00  0.00    -0.024 A 
HETATM   32  C20 UNL     1      19.389  51.739  66.315  1.00  0.00     0.051 C 
BRANCH  30  33
HETATM   33  N3  UNL     1      18.593  54.304  67.281  1.00  0.00    -0.389 N 
HETATM   34  C17 UNL     1      18.532  54.228  68.721  1.00  0.00     0.149 C 
HETATM   35  C18 UNL     1      19.579  55.199  66.676  1.00  0.00     0.149 C 
ENDBRANCH  30  33
ENDBRANCH  25  26
ENDBRANCH  18  25
ENDBRANCH   3   6
TORSDOF 4
ENDMDL
MODEL 3
REMARK VINA RESULT: -7.010868934      4.058      7.176
REMARK  4 active torsions:
REMARK  status: ('A' for Active; 'I' for Inactive)
REMARK    1  A    between atoms: S1_3  and  N1_6 
REMARK    2  A    between atoms: N2_17  and  C11_18 
REMARK    3  A    between atoms: C11_18  and  C12_19 
REMARK    4  A    between atoms: C16_23  and  N3_24 
ROOT
HETATM    1  C1  UNL     1       9.446  42.969  60.832  1.00  0.00     0.031 C 
HETATM    2  C2  UNL     1       9.472  43.939  60.108  1.00  0.00     0.038 C 
HETATM    3  S1  UNL     1       9.538  45.330  59.104  1.00  0.00     0.311 S 
HETATM    4  O1  UNL     1      10.805  45.479  58.313  1.00  0.00    -0.191 OA
HETATM    5  O2  UNL     1       8.637  44.856  57.921  1.00  0.00    -0.191 OA
ENDROOT
BRANCH   3   6
HETATM    6  N1  UNL     1       8.772  46.712  59.653  1.00  0.00    -0.192 N 
HETATM    7  C3  UNL     1       7.546  47.227  59.057  1.00  0.00     0.247 C 
HETATM    8  O3  UNL     1       7.375  46.967  57.848  1.00  0.00    -0.271 OA
HETATM    9  C4  UNL     1       6.647  47.990  59.929  1.00  0.00     0.039 C 
HETATM   10  C5  UNL     1       6.044  47.129  61.040  1.00  0.00     0.025 C 
HETATM   11  C6  UNL     1       5.530  48.635  59.121  1.00  0.00     0.025 C 
HETATM   12  C7  UNL     1       7.377  49.127  60.635  1.00  0.00     0.060 C 
HETATM   13  C8  UNL     1       8.649  48.637  61.181  1.00  0.00    -0.011 A 
HETATM   14  C9  UNL     1       9.279  47.490  60.738  1.00  0.00     0.130 A 
HETATM   15  C26 UNL     1       9.219  49.345  62.213  1.00  0.00     0.003 A 
HETATM   16  C10 UNL     1      10.423  47.129  61.351  1.00  0.00     0.281 A 
HETATM   17  O4  UNL     1      11.045  46.098  60.998  1.00  0.00    -0.265 OA
HETATM   18  N2  UNL     1      11.035  47.805  62.394  1.00  0.00    -0.283 N 
HETATM   19  C21 UNL     1      10.419  48.918  62.816  1.00  0.00     0.091 A 
HETATM   20  C22 UNL     1      10.935  49.673  63.835  1.00  0.00     0.144 A 
HETATM   21  F1  UNL     1      12.080  49.281  64.430  1.00  0.00    -0.204 F 
HETATM   22  C23 UNL     1      10.331  50.848  64.308  1.00  0.00     0.045 A 
HETATM   23  C24 UNL     1       9.172  51.244  63.711  1.00  0.00     0.004 A 
HETATM   24  C25 UNL     1       8.619  50.500  62.670  1.00  0.00     0.014 A 
BRANCH  18  25
HETATM   25  C11 UNL     1      12.187  47.300  62.929  1.00  0.00     0.113 C 
BRANCH  25  26
HETATM   26  C12 UNL     1      13.385  47.985  62.332  1.00  0.00    -0.012 A 
HETATM   27  C13 UNL     1      13.446  48.293  60.992  1.00  0.00     0.013 A 
HETATM   28  C14 UNL     1      14.569  48.919  60.469  1.00  0.00     0.003 A 
HETATM   29  C15 UNL     1      15.647  49.249  61.251  1.00  0.00     0.030 A 
HETATM   30  C16 UNL     1      15.599  48.947  62.595  1.00  0.00     0.036 A 
HETATM   31  C19 UNL     1      14.487  48.330  63.095  1.00  0.00    -0.024 A 
HETATM   32  C20 UNL     1      14.447  47.991  64.536  1.00  0.00     0.051 C 
BRANCH  30  33
HETATM   33  N3  UNL     1      16.708  49.316  63.406  1.00  0.00    -0.389 N 
HETATM   34  C17 UNL     1      17.317  50.615  63.238  1.00  0.00     0.149 C 
HETATM   35  C18 UNL     1      17.260  48.419  64.421  1.00  0.00     0.149 C 
ENDBRANCH  30  33
ENDBRANCH  25  26
ENDBRANCH  18  25
ENDBRANCH   3   6
TORSDOF 4
ENDMDL
MODEL 4
REMARK VINA RESULT: -6.821930909      4.727      8.083
REMARK  4 active torsions:
REMARK  status: ('A' for Active; 'I' for Inactive)
REMARK    1  A    between atoms: S1_3  and  N1_6 
REMARK    2  A    between atoms: N2_17  and  C11_18 
REMARK    3  A    between atoms: C11_18  and  C12_19 
REMARK    4  A    between atoms: C16_23  and  N3_24 
ROOT
HETATM    1  C1  UNL     1       9.789  49.928  65.168  1.00  0.00     0.031 C 
HETATM    2  C2  UNL     1       8.844  49.216  64.910  1.00  0.00     0.038 C 
HETATM    3  S1  UNL     1       7.529  48.183  64.523  1.00  0.00     0.311 S 
HETATM    4  O1  UNL     1       7.599  46.814  65.134  1.00  0.00    -0.191 OA
HETATM    5  O2  UNL     1       6.438  48.758  65.479  1.00  0.00    -0.191 OA
ENDROOT
BRANCH   3   6
HETATM    6  N1  UNL     1       6.845  48.345  63.004  1.00  0.00    -0.192 N 
HETATM    7  C3  UNL     1       5.522  48.915  62.789  1.00  0.00     0.247 C 
HETATM    8  O3  UNL     1       4.710  48.781  63.729  1.00  0.00    -0.271 OA
HETATM    9  C4  UNL     1       5.280  49.581  61.505  1.00  0.00     0.039 C 
HETATM   10  C5  UNL     1       6.128  50.843  61.336  1.00  0.00     0.025 C 
HETATM   11  C6  UNL     1       3.808  49.932  61.348  1.00  0.00     0.025 C 
HETATM   12  C7  UNL     1       5.635  48.681  60.328  1.00  0.00     0.060 C 
HETATM   13  C8  UNL     1       6.937  48.046  60.563  1.00  0.00    -0.011 A 
HETATM   14  C9  UNL     1       7.511  47.920  61.814  1.00  0.00     0.130 A 
HETATM   15  C26 UNL     1       7.633  47.584  59.471  1.00  0.00     0.003 A 
HETATM   16  C10 UNL     1       8.729  47.351  61.889  1.00  0.00     0.281 A 
HETATM   17  O4  UNL     1       9.306  47.207  62.994  1.00  0.00    -0.265 OA
HETATM   18  N2  UNL     1       9.470  46.873  60.819  1.00  0.00    -0.283 N 
HETATM   19  C21 UNL     1       8.906  46.996  59.610  1.00  0.00     0.091 A 
HETATM   20  C22 UNL     1       9.542  46.553  58.481  1.00  0.00     0.144 A 
HETATM   21  F1  UNL     1      10.763  45.992  58.591  1.00  0.00    -0.204 F 
HETATM   22  C23 UNL     1       8.990  46.655  57.195  1.00  0.00     0.045 A 
HETATM   23  C24 UNL     1       7.758  47.225  57.081  1.00  0.00     0.004 A 
HETATM   24  C25 UNL     1       7.082  47.686  58.210  1.00  0.00     0.014 A 
BRANCH  18  25
HETATM   25  C11 UNL     1      10.707  46.340  61.053  1.00  0.00     0.113 C 
BRANCH  25  26
HETATM   26  C12 UNL     1      11.724  47.434  61.225  1.00  0.00    -0.012 A 
HETATM   27  C13 UNL     1      11.790  48.500  60.357  1.00  0.00     0.013 A 
HETATM   28  C14 UNL     1      12.745  49.490  60.537  1.00  0.00     0.003 A 
HETATM   29  C15 UNL     1      13.648  49.449  61.569  1.00  0.00     0.030 A 
HETATM   30  C16 UNL     1      13.594  48.388  62.447  1.00  0.00     0.036 A 
HETATM   31  C19 UNL     1      12.647  47.421  62.256  1.00  0.00    -0.024 A 
HETATM   32  C20 UNL     1      12.603  46.273  63.191  1.00  0.00     0.051 C 
BRANCH  30  33
HETATM   33  N3  UNL     1      14.514  48.365  63.531  1.00  0.00    -0.389 N 
HETATM   34  C17 UNL     1      15.808  47.747  63.359  1.00  0.00     0.149 C 
HETATM   35  C18 UNL     1      14.196  48.954  64.831  1.00  0.00     0.149 C 
ENDBRANCH  30  33
ENDBRANCH  25  26
ENDBRANCH  18  25
ENDBRANCH   3   6
TORSDOF 4
ENDMDL
MODEL 5
REMARK VINA RESULT: -6.807692314      9.360     13.149
REMARK  4 active torsions:
REMARK  status: ('A' for Active; 'I' for Inactive)
REMARK    1  A    between atoms: S1_3  and  N1_6 
REMARK    2  A    between atoms: N2_17  and  C11_18 
REMARK    3  A    between atoms: C11_18  and  C12_19 
REMARK    4  A    between atoms: C16_23  and  N3_24 
ROOT
HETATM    1  C1  UNL     1      10.262  48.097  59.343  1.00  0.00     0.031 C 
HETATM    2  C2  UNL     1       9.303  47.485  58.928  1.00  0.00     0.038 C 
HETATM    3  S1  UNL     1       7.920  46.635  58.368  1.00  0.00     0.311 S 
HETATM    4  O1  UNL     1       6.871  47.491  57.722  1.00  0.00    -0.191 OA
HETATM    5  O2  UNL     1       8.492  46.019  57.054  1.00  0.00    -0.191 OA
ENDROOT
BRANCH   3   6
HETATM    6  N1  UNL     1       7.430  45.299  59.248  1.00  0.00    -0.192 N 
HETATM    7  C3  UNL     1       7.629  43.931  58.787  1.00  0.00     0.247 C 
HETATM    8  O3  UNL     1       7.661  43.772  57.549  1.00  0.00    -0.271 OA
HETATM    9  C4  UNL     1       7.767  42.892  59.812  1.00  0.00     0.039 C 
HETATM   10  C5  UNL     1       9.039  43.062  60.645  1.00  0.00     0.025 C 
HETATM   11  C6  UNL     1       7.753  41.507  59.182  1.00  0.00     0.025 C 
HETATM   12  C7  UNL     1       6.612  42.923  60.806  1.00  0.00     0.060 C 
HETATM   13  C8  UNL     1       6.357  44.306  61.228  1.00  0.00    -0.011 A 
HETATM   14  C9  UNL     1       6.770  45.412  60.510  1.00  0.00     0.130 A 
HETATM   15  C26 UNL     1       5.701  44.502  62.420  1.00  0.00     0.003 A 
HETATM   16  C10 UNL     1       6.505  46.627  61.027  1.00  0.00     0.281 A 
HETATM   17  O4  UNL     1       6.854  47.672  60.426  1.00  0.00    -0.265 OA
HETATM   18  N2  UNL     1       5.851  46.877  62.223  1.00  0.00    -0.283 N 
HETATM   19  C21 UNL     1       5.451  45.799  62.912  1.00  0.00     0.091 A 
HETATM   20  C22 UNL     1       4.789  45.923  64.103  1.00  0.00     0.144 A 
HETATM   21  F1  UNL     1       4.544  47.155  64.595  1.00  0.00    -0.204 F 
HETATM   22  C23 UNL     1       4.346  44.826  64.858  1.00  0.00     0.045 A 
HETATM   23  C24 UNL     1       4.596  43.581  64.365  1.00  0.00     0.004 A 
HETATM   24  C25 UNL     1       5.267  43.418  63.155  1.00  0.00     0.014 A 
BRANCH  18  25
HETATM   25  C11 UNL     1       5.676  48.170  62.627  1.00  0.00     0.113 C 
BRANCH  25  26
HETATM   26  C12 UNL     1       4.380  48.714  62.094  1.00  0.00    -0.012 A 
HETATM   27  C13 UNL     1       3.515  47.931  61.364  1.00  0.00     0.013 A 
HETATM   28  C14 UNL     1       2.329  48.463  60.878  1.00  0.00     0.003 A 
HETATM   29  C15 UNL     1       1.975  49.770  61.102  1.00  0.00     0.030 A 
HETATM   30  C16 UNL     1       2.830  50.566  61.832  1.00  0.00     0.036 A 
HETATM   31  C19 UNL     1       3.994  50.027  62.303  1.00  0.00    -0.024 A 
HETATM   32  C20 UNL     1       4.919  50.891  63.072  1.00  0.00     0.051 C 
BRANCH  30  33
HETATM   33  N3  UNL     1       2.444  51.912  62.084  1.00  0.00    -0.389 N 
HETATM   34  C17 UNL     1       2.774  52.942  61.128  1.00  0.00     0.149 C 
HETATM   35  C18 UNL     1       1.714  52.296  63.292  1.00  0.00     0.149 C 
ENDBRANCH  30  33
ENDBRANCH  25  26
ENDBRANCH  18  25
ENDBRANCH   3   6
TORSDOF 4
ENDMDL
