MODEL 1
REMARK VINA RESULT: -7.317639767      0.000      0.000
REMARK  5 active torsions:
REMARK  status: ('A' for Active; 'I' for Inactive)
REMARK    1  A    between atoms: C2_2  and  C3_3 
REMARK    2  A    between atoms: C6_6  and  C7_7 
REMARK    3  A    between atoms: C7_7  and  C8_8 
REMARK       I    between atoms: C8_8  and  N1_10 
REMARK    4  A    between atoms: N3_22  and  O2_23 
REMARK    5  A    between atoms: C20_27  and  N4_28 
ROOT
HETATM    1  C3  UNL     1      12.662  48.343  61.117  1.00  0.00    -0.031 A 
HETATM    2  C4  UNL     1      11.717  47.880  60.192  1.00  0.00     0.023 A 
HETATM    3  C5  UNL     1      10.930  46.823  60.507  1.00  0.00     0.001 A 
HETATM    4  C6  UNL     1      10.005  46.395  59.557  1.00  0.00    -0.024 A 
HETATM    5  C11 UNL     1       9.222  45.318  59.912  1.00  0.00     0.004 A 
HETATM    6  C12 UNL     1       8.262  44.742  59.117  1.00  0.00     0.037 A 
HETATM    7  C13 UNL     1       7.486  43.648  59.496  1.00  0.00     0.046 A 
HETATM    8  C14 UNL     1       6.513  43.152  58.551  1.00  0.00     0.099 C 
HETATM    9  N2  UNL     1       5.721  42.761  57.805  1.00  0.00    -0.191 NA
HETATM   10  C15 UNL     1       7.674  43.093  60.732  1.00  0.00     0.044 A 
HETATM   11  C16 UNL     1       8.628  43.638  61.563  1.00  0.00     0.042 A 
HETATM   12 BR1  UNL     1       8.865  42.845  63.274  1.00  0.00    -0.049 Br
HETATM   13  C17 UNL     1       9.399  44.734  61.174  1.00  0.00     0.091 A 
HETATM   14  N3  UNL     1      10.301  45.180  62.054  1.00  0.00    -0.222 N 
HETATM   15  C18 UNL     1      11.081  46.225  61.744  1.00  0.00     0.076 A 
HETATM   16  C19 UNL     1      12.008  46.675  62.659  1.00  0.00     0.062 A 
HETATM   17  C20 UNL     1      12.830  47.774  62.337  1.00  0.00     0.038 A 
ENDROOT
BRANCH   4  18
HETATM   18  C7  UNL     1       9.844  47.005  58.257  1.00  0.00     0.143 C 
BRANCH  18  19
HETATM   19  C8  UNL     1       8.808  48.076  58.223  1.00  0.00     0.223 C 
HETATM   20  O1  UNL     1       8.434  48.718  59.224  1.00  0.00    -0.273 OA
HETATM   21  N1  UNL     1       8.217  48.375  56.965  1.00  0.00    -0.361 N 
HETATM   22  C9  UNL     1       7.191  49.416  56.841  1.00  0.00     0.152 C 
HETATM   23  C10 UNL     1       8.586  47.682  55.746  1.00  0.00     0.152 C 
ENDBRANCH  18  19
ENDBRANCH   4  18
BRANCH  14  24
HETATM   24  O2  UNL     1      10.444  44.571  63.295  1.00  0.00    -0.282 OA
ATOM     25  H2  UNL     1      11.305  44.428  63.669  1.00  0.00     0.245 HD
ENDBRANCH  14  24
BRANCH   1  26
HETATM   26  C2  UNL     1      13.482  49.497  60.677  1.00  0.00     0.036 C 
HETATM   27  C1  UNL     1      14.827  49.011  60.245  1.00  0.00     0.010 C 
ENDBRANCH   1  26
BRANCH  17  28
HETATM   28  N4  UNL     1      13.756  48.184  63.327  1.00  0.00    -0.376 N 
HETATM   29  C21 UNL     1      15.059  47.676  63.584  1.00  0.00     0.149 C 
HETATM   30  C22 UNL     1      16.013  48.853  63.833  1.00  0.00     0.187 C 
HETATM   31  O3  UNL     1      15.570  49.536  64.965  1.00  0.00    -0.388 OA
HETATM   32  C23 UNL     1      14.386  50.162  64.674  1.00  0.00     0.187 C 
HETATM   33  C24 UNL     1      13.289  49.276  64.196  1.00  0.00     0.149 C 
ENDBRANCH  17  28
TORSDOF 5
ENDMDL
MODEL 2
REMARK VINA RESULT: -7.015787252      3.342      8.769
REMARK  5 active torsions:
REMARK  status: ('A' for Active; 'I' for Inactive)
REMARK    1  A    between atoms: C2_2  and  C3_3 
REMARK    2  A    between atoms: C6_6  and  C7_7 
REMARK    3  A    between atoms: C7_7  and  C8_8 
REMARK       I    between atoms: C8_8  and  N1_10 
REMARK    4  A    between atoms: N3_22  and  O2_23 
REMARK    5  A    between atoms: C20_27  and  N4_28 
ROOT
HETATM    1  C3  UNL     1      10.262  47.828  61.569  1.00  0.00    -0.031 A 
HETATM    2  C4  UNL     1      10.948  48.434  62.630  1.00  0.00     0.023 A 
HETATM    3  C5  UNL     1      12.242  48.803  62.470  1.00  0.00     0.001 A 
HETATM    4  C6  UNL     1      12.885  49.402  63.552  1.00  0.00    -0.024 A 
HETATM    5  C11 UNL     1      14.199  49.764  63.354  1.00  0.00     0.004 A 
HETATM    6  C12 UNL     1      15.007  50.357  64.293  1.00  0.00     0.037 A 
HETATM    7  C13 UNL     1      16.337  50.708  64.072  1.00  0.00     0.046 A 
HETATM    8  C14 UNL     1      17.062  51.327  65.158  1.00  0.00     0.099 C 
HETATM    9  N2  UNL     1      17.641  51.838  66.018  1.00  0.00    -0.191 NA
HETATM   10  C15 UNL     1      16.899  50.456  62.850  1.00  0.00     0.044 A 
HETATM   11  C16 UNL     1      16.126  49.862  61.877  1.00  0.00     0.042 A 
HETATM   12 BR1  UNL     1      16.935  49.525  60.190  1.00  0.00    -0.049 Br
HETATM   13  C17 UNL     1      14.795  49.514  62.110  1.00  0.00     0.091 A 
HETATM   14  N3  UNL     1      14.136  48.936  61.100  1.00  0.00    -0.222 N 
HETATM   15  C18 UNL     1      12.857  48.569  61.255  1.00  0.00     0.076 A 
HETATM   16  C19 UNL     1      12.190  47.974  60.207  1.00  0.00     0.062 A 
HETATM   17  C20 UNL     1      10.843  47.587  60.366  1.00  0.00     0.038 A 
ENDROOT
BRANCH   4  18
HETATM   18  C7  UNL     1      12.256  49.644  64.831  1.00  0.00     0.143 C 
BRANCH  18  19
HETATM   19  C8  UNL     1      11.702  51.020  64.975  1.00  0.00     0.223 C 
HETATM   20  O1  UNL     1      10.965  51.567  64.132  1.00  0.00    -0.273 OA
HETATM   21  N1  UNL     1      12.041  51.742  66.152  1.00  0.00    -0.361 N 
HETATM   22  C9  UNL     1      11.537  53.100  66.375  1.00  0.00     0.152 C 
HETATM   23  C10 UNL     1      12.891  51.189  67.188  1.00  0.00     0.152 C 
ENDBRANCH  18  19
ENDBRANCH   4  18
BRANCH  14  24
HETATM   24  O2  UNL     1      14.765  48.707  59.882  1.00  0.00    -0.282 OA
ATOM     25  H2  UNL     1      14.351  48.170  59.216  1.00  0.00     0.245 HD
ENDBRANCH  14  24
BRANCH   1  26
HETATM   26  C2  UNL     1       8.855  47.452  61.842  1.00  0.00     0.036 C 
HETATM   27  C1  UNL     1       7.991  48.666  61.747  1.00  0.00     0.010 C 
ENDBRANCH   1  26
BRANCH  17  28
HETATM   28  N4  UNL     1      10.220  46.985  59.247  1.00  0.00    -0.376 N 
HETATM   29  C21 UNL     1      10.217  45.615  58.867  1.00  0.00     0.149 C 
HETATM   30  C22 UNL     1       8.800  45.222  58.426  1.00  0.00     0.187 C 
HETATM   31  O3  UNL     1       8.464  45.993  57.315  1.00  0.00    -0.388 OA
HETATM   32  C23 UNL     1       8.309  47.298  57.706  1.00  0.00     0.187 C 
HETATM   33  C24 UNL     1       9.489  47.915  58.371  1.00  0.00     0.149 C 
ENDBRANCH  17  28
TORSDOF 5
ENDMDL
MODEL 3
REMARK VINA RESULT: -6.968411899      2.815      7.931
REMARK  5 active torsions:
REMARK  status: ('A' for Active; 'I' for Inactive)
REMARK    1  A    between atoms: C2_2  and  C3_3 
REMARK    2  A    between atoms: C6_6  and  C7_7 
REMARK    3  A    between atoms: C7_7  and  C8_8 
REMARK       I    between atoms: C8_8  and  N1_10 
REMARK    4  A    between atoms: N3_22  and  O2_23 
REMARK    5  A    between atoms: C20_27  and  N4_28 
ROOT
HETATM    1  C3  UNL     1       8.198  46.547  59.295  1.00  0.00    -0.031 A 
HETATM    2  C4  UNL     1       8.853  46.037  60.424  1.00  0.00     0.023 A 
HETATM    3  C5  UNL     1      10.027  46.584  60.823  1.00  0.00     0.001 A 
HETATM    4  C6  UNL     1      10.645  46.045  61.951  1.00  0.00    -0.024 A 
HETATM    5  C11 UNL     1      11.836  46.625  62.327  1.00  0.00     0.004 A 
HETATM    6  C12 UNL     1      12.601  46.237  63.400  1.00  0.00     0.037 A 
HETATM    7  C13 UNL     1      13.807  46.835  63.758  1.00  0.00     0.046 A 
HETATM    8  C14 UNL     1      14.501  46.318  64.914  1.00  0.00     0.099 C 
HETATM    9  N2  UNL     1      15.052  45.918  65.848  1.00  0.00    -0.191 NA
HETATM   10  C15 UNL     1      14.283  47.878  63.009  1.00  0.00     0.044 A 
HETATM   11  C16 UNL     1      13.549  48.301  61.923  1.00  0.00     0.042 A 
HETATM   12 BR1  UNL     1      14.235  49.751  60.904  1.00  0.00    -0.049 Br
HETATM   13  C17 UNL     1      12.341  47.694  61.574  1.00  0.00     0.091 A 
HETATM   14  N3  UNL     1      11.712  48.177  60.498  1.00  0.00    -0.222 N 
HETATM   15  C18 UNL     1      10.552  47.638  60.100  1.00  0.00     0.076 A 
HETATM   16  C19 UNL     1       9.913  48.145  58.990  1.00  0.00     0.062 A 
HETATM   17  C20 UNL     1       8.691  47.581  58.569  1.00  0.00     0.038 A 
ENDROOT
BRANCH   4  18
HETATM   18  C7  UNL     1      10.112  44.936  62.710  1.00  0.00     0.143 C 
BRANCH  18  19
HETATM   19  C8  UNL     1      10.684  43.616  62.321  1.00  0.00     0.223 C 
HETATM   20  O1  UNL     1      10.775  43.214  61.145  1.00  0.00    -0.273 OA
HETATM   21  N1  UNL     1      11.151  42.772  63.366  1.00  0.00    -0.361 N 
HETATM   22  C9  UNL     1      11.730  41.457  63.072  1.00  0.00     0.152 C 
HETATM   23  C10 UNL     1      11.086  43.153  64.763  1.00  0.00     0.152 C 
ENDBRANCH  18  19
ENDBRANCH   4  18
BRANCH  14  24
HETATM   24  O2  UNL     1      12.249  49.239  59.780  1.00  0.00    -0.282 OA
ATOM     25  H2  UNL     1      11.949  49.429  58.898  1.00  0.00     0.245 HD
ENDBRANCH  14  24
BRANCH   1  26
HETATM   26  C2  UNL     1       6.927  45.877  58.932  1.00  0.00     0.036 C 
HETATM   27  C1  UNL     1       7.218  44.499  58.434  1.00  0.00     0.010 C 
ENDBRANCH   1  26
BRANCH  17  28
HETATM   28  N4  UNL     1       8.090  48.155  57.422  1.00  0.00    -0.376 N 
HETATM   29  C21 UNL     1       7.167  49.234  57.354  1.00  0.00     0.149 C 
HETATM   30  C22 UNL     1       7.570  50.164  56.201  1.00  0.00     0.187 C 
HETATM   31  O3  UNL     1       7.495  49.437  55.014  1.00  0.00    -0.388 OA
HETATM   32  C23 UNL     1       8.488  48.492  55.003  1.00  0.00     0.187 C 
HETATM   33  C24 UNL     1       8.479  47.537  56.145  1.00  0.00     0.149 C 
ENDBRANCH  17  28
TORSDOF 5
ENDMDL
MODEL 4
REMARK VINA RESULT: -6.848759603      3.251      8.708
REMARK  5 active torsions:
REMARK  status: ('A' for Active; 'I' for Inactive)
REMARK    1  A    between atoms: C2_2  and  C3_3 
REMARK    2  A    between atoms: C6_6  and  C7_7 
REMARK    3  A    between atoms: C7_7  and  C8_8 
REMARK       I    between atoms: C8_8  and  N1_10 
REMARK    4  A    between atoms: N3_22  and  O2_23 
REMARK    5  A    between atoms: C20_27  and  N4_28 
ROOT
HETATM    1  C3  UNL     1      10.264  47.861  61.486  1.00  0.00    -0.031 A 
HETATM    2  C4  UNL     1      10.949  48.452  62.556  1.00  0.00     0.023 A 
HETATM    3  C5  UNL     1      12.247  48.809  62.407  1.00  0.00     0.001 A 
HETATM    4  C6  UNL     1      12.889  49.393  63.498  1.00  0.00    -0.024 A 
HETATM    5  C11 UNL     1      14.209  49.743  63.311  1.00  0.00     0.004 A 
HETATM    6  C12 UNL     1      15.016  50.320  64.260  1.00  0.00     0.037 A 
HETATM    7  C13 UNL     1      16.351  50.659  64.050  1.00  0.00     0.046 A 
HETATM    8  C14 UNL     1      17.075  51.262  65.145  1.00  0.00     0.099 C 
HETATM    9  N2  UNL     1      17.655  51.760  66.013  1.00  0.00    -0.191 NA
HETATM   10  C15 UNL     1      16.919  50.411  62.829  1.00  0.00     0.044 A 
HETATM   11  C16 UNL     1      16.146  49.833  61.847  1.00  0.00     0.042 A 
HETATM   12 BR1  UNL     1      16.962  49.502  60.163  1.00  0.00    -0.049 Br
HETATM   13  C17 UNL     1      14.809  49.497  62.068  1.00  0.00     0.091 A 
HETATM   14  N3  UNL     1      14.152  48.933  61.050  1.00  0.00    -0.222 N 
HETATM   15  C18 UNL     1      12.868  48.579  61.194  1.00  0.00     0.076 A 
HETATM   16  C19 UNL     1      12.201  47.998  60.137  1.00  0.00     0.062 A 
HETATM   17  C20 UNL     1      10.849  47.624  60.285  1.00  0.00     0.038 A 
ENDROOT
BRANCH   4  18
HETATM   18  C7  UNL     1      12.255  49.630  64.775  1.00  0.00     0.143 C 
BRANCH  18  19
HETATM   19  C8  UNL     1      12.207  48.426  65.652  1.00  0.00     0.223 C 
HETATM   20  O1  UNL     1      13.187  47.691  65.881  1.00  0.00    -0.273 OA
HETATM   21  N1  UNL     1      10.961  48.108  66.259  1.00  0.00    -0.361 N 
HETATM   22  C9  UNL     1      10.825  46.943  67.138  1.00  0.00     0.152 C 
HETATM   23  C10 UNL     1       9.767  48.904  66.050  1.00  0.00     0.152 C 
ENDBRANCH  18  19
ENDBRANCH   4  18
BRANCH  14  24
HETATM   24  O2  UNL     1      14.786  48.708  59.834  1.00  0.00    -0.282 OA
ATOM     25  H2  UNL     1      14.647  49.294  59.099  1.00  0.00     0.245 HD
ENDBRANCH  14  24
BRANCH   1  26
HETATM   26  C2  UNL     1       8.851  47.497  61.747  1.00  0.00     0.036 C 
HETATM   27  C1  UNL     1       8.001  48.723  61.667  1.00  0.00     0.010 C 
ENDBRANCH   1  26
BRANCH  17  28
HETATM   28  N4  UNL     1      10.227  47.037  59.156  1.00  0.00    -0.376 N 
HETATM   29  C21 UNL     1      10.226  45.673  58.757  1.00  0.00     0.149 C 
HETATM   30  C22 UNL     1       8.810  45.284  58.311  1.00  0.00     0.187 C 
HETATM   31  O3  UNL     1       8.473  46.071  57.210  1.00  0.00    -0.388 OA
HETATM   32  C23 UNL     1       8.316  47.370  57.619  1.00  0.00     0.187 C 
HETATM   33  C24 UNL     1       9.496  47.979  58.294  1.00  0.00     0.149 C 
ENDBRANCH  17  28
TORSDOF 5
ENDMDL
MODEL 5
REMARK VINA RESULT: -6.848192853      4.119      5.192
REMARK  5 active torsions:
REMARK  status: ('A' for Active; 'I' for Inactive)
REMARK    1  A    between atoms: C2_2  and  C3_3 
REMARK    2  A    between atoms: C6_6  and  C7_7 
REMARK    3  A    between atoms: C7_7  and  C8_8 
REMARK       I    between atoms: C8_8  and  N1_10 
REMARK    4  A    between atoms: N3_22  and  O2_23 
REMARK    5  A    between atoms: C20_27  and  N4_28 
ROOT
HETATM    1  C3  UNL     1      10.474  48.054  60.612  1.00  0.00    -0.031 A 
HETATM    2  C4  UNL     1       9.136  48.064  60.196  1.00  0.00     0.023 A 
HETATM    3  C5  UNL     1       8.235  48.838  60.847  1.00  0.00     0.001 A 
HETATM    4  C6  UNL     1       6.915  48.816  60.400  1.00  0.00    -0.024 A 
HETATM    5  C11 UNL     1       6.027  49.615  61.087  1.00  0.00     0.004 A 
HETATM    6  C12 UNL     1       4.687  49.728  60.809  1.00  0.00     0.037 A 
HETATM    7  C13 UNL     1       3.806  50.538  61.522  1.00  0.00     0.046 A 
HETATM    8  C14 UNL     1       2.421  50.554  61.112  1.00  0.00     0.099 C 
HETATM    9  N2  UNL     1       1.314  50.584  60.778  1.00  0.00    -0.191 NA
HETATM   10  C15 UNL     1       4.280  51.278  62.571  1.00  0.00     0.044 A 
HETATM   11  C16 UNL     1       5.619  51.196  62.886  1.00  0.00     0.042 A 
HETATM   12 BR1  UNL     1       6.247  52.237  64.347  1.00  0.00    -0.049 Br
HETATM   13  C17 UNL     1       6.492  50.381  62.164  1.00  0.00     0.091 A 
HETATM   14  N3  UNL     1       7.770  50.369  62.558  1.00  0.00    -0.222 N 
HETATM   15  C18 UNL     1       8.663  49.604  61.916  1.00  0.00     0.076 A 
HETATM   16  C19 UNL     1       9.977  49.600  62.330  1.00  0.00     0.062 A 
HETATM   17  C20 UNL     1      10.919  48.797  61.656  1.00  0.00     0.038 A 
ENDROOT
BRANCH   4  18
HETATM   18  C7  UNL     1       6.453  48.013  59.292  1.00  0.00     0.143 C 
BRANCH  18  19
HETATM   19  C8  UNL     1       6.860  48.540  57.959  1.00  0.00     0.223 C 
HETATM   20  O1  UNL     1       6.793  49.742  57.634  1.00  0.00    -0.273 OA
HETATM   21  N1  UNL     1       7.355  47.605  57.009  1.00  0.00    -0.361 N 
HETATM   22  C9  UNL     1       7.780  48.039  55.674  1.00  0.00     0.152 C 
HETATM   23  C10 UNL     1       7.469  46.189  57.295  1.00  0.00     0.152 C 
ENDBRANCH  18  19
ENDBRANCH   4  18
BRANCH  14  24
HETATM   24  O2  UNL     1       8.189  51.145  63.632  1.00  0.00    -0.282 OA
ATOM     25  H2  UNL     1       8.425  52.057  63.509  1.00  0.00     0.245 HD
ENDBRANCH  14  24
BRANCH   1  26
HETATM   26  C2  UNL     1      11.381  47.169  59.844  1.00  0.00     0.036 C 
HETATM   27  C1  UNL     1      10.571  46.168  59.086  1.00  0.00     0.010 C 
ENDBRANCH   1  26
BRANCH  17  28
HETATM   28  N4  UNL     1      12.251  48.846  62.135  1.00  0.00    -0.376 N 
HETATM   29  C21 UNL     1      12.815  48.170  63.252  1.00  0.00     0.149 C 
HETATM   30  C22 UNL     1      14.189  47.611  62.856  1.00  0.00     0.187 C 
HETATM   31  O3  UNL     1      15.012  48.686  62.523  1.00  0.00    -0.388 OA
HETATM   32  C23 UNL     1      14.565  49.247  61.355  1.00  0.00     0.187 C 
HETATM   33  C24 UNL     1      13.153  49.719  61.367  1.00  0.00     0.149 C 
ENDBRANCH  17  28
TORSDOF 5
ENDMDL
