MODEL 1
REMARK VINA RESULT: -8.777730467      0.000      0.000
REMARK  7 active torsions:
REMARK  status: ('A' for Active; 'I' for Inactive)
REMARK    1  A    between atoms: C7_7  and  C8_8 
REMARK    2  A    between atoms: C8_8  and  O2_10 
REMARK    3  A    between atoms: O2_10  and  C9_11 
REMARK    4  A    between atoms: C9_11  and  C10_12 
REMARK       I    between atoms: C10_12  and  N1_14 
REMARK    5  A    between atoms: N1_14  and  C12_16 
REMARK    6  A    between atoms: C14_18  and  C15_19 
REMARK    7  A    between atoms: C16_20  and  C17_21 
ROOT
HETATM    1  C10 UNL     1      11.206  46.673  63.318  1.00  0.00     0.244 C 
HETATM    2  O3  UNL     1      10.373  46.481  64.236  1.00  0.00    -0.271 OA
HETATM    3  N1  UNL     1      10.752  46.678  61.994  1.00  0.00    -0.346 N 
HETATM    4  C11 UNL     1      11.666  46.893  60.891  1.00  0.00     0.153 C 
ENDROOT
BRANCH   3   5
HETATM    5  C12 UNL     1       9.339  46.470  61.637  1.00  0.00     0.112 C 
HETATM    6  C13 UNL     1       9.104  47.199  60.403  1.00  0.00     0.031 C 
HETATM    7  C14 UNL     1       8.576  46.771  59.283  1.00  0.00     0.111 C 
HETATM    8  S1  UNL     1       8.077  45.103  59.218  1.00  0.00     0.183 S 
HETATM    9  O4  UNL     1       6.643  44.906  59.533  1.00  0.00    -0.222 OA
HETATM   10  O5  UNL     1       8.428  44.490  57.872  1.00  0.00    -0.222 OA
HETATM   11  C23 UNL     1       9.130  44.259  60.408  1.00  0.00     0.148 C 
HETATM   12  C24 UNL     1       9.070  45.026  61.672  1.00  0.00     0.045 C 
BRANCH   7  13
HETATM   13  C15 UNL     1       8.417  47.628  58.155  1.00  0.00    -0.050 C 
HETATM   14  C16 UNL     1       8.297  48.366  57.206  1.00  0.00    -0.061 C 
BRANCH  14  15
HETATM   15  C17 UNL     1       8.171  49.228  56.066  1.00  0.00     0.018 A 
HETATM   16  C18 UNL     1       8.558  48.789  54.821  1.00  0.00     0.024 A 
HETATM   17  C19 UNL     1       8.464  49.568  53.688  1.00  0.00     0.044 A 
HETATM   18  C20 UNL     1       7.957  50.851  53.802  1.00  0.00     0.116 A 
HETATM   19  F1  UNL     1       7.864  51.620  52.681  1.00  0.00    -0.206 F 
HETATM   20  C21 UNL     1       7.562  51.323  55.024  1.00  0.00     0.044 A 
HETATM   21  C22 UNL     1       7.673  50.517  56.124  1.00  0.00     0.024 A 
ENDBRANCH  14  15
ENDBRANCH   7  13
ENDBRANCH   3   5
BRANCH   1  22
HETATM   22  C9  UNL     1      12.613  46.884  63.636  1.00  0.00     0.281 C 
BRANCH  22  23
HETATM   23  O2  UNL     1      12.984  48.168  64.007  1.00  0.00    -0.308 OA
BRANCH  23  24
HETATM   24  C8  UNL     1      13.291  49.230  63.180  1.00  0.00     0.294 C 
HETATM   25  O1  UNL     1      12.269  49.879  62.772  1.00  0.00    -0.259 OA
BRANCH  24  26
HETATM   26  C7  UNL     1      14.630  49.629  62.772  1.00  0.00     0.052 A 
HETATM   27  C5  UNL     1      15.128  49.422  61.481  1.00  0.00    -0.039 A 
HETATM   28  C3  UNL     1      16.386  49.811  61.095  1.00  0.00    -0.049 A 
HETATM   29  C6  UNL     1      14.246  48.741  60.505  1.00  0.00     0.050 C 
HETATM   30  C2  UNL     1      17.195  50.434  62.035  1.00  0.00    -0.049 A 
HETATM   31  C4  UNL     1      16.951  49.630  59.762  1.00  0.00     0.049 C 
HETATM   32  C1  UNL     1      18.564  50.863  61.653  1.00  0.00     0.049 C 
HETATM   33  C27 UNL     1      16.750  50.659  63.314  1.00  0.00    -0.049 A 
HETATM   34  C25 UNL     1      15.473  50.254  63.666  1.00  0.00    -0.039 A 
HETATM   35  C28 UNL     1      17.642  51.325  64.276  1.00  0.00     0.049 C 
HETATM   36  C26 UNL     1      15.084  50.540  65.067  1.00  0.00     0.050 C 
ENDBRANCH  24  26
ENDBRANCH  23  24
ENDBRANCH  22  23
ENDBRANCH   1  22
TORSDOF 7
ENDMDL
MODEL 2
REMARK VINA RESULT: -8.766245965      1.065      1.108
REMARK  7 active torsions:
REMARK  status: ('A' for Active; 'I' for Inactive)
REMARK    1  A    between atoms: C7_7  and  C8_8 
REMARK    2  A    between atoms: C8_8  and  O2_10 
REMARK    3  A    between atoms: O2_10  and  C9_11 
REMARK    4  A    between atoms: C9_11  and  C10_12 
REMARK       I    between atoms: C10_12  and  N1_14 
REMARK    5  A    between atoms: N1_14  and  C12_16 
REMARK    6  A    between atoms: C14_18  and  C15_19 
REMARK    7  A    between atoms: C16_20  and  C17_21 
ROOT
HETATM    1  C10 UNL     1       9.883  46.986  63.151  1.00  0.00     0.244 C 
HETATM    2  O3  UNL     1       9.003  47.881  63.137  1.00  0.00    -0.271 OA
HETATM    3  N1  UNL     1       9.591  45.753  62.555  1.00  0.00    -0.346 N 
HETATM    4  C11 UNL     1      10.566  44.682  62.540  1.00  0.00     0.153 C 
ENDROOT
BRANCH   3   5
HETATM    5  C12 UNL     1       8.298  45.467  61.911  1.00  0.00     0.112 C 
HETATM    6  C13 UNL     1       8.224  46.302  60.724  1.00  0.00     0.031 C 
HETATM    7  C14 UNL     1       7.962  45.953  59.490  1.00  0.00     0.111 C 
HETATM    8  S1  UNL     1       7.658  44.265  59.181  1.00  0.00     0.183 S 
HETATM    9  O4  UNL     1       6.217  43.917  59.191  1.00  0.00    -0.222 OA
HETATM   10  O5  UNL     1       8.314  43.831  57.881  1.00  0.00    -0.222 OA
HETATM   11  C23 UNL     1       8.551  43.391  60.474  1.00  0.00     0.148 C 
HETATM   12  C24 UNL     1       8.177  44.011  61.765  1.00  0.00     0.045 C 
BRANCH   7  13
HETATM   13  C15 UNL     1       7.929  46.909  58.433  1.00  0.00    -0.050 C 
HETATM   14  C16 UNL     1       7.915  47.729  57.546  1.00  0.00    -0.061 C 
BRANCH  14  15
HETATM   15  C17 UNL     1       7.917  48.690  56.480  1.00  0.00     0.018 A 
HETATM   16  C18 UNL     1       8.294  48.314  55.211  1.00  0.00     0.024 A 
HETATM   17  C19 UNL     1       8.318  49.188  54.146  1.00  0.00     0.044 A 
HETATM   18  C20 UNL     1       7.946  50.505  54.357  1.00  0.00     0.116 A 
HETATM   19  F1  UNL     1       7.970  51.368  53.302  1.00  0.00    -0.206 F 
HETATM   20  C21 UNL     1       7.565  50.916  55.605  1.00  0.00     0.044 A 
HETATM   21  C22 UNL     1       7.555  50.015  56.635  1.00  0.00     0.024 A 
ENDBRANCH  14  15
ENDBRANCH   7  13
ENDBRANCH   3   5
BRANCH   1  22
HETATM   22  C9  UNL     1      11.175  47.237  63.777  1.00  0.00     0.281 C 
BRANCH  22  23
HETATM   23  O2  UNL     1      12.205  47.647  62.943  1.00  0.00    -0.308 OA
BRANCH  23  24
HETATM   24  C8  UNL     1      12.629  48.937  62.698  1.00  0.00     0.294 C 
HETATM   25  O1  UNL     1      11.684  49.797  62.681  1.00  0.00    -0.259 OA
BRANCH  24  26
HETATM   26  C7  UNL     1      14.006  49.350  62.471  1.00  0.00     0.052 A 
HETATM   27  C5  UNL     1      14.652  49.209  61.238  1.00  0.00    -0.039 A 
HETATM   28  C3  UNL     1      15.946  49.611  61.024  1.00  0.00    -0.049 A 
HETATM   29  C6  UNL     1      13.891  48.584  60.131  1.00  0.00     0.050 C 
HETATM   30  C2  UNL     1      16.639  50.180  62.083  1.00  0.00    -0.049 A 
HETATM   31  C4  UNL     1      16.664  49.497  59.758  1.00  0.00     0.049 C 
HETATM   32  C1  UNL     1      18.043  50.622  61.887  1.00  0.00     0.049 C 
HETATM   33  C27 UNL     1      16.046  50.340  63.312  1.00  0.00    -0.049 A 
HETATM   34  C25 UNL     1      14.737  49.923  63.489  1.00  0.00    -0.039 A 
HETATM   35  C28 UNL     1      16.818  50.950  64.405  1.00  0.00     0.049 C 
HETATM   36  C26 UNL     1      14.187  50.138  64.848  1.00  0.00     0.050 C 
ENDBRANCH  24  26
ENDBRANCH  23  24
ENDBRANCH  22  23
ENDBRANCH   1  22
TORSDOF 7
ENDMDL
MODEL 3
REMARK VINA RESULT: -8.756301361      1.042      2.252
REMARK  7 active torsions:
REMARK  status: ('A' for Active; 'I' for Inactive)
REMARK    1  A    between atoms: C7_7  and  C8_8 
REMARK    2  A    between atoms: C8_8  and  O2_10 
REMARK    3  A    between atoms: O2_10  and  C9_11 
REMARK    4  A    between atoms: C9_11  and  C10_12 
REMARK       I    between atoms: C10_12  and  N1_14 
REMARK    5  A    between atoms: N1_14  and  C12_16 
REMARK    6  A    between atoms: C14_18  and  C15_19 
REMARK    7  A    between atoms: C16_20  and  C17_21 
ROOT
HETATM    1  C10 UNL     1       9.915  47.117  63.258  1.00  0.00     0.244 C 
HETATM    2  O3  UNL     1       9.018  47.993  63.280  1.00  0.00    -0.271 OA
HETATM    3  N1  UNL     1       9.636  45.892  62.640  1.00  0.00    -0.346 N 
HETATM    4  C11 UNL     1      10.631  44.840  62.583  1.00  0.00     0.153 C 
ENDROOT
BRANCH   3   5
HETATM    5  C12 UNL     1       8.337  45.594  62.014  1.00  0.00     0.112 C 
HETATM    6  C13 UNL     1       8.265  46.384  60.797  1.00  0.00     0.031 C 
HETATM    7  C14 UNL     1       7.993  45.991  59.578  1.00  0.00     0.111 C 
HETATM    8  S1  UNL     1       7.671  44.296  59.334  1.00  0.00     0.183 S 
HETATM    9  O4  UNL     1       6.227  43.962  59.364  1.00  0.00    -0.222 OA
HETATM   10  O5  UNL     1       8.316  43.807  58.048  1.00  0.00    -0.222 OA
HETATM   11  C23 UNL     1       8.563  43.462  60.655  1.00  0.00     0.148 C 
HETATM   12  C24 UNL     1       8.202  44.134  61.923  1.00  0.00     0.045 C 
BRANCH   7  13
HETATM   13  C15 UNL     1       7.962  46.907  58.486  1.00  0.00    -0.050 C 
HETATM   14  C16 UNL     1       7.953  47.692  57.568  1.00  0.00    -0.061 C 
BRANCH  14  15
HETATM   15  C17 UNL     1       7.958  48.610  56.464  1.00  0.00     0.018 A 
HETATM   16  C18 UNL     1       7.575  49.918  56.651  1.00  0.00     0.024 A 
HETATM   17  C19 UNL     1       7.558  50.847  55.633  1.00  0.00     0.044 A 
HETATM   18  C20 UNL     1       7.942  50.451  54.363  1.00  0.00     0.116 A 
HETATM   19  F1  UNL     1       7.924  51.371  53.358  1.00  0.00    -0.206 F 
HETATM   20  C21 UNL     1       8.329  49.158  54.139  1.00  0.00     0.044 A 
HETATM   21  C22 UNL     1       8.331  48.267  55.177  1.00  0.00     0.024 A 
ENDBRANCH  14  15
ENDBRANCH   7  13
ENDBRANCH   3   5
BRANCH   1  22
HETATM   22  C9  UNL     1      11.214  47.379  63.865  1.00  0.00     0.281 C 
BRANCH  22  23
HETATM   23  O2  UNL     1      12.237  47.764  63.012  1.00  0.00    -0.308 OA
BRANCH  23  24
HETATM   24  C8  UNL     1      12.659  49.046  62.725  1.00  0.00     0.294 C 
HETATM   25  O1  UNL     1      11.709  49.895  62.638  1.00  0.00    -0.259 OA
BRANCH  24  26
HETATM   26  C7  UNL     1      14.040  49.462  62.527  1.00  0.00     0.052 A 
HETATM   27  C5  UNL     1      14.822  50.022  63.543  1.00  0.00    -0.039 A 
HETATM   28  C3  UNL     1      16.127  50.401  63.357  1.00  0.00    -0.049 A 
HETATM   29  C6  UNL     1      14.189  50.218  64.868  1.00  0.00     0.050 C 
HETATM   30  C2  UNL     1      16.689  50.218  62.100  1.00  0.00    -0.049 A 
HETATM   31  C4  UNL     1      16.990  50.979  64.382  1.00  0.00     0.049 C 
HETATM   32  C1  UNL     1      18.098  50.621  61.863  1.00  0.00     0.049 C 
HETATM   33  C27 UNL     1      15.961  49.672  61.072  1.00  0.00    -0.049 A 
HETATM   34  C25 UNL     1      14.646  49.300  61.299  1.00  0.00    -0.039 A 
HETATM   35  C28 UNL     1      16.599  49.495  59.758  1.00  0.00     0.049 C 
HETATM   36  C26 UNL     1      13.945  48.721  60.130  1.00  0.00     0.050 C 
ENDBRANCH  24  26
ENDBRANCH  23  24
ENDBRANCH  22  23
ENDBRANCH   1  22
TORSDOF 7
ENDMDL
MODEL 4
REMARK VINA RESULT: -8.668358653      3.324      9.215
REMARK  7 active torsions:
REMARK  status: ('A' for Active; 'I' for Inactive)
REMARK    1  A    between atoms: C7_7  and  C8_8 
REMARK    2  A    between atoms: C8_8  and  O2_10 
REMARK    3  A    between atoms: O2_10  and  C9_11 
REMARK    4  A    between atoms: C9_11  and  C10_12 
REMARK       I    between atoms: C10_12  and  N1_14 
REMARK    5  A    between atoms: N1_14  and  C12_16 
REMARK    6  A    between atoms: C14_18  and  C15_19 
REMARK    7  A    between atoms: C16_20  and  C17_21 
ROOT
HETATM    1  C10 UNL     1      10.411  45.418  59.575  1.00  0.00     0.244 C 
HETATM    2  O3  UNL     1      10.552  44.382  60.269  1.00  0.00    -0.271 OA
HETATM    3  N1  UNL     1      10.609  46.662  60.186  1.00  0.00    -0.346 N 
HETATM    4  C11 UNL     1      10.461  47.894  59.438  1.00  0.00     0.153 C 
ENDROOT
BRANCH   3   5
HETATM    5  C12 UNL     1      10.977  46.802  61.605  1.00  0.00     0.112 C 
HETATM    6  C13 UNL     1      12.265  47.473  61.642  1.00  0.00     0.031 C 
HETATM    7  C14 UNL     1      12.617  48.540  62.315  1.00  0.00     0.111 C 
HETATM    8  S1  UNL     1      11.403  49.295  63.313  1.00  0.00     0.183 S 
HETATM    9  O4  UNL     1      11.443  48.848  64.725  1.00  0.00    -0.222 OA
HETATM   10  O5  UNL     1      11.497  50.809  63.218  1.00  0.00    -0.222 OA
HETATM   11  C23 UNL     1       9.838  48.870  62.537  1.00  0.00     0.148 C 
HETATM   12  C24 UNL     1       9.839  47.407  62.311  1.00  0.00     0.045 C 
BRANCH   7  13
HETATM   13  C15 UNL     1      13.936  49.073  62.237  1.00  0.00    -0.050 C 
HETATM   14  C16 UNL     1      15.061  49.508  62.162  1.00  0.00    -0.061 C 
BRANCH  14  15
HETATM   15  C17 UNL     1      16.391  50.035  62.050  1.00  0.00     0.018 A 
HETATM   16  C18 UNL     1      16.988  50.148  60.816  1.00  0.00     0.024 A 
HETATM   17  C19 UNL     1      18.262  50.645  60.641  1.00  0.00     0.044 A 
HETATM   18  C20 UNL     1      18.977  51.050  61.755  1.00  0.00     0.116 A 
HETATM   19  F1  UNL     1      20.236  51.541  61.581  1.00  0.00    -0.206 F 
HETATM   20  C21 UNL     1      18.416  50.953  62.999  1.00  0.00     0.044 A 
HETATM   21  C22 UNL     1      17.149  50.453  63.128  1.00  0.00     0.024 A 
ENDBRANCH  14  15
ENDBRANCH   7  13
ENDBRANCH   3   5
BRANCH   1  22
HETATM   22  C9  UNL     1      10.051  45.315  58.167  1.00  0.00     0.281 C 
BRANCH  22  23
HETATM   23  O2  UNL     1       8.850  44.686  57.873  1.00  0.00    -0.308 OA
BRANCH  23  24
HETATM   24  C8  UNL     1       7.578  45.214  57.960  1.00  0.00     0.294 C 
HETATM   25  O1  UNL     1       6.668  44.450  57.491  1.00  0.00    -0.259 OA
BRANCH  24  26
HETATM   26  C7  UNL     1       7.233  46.512  58.521  1.00  0.00     0.052 A 
HETATM   27  C5  UNL     1       6.856  46.692  59.856  1.00  0.00    -0.039 A 
HETATM   28  C3  UNL     1       6.544  47.919  60.385  1.00  0.00    -0.049 A 
HETATM   29  C6  UNL     1       6.784  45.489  60.717  1.00  0.00     0.050 C 
HETATM   30  C2  UNL     1       6.607  49.026  59.551  1.00  0.00    -0.049 A 
HETATM   31  C4  UNL     1       6.155  48.164  61.770  1.00  0.00     0.049 C 
HETATM   32  C1  UNL     1       6.271  50.369  60.089  1.00  0.00     0.049 C 
HETATM   33  C27 UNL     1       6.972  48.900  58.233  1.00  0.00    -0.049 A 
HETATM   34  C25 UNL     1       7.281  47.645  57.736  1.00  0.00    -0.039 A 
HETATM   35  C28 UNL     1       7.027  50.102  57.387  1.00  0.00     0.049 C 
HETATM   36  C26 UNL     1       7.664  47.611  56.305  1.00  0.00     0.050 C 
ENDBRANCH  24  26
ENDBRANCH  23  24
ENDBRANCH  22  23
ENDBRANCH   1  22
TORSDOF 7
ENDMDL
MODEL 5
REMARK VINA RESULT: -8.650153174      2.373      3.391
REMARK  7 active torsions:
REMARK  status: ('A' for Active; 'I' for Inactive)
REMARK    1  A    between atoms: C7_7  and  C8_8 
REMARK    2  A    between atoms: C8_8  and  O2_10 
REMARK    3  A    between atoms: O2_10  and  C9_11 
REMARK    4  A    between atoms: C9_11  and  C10_12 
REMARK       I    between atoms: C10_12  and  N1_14 
REMARK    5  A    between atoms: N1_14  and  C12_16 
REMARK    6  A    between atoms: C14_18  and  C15_19 
REMARK    7  A    between atoms: C16_20  and  C17_21 
ROOT
HETATM    1  C10 UNL     1      10.042  50.407  63.573  1.00  0.00     0.244 C 
HETATM    2  O3  UNL     1       9.935  51.657  63.563  1.00  0.00    -0.271 OA
HETATM    3  N1  UNL     1       8.974  49.643  63.086  1.00  0.00    -0.346 N 
HETATM    4  C11 UNL     1       9.037  48.195  63.073  1.00  0.00     0.153 C 
ENDROOT
BRANCH   3   5
HETATM    5  C12 UNL     1       7.737  50.246  62.563  1.00  0.00     0.112 C 
HETATM    6  C13 UNL     1       7.846  50.242  61.115  1.00  0.00     0.031 C 
HETATM    7  C14 UNL     1       7.000  49.782  60.228  1.00  0.00     0.111 C 
HETATM    8  S1  UNL     1       5.528  49.062  60.822  1.00  0.00     0.183 S 
HETATM    9  O4  UNL     1       4.389  50.009  60.868  1.00  0.00    -0.222 OA
HETATM   10  O5  UNL     1       5.174  47.823  60.016  1.00  0.00    -0.222 OA
HETATM   11  C23 UNL     1       5.942  48.455  62.463  1.00  0.00     0.148 C 
HETATM   12  C24 UNL     1       6.599  49.563  63.192  1.00  0.00     0.045 C 
BRANCH   7  13
HETATM   13  C15 UNL     1       7.266  49.859  58.829  1.00  0.00    -0.050 C 
HETATM   14  C16 UNL     1       7.500  49.941  57.647  1.00  0.00    -0.061 C 
BRANCH  14  15
HETATM   15  C17 UNL     1       7.801  50.027  56.246  1.00  0.00     0.018 A 
HETATM   16  C18 UNL     1       8.256  48.921  55.568  1.00  0.00     0.024 A 
HETATM   17  C19 UNL     1       8.563  48.938  54.224  1.00  0.00     0.044 A 
HETATM   18  C20 UNL     1       8.407  50.120  53.521  1.00  0.00     0.116 A 
HETATM   19  F1  UNL     1       8.711  50.135  52.192  1.00  0.00    -0.206 F 
HETATM   20  C21 UNL     1       7.956  51.241  54.162  1.00  0.00     0.044 A 
HETATM   21  C22 UNL     1       7.664  51.181  55.497  1.00  0.00     0.024 A 
ENDBRANCH  14  15
ENDBRANCH   7  13
ENDBRANCH   3   5
BRANCH   1  22
HETATM   22  C9  UNL     1      11.254  49.777  64.081  1.00  0.00     0.281 C 
BRANCH  22  23
HETATM   23  O2  UNL     1      12.429  50.038  63.394  1.00  0.00    -0.308 OA
BRANCH  23  24
HETATM   24  C8  UNL     1      13.533  49.218  63.269  1.00  0.00     0.294 C 
HETATM   25  O1  UNL     1      13.331  48.018  63.655  1.00  0.00    -0.259 OA
BRANCH  24  26
HETATM   26  C7  UNL     1      14.834  49.619  62.754  1.00  0.00     0.052 A 
HETATM   27  C5  UNL     1      15.801  50.261  63.535  1.00  0.00    -0.039 A 
HETATM   28  C3  UNL     1      17.031  50.626  63.050  1.00  0.00    -0.049 A 
HETATM   29  C6  UNL     1      15.455  50.563  64.944  1.00  0.00     0.050 C 
HETATM   30  C2  UNL     1      17.321  50.343  61.722  1.00  0.00    -0.049 A 
HETATM   31  C4  UNL     1      18.078  51.287  63.822  1.00  0.00     0.049 C 
HETATM   32  C1  UNL     1      18.641  50.729  61.163  1.00  0.00     0.049 C 
HETATM   33  C27 UNL     1      16.404  49.714  60.916  1.00  0.00    -0.049 A 
HETATM   34  C25 UNL     1      15.173  49.359  61.442  1.00  0.00    -0.039 A 
HETATM   35  C28 UNL     1      16.757  49.432  59.516  1.00  0.00     0.049 C 
HETATM   36  C26 UNL     1      14.254  48.685  60.496  1.00  0.00     0.050 C 
ENDBRANCH  24  26
ENDBRANCH  23  24
ENDBRANCH  22  23
ENDBRANCH   1  22
TORSDOF 7
ENDMDL
