MODEL 1
REMARK VINA RESULT: -6.812306995      0.000      0.000
REMARK  5 active torsions:
REMARK  status: ('A' for Active; 'I' for Inactive)
REMARK    1  A    between atoms: C4_5  and  C5_6 
REMARK    2  A    between atoms: C5_6  and  S1_7 
REMARK    3  A    between atoms: S1_7  and  C6_9 
REMARK    4  A    between atoms: N1_18  and  S2_19 
REMARK    5  A    between atoms: S2_19  and  C15_22 
ROOT
HETATM    1  C6  UNL     1      11.974  48.295  62.235  1.00  0.00     0.032 A 
HETATM    2  C7  UNL     1      12.130  48.098  60.861  1.00  0.00     0.023 A 
HETATM    3  C8  UNL     1      11.296  47.217  60.203  1.00  0.00     0.032 A 
HETATM    4  C9  UNL     1      10.318  46.534  60.881  1.00  0.00     0.051 A 
HETATM    5  C10 UNL     1      10.149  46.714  62.246  1.00  0.00    -0.029 A 
HETATM    6  C11 UNL     1      10.978  47.590  62.891  1.00  0.00     0.030 A 
HETATM    7  C12 UNL     1       9.073  45.913  62.892  1.00  0.00     0.042 C 
HETATM    8  C13 UNL     1       9.313  44.497  62.340  1.00  0.00     0.026 C 
HETATM    9  C14 UNL     1       8.954  44.499  60.903  1.00  0.00     0.142 C 
HETATM   10  N1  UNL     1       9.495  45.637  60.139  1.00  0.00    -0.275 N 
ENDROOT
BRANCH   1  11
HETATM   11  S1  UNL     1      13.041  49.402  62.989  1.00  0.00     0.054 S 
HETATM   12  O1  UNL     1      12.351  50.547  63.935  1.00  0.00    -0.252 OA
BRANCH  11  13
HETATM   13  C5  UNL     1      14.628  48.881  63.344  1.00  0.00     0.156 C 
BRANCH  13  14
HETATM   14  C4  UNL     1      15.766  49.546  62.687  1.00  0.00    -0.005 A 
HETATM   15  C3  UNL     1      16.773  50.232  63.411  1.00  0.00     0.042 A 
HETATM   16  C2  UNL     1      17.706  50.715  62.535  1.00  0.00     0.025 A 
HETATM   17 BR1  UNL     1      16.838  50.460  65.309  1.00  0.00    -0.048 Br
HETATM   18  C1  UNL     1      18.943  51.504  62.852  1.00  0.00     0.070 C 
HETATM   19  N2  UNL     1      17.308  50.349  61.320  1.00  0.00    -0.357 N 
HETATM   20  C19 UNL     1      16.132  49.638  61.384  1.00  0.00     0.016 A 
HETATM   21  C21 UNL     1      18.030  50.662  60.085  1.00  0.00     0.156 C 
HETATM   22  C20 UNL     1      15.490  49.098  60.132  1.00  0.00     0.069 C 
ENDBRANCH  13  14
ENDBRANCH  11  13
ENDBRANCH   1  11
BRANCH  10  23
HETATM   23  S2  UNL     1       9.103  45.822  58.507  1.00  0.00     0.240 S 
HETATM   24  O2  UNL     1       8.261  44.593  58.108  1.00  0.00    -0.205 OA
HETATM   25  O3  UNL     1      10.280  45.658  57.573  1.00  0.00    -0.205 OA
BRANCH  23  26
HETATM   26  C15 UNL     1       8.087  47.178  58.084  1.00  0.00     0.072 C 
HETATM   27  C16 UNL     1       7.481  46.973  56.707  1.00  0.00     0.033 C 
HETATM   28  C17 UNL     1       8.670  48.537  58.140  1.00  0.00     0.033 C 
HETATM   29  C18 UNL     1       6.883  47.189  59.042  1.00  0.00     0.033 C 
ENDBRANCH  23  26
ENDBRANCH  10  23
TORSDOF 5
ENDMDL
MODEL 2
REMARK VINA RESULT: -6.805803457      2.491      3.113
REMARK  5 active torsions:
REMARK  status: ('A' for Active; 'I' for Inactive)
REMARK    1  A    between atoms: C4_5  and  C5_6 
REMARK    2  A    between atoms: C5_6  and  S1_7 
REMARK    3  A    between atoms: S1_7  and  C6_9 
REMARK    4  A    between atoms: N1_18  and  S2_19 
REMARK    5  A    between atoms: S2_19  and  C15_22 
ROOT
HETATM    1  C6  UNL     1      11.390  47.656  61.959  1.00  0.00     0.032 A 
HETATM    2  C7  UNL     1      10.523  48.747  62.040  1.00  0.00     0.023 A 
HETATM    3  C8  UNL     1       9.439  48.817  61.189  1.00  0.00     0.032 A 
HETATM    4  C9  UNL     1       9.204  47.829  60.266  1.00  0.00     0.051 A 
HETATM    5  C10 UNL     1      10.055  46.739  60.168  1.00  0.00    -0.029 A 
HETATM    6  C11 UNL     1      11.127  46.675  61.016  1.00  0.00     0.030 A 
HETATM    7  C12 UNL     1       9.725  45.731  59.123  1.00  0.00     0.042 C 
HETATM    8  C13 UNL     1       9.457  46.595  57.878  1.00  0.00     0.026 C 
HETATM    9  C14 UNL     1       8.187  47.327  58.094  1.00  0.00     0.142 C 
HETATM   10  N1  UNL     1       8.068  47.968  59.416  1.00  0.00    -0.275 N 
ENDROOT
BRANCH   1  11
HETATM   11  S1  UNL     1      12.714  47.631  63.045  1.00  0.00     0.054 S 
HETATM   12  O1  UNL     1      13.584  46.244  63.098  1.00  0.00    -0.252 OA
BRANCH  11  13
HETATM   13  C5  UNL     1      13.488  49.109  63.410  1.00  0.00     0.156 C 
BRANCH  13  14
HETATM   14  C4  UNL     1      14.704  49.484  62.669  1.00  0.00    -0.005 A 
HETATM   15  C3  UNL     1      15.822  50.093  63.291  1.00  0.00     0.042 A 
HETATM   16  C2  UNL     1      16.802  50.292  62.359  1.00  0.00     0.025 A 
HETATM   17 BR1  UNL     1      15.962  50.569  65.139  1.00  0.00    -0.048 Br
HETATM   18  C1  UNL     1      18.155  50.908  62.564  1.00  0.00     0.070 C 
HETATM   19  N2  UNL     1      16.326  49.830  61.206  1.00  0.00    -0.357 N 
HETATM   20  C19 UNL     1      15.053  49.333  61.366  1.00  0.00     0.016 A 
HETATM   21  C21 UNL     1      17.064  49.848  59.941  1.00  0.00     0.156 C 
HETATM   22  C20 UNL     1      14.308  48.735  60.201  1.00  0.00     0.069 C 
ENDBRANCH  13  14
ENDBRANCH  11  13
ENDBRANCH   1  11
BRANCH  10  23
HETATM   23  S2  UNL     1       6.643  48.769  59.841  1.00  0.00     0.240 S 
HETATM   24  O2  UNL     1       5.661  48.587  58.665  1.00  0.00    -0.205 OA
HETATM   25  O3  UNL     1       6.771  50.276  59.856  1.00  0.00    -0.205 OA
BRANCH  23  26
HETATM   26  C15 UNL     1       5.766  48.151  61.217  1.00  0.00     0.072 C 
HETATM   27  C16 UNL     1       4.271  48.301  61.001  1.00  0.00     0.033 C 
HETATM   28  C17 UNL     1       6.100  48.680  62.559  1.00  0.00     0.033 C 
HETATM   29  C18 UNL     1       5.998  46.631  61.288  1.00  0.00     0.033 C 
ENDBRANCH  23  26
ENDBRANCH  10  23
TORSDOF 5
ENDMDL
MODEL 3
REMARK VINA RESULT: -6.673665956      2.958      4.108
REMARK  5 active torsions:
REMARK  status: ('A' for Active; 'I' for Inactive)
REMARK    1  A    between atoms: C4_5  and  C5_6 
REMARK    2  A    between atoms: C5_6  and  S1_7 
REMARK    3  A    between atoms: S1_7  and  C6_9 
REMARK    4  A    between atoms: N1_18  and  S2_19 
REMARK    5  A    between atoms: S2_19  and  C15_22 
ROOT
HETATM    1  C6  UNL     1      11.062  48.054  60.918  1.00  0.00     0.032 A 
HETATM    2  C7  UNL     1      10.083  48.748  61.632  1.00  0.00     0.023 A 
HETATM    3  C8  UNL     1       8.821  48.889  61.091  1.00  0.00     0.032 A 
HETATM    4  C9  UNL     1       8.519  48.358  59.863  1.00  0.00     0.051 A 
HETATM    5  C10 UNL     1       9.478  47.668  59.137  1.00  0.00    -0.029 A 
HETATM    6  C11 UNL     1      10.726  47.531  59.680  1.00  0.00     0.030 A 
HETATM    7  C12 UNL     1       9.057  47.147  57.807  1.00  0.00     0.042 C 
HETATM    8  C13 UNL     1       8.349  48.354  57.169  1.00  0.00     0.026 C 
HETATM    9  C14 UNL     1       7.076  48.575  57.894  1.00  0.00     0.142 C 
HETATM   10  N1  UNL     1       7.197  48.545  59.363  1.00  0.00    -0.275 N 
ENDROOT
BRANCH   1  11
HETATM   11  S1  UNL     1      12.606  47.915  61.648  1.00  0.00     0.054 S 
HETATM   12  O1  UNL     1      12.927  46.497  62.402  1.00  0.00    -0.252 OA
BRANCH  11  13
HETATM   13  C5  UNL     1      13.898  48.811  60.982  1.00  0.00     0.156 C 
BRANCH  13  14
HETATM   14  C4  UNL     1      14.864  49.457  61.887  1.00  0.00    -0.005 A 
HETATM   15  C3  UNL     1      16.174  49.810  61.481  1.00  0.00     0.042 A 
HETATM   16  C2  UNL     1      16.819  50.419  62.522  1.00  0.00     0.025 A 
HETATM   17 BR1  UNL     1      16.942  49.497  59.757  1.00  0.00    -0.048 Br
HETATM   18  C1  UNL     1      18.220  50.955  62.549  1.00  0.00     0.070 C 
HETATM   19  N2  UNL     1      15.956  50.449  63.534  1.00  0.00    -0.357 N 
HETATM   20  C19 UNL     1      14.760  49.872  63.175  1.00  0.00     0.016 A 
HETATM   21  C21 UNL     1      16.246  51.025  64.849  1.00  0.00     0.156 C 
HETATM   22  C20 UNL     1      13.614  49.804  64.151  1.00  0.00     0.069 C 
ENDBRANCH  13  14
ENDBRANCH  11  13
ENDBRANCH   1  11
BRANCH  10  23
HETATM   23  S2  UNL     1       5.819  48.699  60.327  1.00  0.00     0.240 S 
HETATM   24  O2  UNL     1       4.602  48.605  59.384  1.00  0.00    -0.205 OA
HETATM   25  O3  UNL     1       5.619  50.088  60.890  1.00  0.00    -0.205 OA
BRANCH  23  26
HETATM   26  C15 UNL     1       5.532  47.443  61.505  1.00  0.00     0.072 C 
HETATM   27  C16 UNL     1       5.980  47.898  62.882  1.00  0.00     0.033 C 
HETATM   28  C17 UNL     1       6.096  46.099  61.251  1.00  0.00     0.033 C 
HETATM   29  C18 UNL     1       4.010  47.250  61.636  1.00  0.00     0.033 C 
ENDBRANCH  23  26
ENDBRANCH  10  23
TORSDOF 5
ENDMDL
MODEL 4
REMARK VINA RESULT: -6.656401507      3.116      8.003
REMARK  5 active torsions:
REMARK  status: ('A' for Active; 'I' for Inactive)
REMARK    1  A    between atoms: C4_5  and  C5_6 
REMARK    2  A    between atoms: C5_6  and  S1_7 
REMARK    3  A    between atoms: S1_7  and  C6_9 
REMARK    4  A    between atoms: N1_18  and  S2_19 
REMARK    5  A    between atoms: S2_19  and  C15_22 
ROOT
HETATM    1  C6  UNL     1      10.856  46.574  60.631  1.00  0.00     0.032 A 
HETATM    2  C7  UNL     1      10.549  46.664  61.991  1.00  0.00     0.023 A 
HETATM    3  C8  UNL     1      11.229  47.567  62.782  1.00  0.00     0.032 A 
HETATM    4  C9  UNL     1      12.202  48.375  62.249  1.00  0.00     0.051 A 
HETATM    5  C10 UNL     1      12.522  48.300  60.902  1.00  0.00    -0.029 A 
HETATM    6  C11 UNL     1      11.843  47.403  60.124  1.00  0.00     0.030 A 
HETATM    7  C12 UNL     1      13.604  49.206  60.426  1.00  0.00     0.042 C 
HETATM    8  C13 UNL     1      14.709  49.012  61.479  1.00  0.00     0.026 C 
HETATM    9  C14 UNL     1      14.248  49.628  62.745  1.00  0.00     0.142 C 
HETATM   10  N1  UNL     1      12.867  49.283  63.125  1.00  0.00    -0.275 N 
ENDROOT
BRANCH   1  11
HETATM   11  S1  UNL     1       9.973  45.433  59.707  1.00  0.00     0.054 S 
HETATM   12  O1  UNL     1      10.456  43.873  59.825  1.00  0.00    -0.252 OA
BRANCH  11  13
HETATM   13  C5  UNL     1       8.336  45.770  59.358  1.00  0.00     0.156 C 
BRANCH  13  14
HETATM   14  C4  UNL     1       7.941  47.149  59.028  1.00  0.00    -0.005 A 
HETATM   15  C3  UNL     1       7.373  48.031  59.981  1.00  0.00     0.042 A 
HETATM   16  C2  UNL     1       7.144  49.243  59.391  1.00  0.00     0.025 A 
HETATM   17 BR1  UNL     1       6.981  47.616  61.807  1.00  0.00    -0.048 Br
HETATM   18  C1  UNL     1       6.553  50.473  60.015  1.00  0.00     0.070 C 
HETATM   19  N2  UNL     1       7.548  49.131  58.129  1.00  0.00    -0.357 N 
HETATM   20  C19 UNL     1       8.038  47.869  57.882  1.00  0.00     0.016 A 
HETATM   21  C21 UNL     1       7.483  50.211  57.142  1.00  0.00     0.156 C 
HETATM   22  C20 UNL     1       8.575  47.504  56.522  1.00  0.00     0.069 C 
ENDBRANCH  13  14
ENDBRANCH  11  13
ENDBRANCH   1  11
BRANCH  10  23
HETATM   23  S2  UNL     1      12.171  49.974  64.500  1.00  0.00     0.240 S 
HETATM   24  O2  UNL     1      13.125  51.091  64.969  1.00  0.00    -0.205 OA
HETATM   25  O3  UNL     1      12.192  49.073  65.714  1.00  0.00    -0.205 OA
BRANCH  23  26
HETATM   26  C15 UNL     1      10.643  50.791  64.290  1.00  0.00     0.072 C 
HETATM   27  C16 UNL     1       9.557  50.090  65.086  1.00  0.00     0.033 C 
HETATM   28  C17 UNL     1      10.146  51.009  62.913  1.00  0.00     0.033 C 
HETATM   29  C18 UNL     1      10.755  52.186  64.930  1.00  0.00     0.033 C 
ENDBRANCH  23  26
ENDBRANCH  10  23
TORSDOF 5
ENDMDL
MODEL 5
REMARK VINA RESULT: -6.655357912      3.474      8.051
REMARK  5 active torsions:
REMARK  status: ('A' for Active; 'I' for Inactive)
REMARK    1  A    between atoms: C4_5  and  C5_6 
REMARK    2  A    between atoms: C5_6  and  S1_7 
REMARK    3  A    between atoms: S1_7  and  C6_9 
REMARK    4  A    between atoms: N1_18  and  S2_19 
REMARK    5  A    between atoms: S2_19  and  C15_22 
ROOT
HETATM    1  C6  UNL     1       9.969  45.940  60.083  1.00  0.00     0.032 A 
HETATM    2  C7  UNL     1       9.808  45.844  61.467  1.00  0.00     0.023 A 
HETATM    3  C8  UNL     1      10.527  46.682  62.294  1.00  0.00     0.032 A 
HETATM    4  C9  UNL     1      11.397  47.607  61.774  1.00  0.00     0.051 A 
HETATM    5  C10 UNL     1      11.572  47.717  60.403  1.00  0.00    -0.029 A 
HETATM    6  C11 UNL     1      10.855  46.884  59.589  1.00  0.00     0.030 A 
HETATM    7  C12 UNL     1      12.552  48.738  59.939  1.00  0.00     0.042 C 
HETATM    8  C13 UNL     1      13.773  48.484  60.840  1.00  0.00     0.026 C 
HETATM    9  C14 UNL     1      13.424  48.910  62.215  1.00  0.00     0.142 C 
HETATM   10  N1  UNL     1      12.110  48.438  62.686  1.00  0.00    -0.275 N 
ENDROOT
BRANCH   1  11
HETATM   11  S1  UNL     1       9.045  44.871  59.115  1.00  0.00     0.054 S 
HETATM   12  O1  UNL     1       9.106  43.286  59.523  1.00  0.00    -0.252 OA
BRANCH  11  13
HETATM   13  C5  UNL     1       7.642  45.478  58.354  1.00  0.00     0.156 C 
BRANCH  13  14
HETATM   14  C4  UNL     1       7.459  46.934  58.242  1.00  0.00    -0.005 A 
HETATM   15  C3  UNL     1       6.931  47.722  59.295  1.00  0.00     0.042 A 
HETATM   16  C2  UNL     1       6.912  49.034  58.909  1.00  0.00     0.025 A 
HETATM   17 BR1  UNL     1       6.334  47.077  60.994  1.00  0.00    -0.048 Br
HETATM   18  C1  UNL     1       6.434  50.218  59.698  1.00  0.00     0.070 C 
HETATM   19  N2  UNL     1       7.405  49.071  57.674  1.00  0.00    -0.357 N 
HETATM   20  C19 UNL     1       7.746  47.809  57.245  1.00  0.00     0.016 A 
HETATM   21  C21 UNL     1       7.565  50.295  56.886  1.00  0.00     0.156 C 
HETATM   22  C20 UNL     1       8.346  47.597  55.879  1.00  0.00     0.069 C 
ENDBRANCH  13  14
ENDBRANCH  11  13
ENDBRANCH   1  11
BRANCH  10  23
HETATM   23  S2  UNL     1      11.536  48.912  64.203  1.00  0.00     0.240 S 
HETATM   24  O2  UNL     1      12.631  49.794  64.838  1.00  0.00    -0.205 OA
HETATM   25  O3  UNL     1      11.475  47.788  65.212  1.00  0.00    -0.205 OA
BRANCH  23  26
HETATM   26  C15 UNL     1      10.115  49.925  64.231  1.00  0.00     0.072 C 
HETATM   27  C16 UNL     1      10.191  50.908  65.386  1.00  0.00     0.033 C 
HETATM   28  C17 UNL     1       8.787  49.272  64.261  1.00  0.00     0.033 C 
HETATM   29  C18 UNL     1      10.130  50.805  62.969  1.00  0.00     0.033 C 
ENDBRANCH  23  26
ENDBRANCH  10  23
TORSDOF 5
ENDMDL
