MODEL 1
REMARK VINA RESULT: -6.550541139      0.000      0.000
REMARK  7 active torsions:
REMARK  status: ('A' for Active; 'I' for Inactive)
REMARK    1  A    between atoms: C2_2  and  O1_3 
REMARK    2  A    between atoms: O1_3  and  C3_4 
REMARK       I    between atoms: C3_4  and  N1_6 
REMARK    3  A    between atoms: C7_10  and  C8_11 
REMARK    4  A    between atoms: C8_11  and  O4_13 
REMARK    5  A    between atoms: O4_13  and  C9_14 
REMARK    6  A    between atoms: N2_16  and  S1_17 
REMARK    7  A    between atoms: S1_17  and  C11_20 
ROOT
HETATM    1  C3  UNL     1       8.480  48.127  57.341  1.00  0.00     0.363 C 
HETATM    2  O2  UNL     1       8.581  49.352  57.628  1.00  0.00    -0.238 OA
HETATM    3  N1  UNL     1       9.299  47.201  58.071  1.00  0.00    -0.313 N 
HETATM    4  C4  UNL     1       9.432  45.769  57.999  1.00  0.00     0.125 C 
HETATM    5  C5  UNL     1      10.761  45.891  58.747  1.00  0.00     0.056 C 
HETATM    6  C6  UNL     1      10.278  47.244  59.112  1.00  0.00     0.106 C 
HETATM    7  C7  UNL     1       9.721  47.401  60.493  1.00  0.00     0.113 C 
HETATM    8  C19 UNL     1       9.392  46.139  61.197  1.00  0.00     0.056 C 
HETATM    9  C20 UNL     1       8.444  45.352  60.335  1.00  0.00    -0.049 A 
HETATM   10  C21 UNL     1       7.455  44.736  61.063  1.00  0.00     0.007 A 
HETATM   11  C22 UNL     1       6.507  43.978  60.423  1.00  0.00     0.001 A 
HETATM   12  C23 UNL     1       6.493  43.799  59.055  1.00  0.00     0.001 A 
HETATM   13  C24 UNL     1       7.497  44.428  58.342  1.00  0.00     0.010 A 
HETATM   14  C25 UNL     1       8.455  45.189  58.964  1.00  0.00    -0.029 A 
ENDROOT
BRANCH   7  15
HETATM   15  C8  UNL     1      10.596  48.280  61.306  1.00  0.00     0.265 C 
HETATM   16  O3  UNL     1      11.617  48.863  60.860  1.00  0.00    -0.265 OA
BRANCH  15  17
HETATM   17  O4  UNL     1      10.277  48.474  62.631  1.00  0.00    -0.314 OA
BRANCH  17  18
HETATM   18  C9  UNL     1       9.740  49.622  63.179  1.00  0.00     0.155 C 
HETATM   19  C10 UNL     1       8.829  50.405  62.250  1.00  0.00     0.140 C 
HETATM   20  N2  UNL     1       7.577  49.755  62.483  1.00  0.00    -0.207 NA
HETATM   21  C15 UNL     1       7.439  49.841  63.906  1.00  0.00     0.118 C 
HETATM   22  C16 UNL     1       8.815  49.265  64.318  1.00  0.00    -0.007 C 
HETATM   23  C17 UNL     1       9.219  49.997  65.573  1.00  0.00     0.019 C 
HETATM   24  C18 UNL     1       8.675  47.792  64.520  1.00  0.00     0.019 C 
BRANCH  20  25
HETATM   25  S1  UNL     1       6.269  50.127  61.534  1.00  0.00     0.219 S 
HETATM   26  O5  UNL     1       5.332  51.048  62.273  1.00  0.00    -0.210 OA
HETATM   27  O6  UNL     1       6.728  50.867  60.304  1.00  0.00    -0.210 OA
BRANCH  25  28
HETATM   28  C11 UNL     1       5.344  48.678  61.080  1.00  0.00     0.067 C 
HETATM   29  C12 UNL     1       5.987  48.044  59.824  1.00  0.00     0.033 C 
HETATM   30  C13 UNL     1       5.413  47.601  62.140  1.00  0.00     0.033 C 
HETATM   31  C14 UNL     1       3.932  49.014  60.683  1.00  0.00     0.033 C 
ENDBRANCH  25  28
ENDBRANCH  20  25
ENDBRANCH  17  18
ENDBRANCH  15  17
ENDBRANCH   7  15
BRANCH   1  32
HETATM   32  O1  UNL     1       7.610  47.735  56.363  1.00  0.00    -0.304 OA
BRANCH  32  33
HETATM   33  C2  UNL     1       8.000  47.872  55.004  1.00  0.00     0.176 C 
HETATM   34  C1  UNL     1       7.648  49.222  54.454  1.00  0.00     0.034 C 
ENDBRANCH  32  33
ENDBRANCH   1  32
TORSDOF 7
ENDMDL
MODEL 2
REMARK VINA RESULT: -6.498582718      3.396      7.374
REMARK  7 active torsions:
REMARK  status: ('A' for Active; 'I' for Inactive)
REMARK    1  A    between atoms: C2_2  and  O1_3 
REMARK    2  A    between atoms: O1_3  and  C3_4 
REMARK       I    between atoms: C3_4  and  N1_6 
REMARK    3  A    between atoms: C7_10  and  C8_11 
REMARK    4  A    between atoms: C8_11  and  O4_13 
REMARK    5  A    between atoms: O4_13  and  C9_14 
REMARK    6  A    between atoms: N2_16  and  S1_17 
REMARK    7  A    between atoms: S1_17  and  C11_20 
ROOT
HETATM    1  C3  UNL     1      11.883  50.583  64.176  1.00  0.00     0.363 C 
HETATM    2  O2  UNL     1      10.708  51.006  63.996  1.00  0.00    -0.238 OA
HETATM    3  N1  UNL     1      12.197  49.263  63.707  1.00  0.00    -0.313 N 
HETATM    4  C4  UNL     1      13.411  48.489  63.749  1.00  0.00     0.125 C 
HETATM    5  C5  UNL     1      12.578  47.235  63.479  1.00  0.00     0.056 C 
HETATM    6  C6  UNL     1      11.529  48.188  63.042  1.00  0.00     0.106 C 
HETATM    7  C7  UNL     1      11.366  48.366  61.565  1.00  0.00     0.113 C 
HETATM    8  C19 UNL     1      12.482  47.856  60.732  1.00  0.00     0.056 C 
HETATM    9  C20 UNL     1      13.754  48.505  61.202  1.00  0.00    -0.049 A 
HETATM   10  C21 UNL     1      14.586  48.850  60.164  1.00  0.00     0.007 A 
HETATM   11  C22 UNL     1      15.790  49.454  60.425  1.00  0.00     0.001 A 
HETATM   12  C23 UNL     1      16.219  49.741  61.704  1.00  0.00     0.001 A 
HETATM   13  C24 UNL     1      15.367  49.385  62.733  1.00  0.00     0.010 A 
HETATM   14  C25 UNL     1      14.159  48.779  62.493  1.00  0.00    -0.029 A 
ENDROOT
BRANCH   7  15
HETATM   15  C8  UNL     1      10.054  47.835  61.121  1.00  0.00     0.265 C 
HETATM   16  O3  UNL     1       9.413  46.944  61.734  1.00  0.00    -0.265 OA
BRANCH  15  17
HETATM   17  O4  UNL     1       9.498  48.345  59.970  1.00  0.00    -0.314 OA
BRANCH  17  18
HETATM   18  C9  UNL     1       9.552  47.768  58.717  1.00  0.00     0.155 C 
HETATM   19  C10 UNL     1       9.828  46.275  58.715  1.00  0.00     0.140 C 
HETATM   20  N2  UNL     1       8.504  45.752  58.855  1.00  0.00    -0.207 NA
HETATM   21  C15 UNL     1       7.802  46.380  57.776  1.00  0.00     0.118 C 
HETATM   22  C16 UNL     1       8.198  47.850  58.053  1.00  0.00    -0.007 C 
HETATM   23  C17 UNL     1       8.312  48.517  56.705  1.00  0.00     0.019 C 
HETATM   24  C18 UNL     1       7.155  48.469  58.924  1.00  0.00     0.019 C 
BRANCH  20  25
HETATM   25  S1  UNL     1       8.284  44.128  59.106  1.00  0.00     0.219 S 
HETATM   26  O5  UNL     1       7.895  43.447  57.819  1.00  0.00    -0.210 OA
HETATM   27  O6  UNL     1       9.580  43.504  59.555  1.00  0.00    -0.210 OA
BRANCH  25  28
HETATM   28  C11 UNL     1       6.996  43.807  60.290  1.00  0.00     0.067 C 
HETATM   29  C12 UNL     1       7.609  43.097  61.520  1.00  0.00     0.033 C 
HETATM   30  C13 UNL     1       6.392  45.082  60.835  1.00  0.00     0.033 C 
HETATM   31  C14 UNL     1       5.961  42.858  59.750  1.00  0.00     0.033 C 
ENDBRANCH  25  28
ENDBRANCH  20  25
ENDBRANCH  17  18
ENDBRANCH  15  17
ENDBRANCH   7  15
BRANCH   1  32
HETATM   32  O1  UNL     1      12.797  51.385  64.799  1.00  0.00    -0.304 OA
BRANCH  32  33
HETATM   33  C2  UNL     1      12.331  52.423  65.648  1.00  0.00     0.176 C 
HETATM   34  C1  UNL     1      13.203  53.642  65.571  1.00  0.00     0.034 C 
ENDBRANCH  32  33
ENDBRANCH   1  32
TORSDOF 7
ENDMDL
MODEL 3
REMARK VINA RESULT: -6.402886564      0.745      1.072
REMARK  7 active torsions:
REMARK  status: ('A' for Active; 'I' for Inactive)
REMARK    1  A    between atoms: C2_2  and  O1_3 
REMARK    2  A    between atoms: O1_3  and  C3_4 
REMARK       I    between atoms: C3_4  and  N1_6 
REMARK    3  A    between atoms: C7_10  and  C8_11 
REMARK    4  A    between atoms: C8_11  and  O4_13 
REMARK    5  A    between atoms: O4_13  and  C9_14 
REMARK    6  A    between atoms: N2_16  and  S1_17 
REMARK    7  A    between atoms: S1_17  and  C11_20 
ROOT
HETATM    1  C3  UNL     1       8.311  48.289  57.331  1.00  0.00     0.363 C 
HETATM    2  O2  UNL     1       8.289  49.510  57.646  1.00  0.00    -0.238 OA
HETATM    3  N1  UNL     1       9.173  47.420  58.081  1.00  0.00    -0.313 N 
HETATM    4  C4  UNL     1       9.435  46.007  57.987  1.00  0.00     0.125 C 
HETATM    5  C5  UNL     1      10.710  46.227  58.803  1.00  0.00     0.056 C 
HETATM    6  C6  UNL     1      10.093  47.524  59.171  1.00  0.00     0.106 C 
HETATM    7  C7  UNL     1       9.459  47.598  60.525  1.00  0.00     0.113 C 
HETATM    8  C19 UNL     1       9.210  46.295  61.187  1.00  0.00     0.056 C 
HETATM    9  C20 UNL     1       8.376  45.450  60.263  1.00  0.00    -0.049 A 
HETATM   10  C21 UNL     1       7.412  44.732  60.928  1.00  0.00     0.007 A 
HETATM   11  C22 UNL     1       6.566  43.911  60.227  1.00  0.00     0.001 A 
HETATM   12  C23 UNL     1       6.634  43.764  58.857  1.00  0.00     0.001 A 
HETATM   13  C24 UNL     1       7.612  44.495  58.208  1.00  0.00     0.010 A 
HETATM   14  C25 UNL     1       8.468  45.322  58.891  1.00  0.00    -0.029 A 
ENDROOT
BRANCH   7  15
HETATM   15  C8  UNL     1      10.213  48.530  61.399  1.00  0.00     0.265 C 
HETATM   16  O3  UNL     1      11.398  48.891  61.184  1.00  0.00    -0.265 OA
BRANCH  15  17
HETATM   17  O4  UNL     1       9.584  49.033  62.514  1.00  0.00    -0.314 OA
BRANCH  17  18
HETATM   18  C9  UNL     1       9.049  50.300  62.645  1.00  0.00     0.155 C 
HETATM   19  C10 UNL     1       7.820  50.563  61.792  1.00  0.00     0.140 C 
HETATM   20  N2  UNL     1       6.784  50.080  62.651  1.00  0.00    -0.207 NA
HETATM   21  C15 UNL     1       7.017  50.805  63.864  1.00  0.00     0.118 C 
HETATM   22  C16 UNL     1       8.521  50.494  64.046  1.00  0.00    -0.007 C 
HETATM   23  C17 UNL     1       9.132  51.723  64.673  1.00  0.00     0.019 C 
HETATM   24  C18 UNL     1       8.657  49.275  64.898  1.00  0.00     0.019 C 
BRANCH  20  25
HETATM   25  S1  UNL     1       5.231  49.965  62.080  1.00  0.00     0.219 S 
HETATM   26  O5  UNL     1       4.245  50.130  63.207  1.00  0.00    -0.210 OA
HETATM   27  O6  UNL     1       4.966  51.081  61.102  1.00  0.00    -0.210 OA
BRANCH  25  28
HETATM   28  C11 UNL     1       4.916  48.386  61.323  1.00  0.00     0.067 C 
HETATM   29  C12 UNL     1       5.393  47.267  62.279  1.00  0.00     0.033 C 
HETATM   30  C13 UNL     1       3.438  48.132  61.129  1.00  0.00     0.033 C 
HETATM   31  C14 UNL     1       5.710  48.201  60.058  1.00  0.00     0.033 C 
ENDBRANCH  25  28
ENDBRANCH  20  25
ENDBRANCH  17  18
ENDBRANCH  15  17
ENDBRANCH   7  15
BRANCH   1  32
HETATM   32  O1  UNL     1       7.527  47.847  56.302  1.00  0.00    -0.304 OA
BRANCH  32  33
HETATM   33  C2  UNL     1       8.033  47.914  54.977  1.00  0.00     0.176 C 
HETATM   34  C1  UNL     1       7.802  49.261  54.358  1.00  0.00     0.034 C 
ENDBRANCH  32  33
ENDBRANCH   1  32
TORSDOF 7
ENDMDL
MODEL 4
REMARK VINA RESULT: -6.378909088      3.341      7.105
REMARK  7 active torsions:
REMARK  status: ('A' for Active; 'I' for Inactive)
REMARK    1  A    between atoms: C2_2  and  O1_3 
REMARK    2  A    between atoms: O1_3  and  C3_4 
REMARK       I    between atoms: C3_4  and  N1_6 
REMARK    3  A    between atoms: C7_10  and  C8_11 
REMARK    4  A    between atoms: C8_11  and  O4_13 
REMARK    5  A    between atoms: O4_13  and  C9_14 
REMARK    6  A    between atoms: N2_16  and  S1_17 
REMARK    7  A    between atoms: S1_17  and  C11_20 
ROOT
HETATM    1  C3  UNL     1      12.327  50.481  64.588  1.00  0.00     0.363 C 
HETATM    2  O2  UNL     1      11.112  50.821  64.604  1.00  0.00    -0.238 OA
HETATM    3  N1  UNL     1      12.645  49.161  64.123  1.00  0.00    -0.313 N 
HETATM    4  C4  UNL     1      13.898  48.466  63.978  1.00  0.00     0.125 C 
HETATM    5  C5  UNL     1      13.120  47.151  63.910  1.00  0.00     0.056 C 
HETATM    6  C6  UNL     1      11.947  48.015  63.631  1.00  0.00     0.106 C 
HETATM    7  C7  UNL     1      11.515  48.107  62.200  1.00  0.00     0.113 C 
HETATM    8  C19 UNL     1      12.501  47.624  61.202  1.00  0.00     0.056 C 
HETATM    9  C20 UNL     1      13.788  48.373  61.412  1.00  0.00    -0.049 A 
HETATM   10  C21 UNL     1      14.399  48.716  60.230  1.00  0.00     0.007 A 
HETATM   11  C22 UNL     1      15.584  49.405  60.248  1.00  0.00     0.001 A 
HETATM   12  C23 UNL     1      16.211  49.782  61.418  1.00  0.00     0.001 A 
HETATM   13  C24 UNL     1      15.579  49.428  62.596  1.00  0.00     0.010 A 
HETATM   14  C25 UNL     1      14.393  48.737  62.599  1.00  0.00    -0.029 A 
ENDROOT
BRANCH   7  15
HETATM   15  C8  UNL     1      10.186  47.475  62.019  1.00  0.00     0.265 C 
HETATM   16  O3  UNL     1       9.974  46.240  62.127  1.00  0.00    -0.265 OA
BRANCH  15  17
HETATM   17  O4  UNL     1       9.114  48.283  61.714  1.00  0.00    -0.314 OA
BRANCH  17  18
HETATM   18  C9  UNL     1       8.780  48.752  60.459  1.00  0.00     0.155 C 
HETATM   19  C10 UNL     1       9.176  47.838  59.313  1.00  0.00     0.140 C 
HETATM   20  N2  UNL     1       8.038  46.973  59.249  1.00  0.00    -0.207 NA
HETATM   21  C15 UNL     1       6.949  47.895  59.124  1.00  0.00     0.118 C 
HETATM   22  C16 UNL     1       7.278  48.821  60.318  1.00  0.00    -0.007 C 
HETATM   23  C17 UNL     1       6.852  50.208  59.905  1.00  0.00     0.019 C 
HETATM   24  C18 UNL     1       6.553  48.322  61.524  1.00  0.00     0.019 C 
BRANCH  20  25
HETATM   25  S1  UNL     1       8.072  45.644  58.257  1.00  0.00     0.219 S 
HETATM   26  O5  UNL     1       7.178  45.860  57.063  1.00  0.00    -0.210 OA
HETATM   27  O6  UNL     1       9.468  45.442  57.726  1.00  0.00    -0.210 OA
BRANCH  25  28
HETATM   28  C11 UNL     1       7.504  44.179  59.090  1.00  0.00     0.067 C 
HETATM   29  C12 UNL     1       8.724  43.429  59.676  1.00  0.00     0.033 C 
HETATM   30  C13 UNL     1       6.634  44.503  60.284  1.00  0.00     0.033 C 
HETATM   31  C14 UNL     1       6.853  43.210  58.142  1.00  0.00     0.033 C 
ENDBRANCH  25  28
ENDBRANCH  20  25
ENDBRANCH  17  18
ENDBRANCH  15  17
ENDBRANCH   7  15
BRANCH   1  32
HETATM   32  O1  UNL     1      13.279  51.369  65.007  1.00  0.00    -0.304 OA
BRANCH  32  33
HETATM   33  C2  UNL     1      12.966  52.258  66.068  1.00  0.00     0.176 C 
HETATM   34  C1  UNL     1      13.249  53.686  65.704  1.00  0.00     0.034 C 
ENDBRANCH  32  33
ENDBRANCH   1  32
TORSDOF 7
ENDMDL
MODEL 5
REMARK VINA RESULT: -6.289086408      3.339      7.072
REMARK  7 active torsions:
REMARK  status: ('A' for Active; 'I' for Inactive)
REMARK    1  A    between atoms: C2_2  and  O1_3 
REMARK    2  A    between atoms: O1_3  and  C3_4 
REMARK       I    between atoms: C3_4  and  N1_6 
REMARK    3  A    between atoms: C7_10  and  C8_11 
REMARK    4  A    between atoms: C8_11  and  O4_13 
REMARK    5  A    between atoms: O4_13  and  C9_14 
REMARK    6  A    between atoms: N2_16  and  S1_17 
REMARK    7  A    between atoms: S1_17  and  C11_20 
ROOT
HETATM    1  C3  UNL     1      10.909  50.298  63.300  1.00  0.00     0.363 C 
HETATM    2  O2  UNL     1       9.843  50.780  62.827  1.00  0.00    -0.238 OA
HETATM    3  N1  UNL     1      11.324  49.007  62.831  1.00  0.00    -0.313 N 
HETATM    4  C4  UNL     1      12.461  48.184  63.154  1.00  0.00     0.125 C 
HETATM    5  C5  UNL     1      11.722  46.989  62.549  1.00  0.00     0.056 C 
HETATM    6  C6  UNL     1      10.860  48.013  61.913  1.00  0.00     0.106 C 
HETATM    7  C7  UNL     1      11.135  48.311  60.471  1.00  0.00     0.113 C 
HETATM    8  C19 UNL     1      12.436  47.822  59.954  1.00  0.00     0.056 C 
HETATM    9  C20 UNL     1      13.528  48.382  60.824  1.00  0.00    -0.049 A 
HETATM   10  C21 UNL     1      14.631  48.773  60.103  1.00  0.00     0.007 A 
HETATM   11  C22 UNL     1      15.717  49.306  60.749  1.00  0.00     0.001 A 
HETATM   12  C23 UNL     1      15.761  49.476  62.118  1.00  0.00     0.001 A 
HETATM   13  C24 UNL     1      14.641  49.076  62.824  1.00  0.00     0.010 A 
HETATM   14  C25 UNL     1      13.546  48.540  62.196  1.00  0.00    -0.029 A 
ENDROOT
BRANCH   7  15
HETATM   15  C8  UNL     1      10.000  47.869  59.626  1.00  0.00     0.265 C 
HETATM   16  O3  UNL     1       9.745  48.341  58.489  1.00  0.00    -0.265 OA
BRANCH  15  17
HETATM   17  O4  UNL     1       9.170  46.883  60.110  1.00  0.00    -0.314 OA
BRANCH  17  18
HETATM   18  C9  UNL     1       7.818  46.761  59.856  1.00  0.00     0.155 C 
HETATM   19  C10 UNL     1       7.457  45.707  58.824  1.00  0.00     0.140 C 
HETATM   20  N2  UNL     1       7.368  44.540  59.646  1.00  0.00    -0.207 NA
HETATM   21  C15 UNL     1       6.437  44.939  60.659  1.00  0.00     0.118 C 
HETATM   22  C16 UNL     1       7.105  46.266  61.092  1.00  0.00    -0.007 C 
HETATM   23  C17 UNL     1       5.981  47.202  61.461  1.00  0.00     0.019 C 
HETATM   24  C18 UNL     1       8.030  45.986  62.230  1.00  0.00     0.019 C 
BRANCH  20  25
HETATM   25  S1  UNL     1       7.184  43.051  58.940  1.00  0.00     0.219 S 
HETATM   26  O5  UNL     1       5.726  42.774  58.674  1.00  0.00    -0.210 OA
HETATM   27  O6  UNL     1       7.882  43.032  57.605  1.00  0.00    -0.210 OA
BRANCH  25  28
HETATM   28  C11 UNL     1       7.793  41.743  59.980  1.00  0.00     0.067 C 
HETATM   29  C12 UNL     1       8.186  40.538  59.093  1.00  0.00     0.033 C 
HETATM   30  C13 UNL     1       9.067  42.131  60.698  1.00  0.00     0.033 C 
HETATM   31  C14 UNL     1       6.733  41.227  60.914  1.00  0.00     0.033 C 
ENDBRANCH  25  28
ENDBRANCH  20  25
ENDBRANCH  17  18
ENDBRANCH  15  17
ENDBRANCH   7  15
BRANCH   1  32
HETATM   32  O1  UNL     1      11.616  51.012  64.226  1.00  0.00    -0.304 OA
BRANCH  32  33
HETATM   33  C2  UNL     1      10.960  52.054  64.933  1.00  0.00     0.176 C 
HETATM   34  C1  UNL     1      11.918  53.124  65.369  1.00  0.00     0.034 C 
ENDBRANCH  32  33
ENDBRANCH   1  32
TORSDOF 7
ENDMDL
