MODEL 1
REMARK VINA RESULT: -3.414294183      0.000      0.000
REMARK  2 active torsions:
REMARK  status: ('A' for Active; 'I' for Inactive)
REMARK    1  A    between atoms: O1_1  and  N1_3 
REMARK    2  A    between atoms: C1_5  and  N2_6 
ROOT
HETATM    1  N1  UNL     1      97.078  60.158  -9.023  1.00  0.00    -0.265 N 
ATOM      2  H1  UNL     1      97.572  59.647  -8.290  1.00  0.00     0.194 HD
HETATM    3  C1  UNL     1      96.193  61.002  -8.691  1.00  0.00     0.202 C 
ENDROOT
BRANCH   1   4
HETATM    4  O1  UNL     1      97.398  59.906 -10.340  1.00  0.00    -0.289 OA
ATOM      5  H1  UNL     1      97.826  60.550 -10.892  1.00  0.00     0.244 HD
ENDBRANCH   1   4
BRANCH   3   6
HETATM    6  N2  UNL     1      95.466  61.750  -9.656  1.00  0.00    -0.373 N 
HETATM    7  C2  UNL     1      94.310  61.803 -10.533  1.00  0.00     0.143 A 
HETATM    8  C3  UNL     1      95.225  62.913 -10.506  1.00  0.00     0.143 A 
ENDBRANCH   3   6
TORSDOF 2
ENDMDL
MODEL 2
REMARK VINA RESULT: -3.412015765      1.307      1.307
REMARK  2 active torsions:
REMARK  status: ('A' for Active; 'I' for Inactive)
REMARK    1  A    between atoms: O1_1  and  N1_3 
REMARK    2  A    between atoms: C1_5  and  N2_6 
ROOT
HETATM    1  N1  UNL     1      97.254  60.245  -9.993  1.00  0.00    -0.265 N 
ATOM      2  H1  UNL     1      98.138  59.772 -10.183  1.00  0.00     0.194 HD
HETATM    3  C1  UNL     1      96.817  61.084 -10.836  1.00  0.00     0.202 C 
ENDROOT
BRANCH   1   4
HETATM    4  O1  UNL     1      96.577  59.949  -8.829  1.00  0.00    -0.289 OA
ATOM      5  H1  UNL     1      96.279  59.071  -8.624  1.00  0.00     0.244 HD
ENDBRANCH   1   4
BRANCH   3   6
HETATM    6  N2  UNL     1      95.593  61.781 -10.640  1.00  0.00    -0.373 N 
HETATM    7  C2  UNL     1      94.145  61.743 -10.734  1.00  0.00     0.143 A 
HETATM    8  C3  UNL     1      94.789  62.934 -10.246  1.00  0.00     0.143 A 
ENDBRANCH   3   6
TORSDOF 2
ENDMDL
MODEL 3
REMARK VINA RESULT: -3.339859329      7.359      8.545
REMARK  2 active torsions:
REMARK  status: ('A' for Active; 'I' for Inactive)
REMARK    1  A    between atoms: O1_1  and  N1_3 
REMARK    2  A    between atoms: C1_5  and  N2_6 
ROOT
HETATM    1  N1  UNL     1     100.425  60.258  -4.922  1.00  0.00    -0.265 N 
ATOM      2  H1  UNL     1     100.113  59.912  -5.830  1.00  0.00     0.194 HD
HETATM    3  C1  UNL     1     101.389  61.078  -4.878  1.00  0.00     0.202 C 
ENDROOT
BRANCH   1   4
HETATM    4  O1  UNL     1      99.781  59.816  -3.786  1.00  0.00    -0.289 OA
ATOM      5  H1  UNL     1      99.621  60.382  -3.040  1.00  0.00     0.244 HD
ENDBRANCH   1   4
BRANCH   3   6
HETATM    6  N2  UNL     1     101.877  61.602  -3.650  1.00  0.00    -0.373 N 
HETATM    7  C2  UNL     1     102.157  62.789  -2.861  1.00  0.00     0.143 A 
HETATM    8  C3  UNL     1     102.437  61.490  -2.306  1.00  0.00     0.143 A 
ENDBRANCH   3   6
TORSDOF 2
ENDMDL
MODEL 4
REMARK VINA RESULT: -3.304627157      2.710      3.466
REMARK  2 active torsions:
REMARK  status: ('A' for Active; 'I' for Inactive)
REMARK    1  A    between atoms: O1_1  and  N1_3 
REMARK    2  A    between atoms: C1_5  and  N2_6 
ROOT
HETATM    1  N1  UNL     1      96.078  63.038 -10.854  1.00  0.00    -0.265 N 
ATOM      2  H1  UNL     1      95.251  63.610 -10.676  1.00  0.00     0.194 HD
HETATM    3  C1  UNL     1      96.044  61.806 -10.558  1.00  0.00     0.202 C 
ENDROOT
BRANCH   1   4
HETATM    4  O1  UNL     1      97.190  63.633 -11.409  1.00  0.00    -0.289 OA
ATOM      5  H1  UNL     1      97.131  64.253 -12.127  1.00  0.00     0.244 HD
ENDBRANCH   1   4
BRANCH   3   6
HETATM    6  N2  UNL     1      97.157  60.949 -10.779  1.00  0.00    -0.373 N 
HETATM    7  C2  UNL     1      98.336  60.319 -10.212  1.00  0.00     0.143 A 
HETATM    8  C3  UNL     1      98.000  60.076 -11.590  1.00  0.00     0.143 A 
ENDBRANCH   3   6
TORSDOF 2
ENDMDL
MODEL 5
REMARK VINA RESULT: -3.299098365      2.695      3.228
REMARK  2 active torsions:
REMARK  status: ('A' for Active; 'I' for Inactive)
REMARK    1  A    between atoms: O1_1  and  N1_3 
REMARK    2  A    between atoms: C1_5  and  N2_6 
ROOT
HETATM    1  N1  UNL     1      97.753  60.450  -8.139  1.00  0.00    -0.265 N 
ATOM      2  H1  UNL     1      97.236  60.682  -7.290  1.00  0.00     0.194 HD
HETATM    3  C1  UNL     1      97.317  60.869  -9.253  1.00  0.00     0.202 C 
ENDROOT
BRANCH   1   4
HETATM    4  O1  UNL     1      98.899  59.692  -8.034  1.00  0.00    -0.289 OA
ATOM      5  H1  UNL     1      99.180  59.307  -7.213  1.00  0.00     0.244 HD
ENDBRANCH   1   4
BRANCH   3   6
HETATM    6  N2  UNL     1      97.983  60.585 -10.477  1.00  0.00    -0.373 N 
HETATM    7  C2  UNL     1      99.010  60.985 -11.422  1.00  0.00     0.143 A 
HETATM    8  C3  UNL     1      98.229  59.805 -11.686  1.00  0.00     0.143 A 
ENDBRANCH   3   6
TORSDOF 2
ENDMDL
