MODEL 1
REMARK VINA RESULT: -2.372482571      0.000      0.000
REMARK  0 active torsions:
REMARK  status: ('A' for Active; 'I' for Inactive)
ROOT
HETATM    1  O1  UNL     1      99.397  60.134  -7.193  1.00  0.00    -0.258 OA
HETATM    2  S1  UNL     1      98.791  60.953  -8.348  1.00  0.00     0.016 S 
HETATM    3  C1  UNL     1      97.982  61.436  -9.577  1.00  0.00     0.121 A 
HETATM    4  C2  UNL     1      96.998  60.889  -8.541  1.00  0.00     0.121 A 
ENDROOT
TORSDOF 0
ENDMDL
MODEL 2
REMARK VINA RESULT: -2.359249070      6.626      6.641
REMARK  0 active torsions:
REMARK  status: ('A' for Active; 'I' for Inactive)
ROOT
HETATM    1  O1  UNL     1      93.210  65.228 -12.420  1.00  0.00    -0.258 OA
HETATM    2  S1  UNL     1      93.895  64.725 -11.136  1.00  0.00     0.016 S 
HETATM    3  C1  UNL     1      94.268  63.972  -9.834  1.00  0.00     0.121 A 
HETATM    4  C2  UNL     1      94.057  62.939 -10.942  1.00  0.00     0.121 A 
ENDROOT
TORSDOF 0
ENDMDL
MODEL 3
REMARK VINA RESULT: -2.335459078      4.208      4.328
REMARK  0 active torsions:
REMARK  status: ('A' for Active; 'I' for Inactive)
ROOT
HETATM    1  O1  UNL     1      93.920  62.495 -10.847  1.00  0.00    -0.258 OA
HETATM    2  S1  UNL     1      95.091  62.102  -9.927  1.00  0.00     0.016 S 
HETATM    3  C1  UNL     1      96.326  61.427  -9.282  1.00  0.00     0.121 A 
HETATM    4  C2  UNL     1      96.689  61.820 -10.715  1.00  0.00     0.121 A 
ENDROOT
TORSDOF 0
ENDMDL
MODEL 4
REMARK VINA RESULT: -2.276004981      1.013      1.214
REMARK  0 active torsions:
REMARK  status: ('A' for Active; 'I' for Inactive)
ROOT
HETATM    1  O1  UNL     1      99.126  60.055  -7.657  1.00  0.00    -0.258 OA
HETATM    2  S1  UNL     1      98.337  60.884  -8.686  1.00  0.00     0.016 S 
HETATM    3  C1  UNL     1      97.857  61.631  -9.956  1.00  0.00     0.121 A 
HETATM    4  C2  UNL     1      98.160  60.182 -10.339  1.00  0.00     0.121 A 
ENDROOT
TORSDOF 0
ENDMDL
MODEL 5
REMARK VINA RESULT: -2.268738357      2.236      2.449
REMARK  0 active torsions:
REMARK  status: ('A' for Active; 'I' for Inactive)
ROOT
HETATM    1  O1  UNL     1      97.618  60.779  -8.197  1.00  0.00    -0.258 OA
HETATM    2  S1  UNL     1      96.342  61.216  -8.940  1.00  0.00     0.016 S 
HETATM    3  C1  UNL     1      95.290  61.966  -9.794  1.00  0.00     0.121 A 
HETATM    4  C2  UNL     1      96.536  61.748 -10.653  1.00  0.00     0.121 A 
ENDROOT
TORSDOF 0
ENDMDL
