MODEL 1
REMARK VINA RESULT: -6.524786985      0.000      0.000
REMARK  19 active torsions:
REMARK  status: ('A' for Active; 'I' for Inactive)
REMARK    1  A    between atoms: C2_2  and  C3_3 
REMARK    2  A    between atoms: C3_3  and  C4_4 
REMARK    3  A    between atoms: C4_4  and  C5_5 
REMARK    4  A    between atoms: C5_5  and  C6_6 
REMARK    5  A    between atoms: C6_6  and  C7_7 
REMARK    6  A    between atoms: C7_7  and  C8_8 
REMARK    7  A    between atoms: C8_8  and  C9_9 
REMARK    8  A    between atoms: C9_9  and  C10_10 
REMARK    9  A    between atoms: C10_10  and  N1_11 
REMARK   10  A    between atoms: N1_11  and  C11_12 
REMARK   11  A    between atoms: N1_11  and  C12_14 
REMARK   12  A    between atoms: C13_15  and  O2_16 
REMARK   13  A    between atoms: C15_19  and  C16_20 
REMARK   14  A    between atoms: C16_20  and  O3_21 
REMARK   15  A    between atoms: C17_24  and  O5_25 
REMARK   16  A    between atoms: O5_25  and  C18_26 
REMARK   17  A    between atoms: C21_30  and  O7_31 
REMARK   18  A    between atoms: C22_33  and  O8_34 
REMARK   19  A    between atoms: C26_39  and  O9_40 
ROOT
HETATM    1  C12 UNL     1      24.494  30.491  20.402  1.00  0.00     0.149 C 
HETATM    2  C13 UNL     1      24.036  31.768  19.756  1.00  0.00     0.146 C 
HETATM    3  C14 UNL     1      22.620  31.586  19.232  1.00  0.00     0.068 C 
HETATM    4  C15 UNL     1      22.255  30.194  18.901  1.00  0.00     0.150 C 
HETATM    5  O4  UNL     1      22.232  29.280  19.865  1.00  0.00    -0.351 OA
HETATM    6  C17 UNL     1      22.327  29.567  21.176  1.00  0.00     0.294 C 
HETATM    7  C26 UNL     1      23.627  30.249  21.609  1.00  0.00     0.198 C 
ENDROOT
BRANCH   6   8
HETATM    8  O5  UNL     1      21.225  30.181  21.764  1.00  0.00    -0.328 OA
BRANCH   8   9
HETATM    9  C18 UNL     1      20.335  29.299  22.370  1.00  0.00     0.270 C 
HETATM   10  O6  UNL     1      20.410  29.337  23.752  1.00  0.00    -0.353 OA
HETATM   11  C19 UNL     1      19.659  30.267  24.391  1.00  0.00     0.152 C 
HETATM   12  C20 UNL     1      20.196  31.689  24.272  1.00  0.00     0.042 C 
HETATM   13  C21 UNL     1      18.207  30.186  24.069  1.00  0.00     0.181 C 
HETATM   14  C22 UNL     1      17.858  29.583  22.778  1.00  0.00     0.094 C 
HETATM   15  C23 UNL     1      17.229  30.582  21.796  1.00  0.00     0.042 C 
HETATM   16  C25 UNL     1      18.960  29.308  21.823  1.00  0.00     0.078 C 
HETATM   17  C24 UNL     1      18.539  30.541  21.055  1.00  0.00     0.015 C 
BRANCH  13  18
HETATM   18  O7  UNL     1      17.498  29.563  25.126  1.00  0.00    -0.390 OA
ATOM     19  H7  UNL     1      17.630  30.036  25.939  1.00  0.00     0.210 HD
ENDBRANCH  13  18
BRANCH  14  20
HETATM   20  O8  UNL     1      16.951  28.522  22.930  1.00  0.00    -0.387 OA
ATOM     21  H8  UNL     1      16.079  28.833  23.145  1.00  0.00     0.210 HD
ENDBRANCH  14  20
ENDBRANCH   8   9
ENDBRANCH   6   8
BRANCH   7  22
HETATM   22  O9  UNL     1      23.357  31.419  22.313  1.00  0.00    -0.388 OA
ATOM     23  H9  UNL     1      23.799  31.448  23.153  1.00  0.00     0.210 HD
ENDBRANCH   7  22
BRANCH   4  24
HETATM   24  C16 UNL     1      20.932  30.258  18.118  1.00  0.00     0.196 C 
BRANCH  24  25
HETATM   25  O3  UNL     1      20.235  29.063  18.371  1.00  0.00    -0.398 OA
ATOM     26  H3  UNL     1      19.313  29.281  18.443  1.00  0.00     0.209 HD
ENDBRANCH  24  25
ENDBRANCH   4  24
BRANCH   1  27
HETATM   27  N1  UNL     1      25.901  30.429  20.607  1.00  0.00    -0.349 N 
BRANCH  27  28
HETATM   28  C10 UNL     1      26.891  30.087  19.627  1.00  0.00     0.126 C 
BRANCH  28  29
HETATM   29  C9  UNL     1      28.214  30.677  19.955  1.00  0.00     0.020 C 
BRANCH  29  30
HETATM   30  C8  UNL     1      29.332  30.131  19.077  1.00  0.00     0.002 C 
BRANCH  30  31
HETATM   31  C7  UNL     1      30.606  30.899  19.219  1.00  0.00     0.000 C 
BRANCH  31  32
HETATM   32  C6  UNL     1      31.824  30.007  19.244  1.00  0.00     0.000 C 
BRANCH  32  33
HETATM   33  C5  UNL     1      32.074  29.389  20.591  1.00  0.00     0.000 C 
BRANCH  33  34
HETATM   34  C4  UNL     1      33.558  29.053  20.654  1.00  0.00     0.000 C 
BRANCH  34  35
HETATM   35  C3  UNL     1      33.760  28.140  21.844  1.00  0.00    -0.000 C 
BRANCH  35  36
HETATM   36  C2  UNL     1      34.006  26.712  21.416  1.00  0.00    -0.005 C 
HETATM   37  C1  UNL     1      35.261  26.160  22.075  1.00  0.00     0.005 C 
ENDBRANCH  35  36
ENDBRANCH  34  35
ENDBRANCH  33  34
ENDBRANCH  32  33
ENDBRANCH  31  32
ENDBRANCH  30  31
ENDBRANCH  29  30
ENDBRANCH  28  29
ENDBRANCH  27  28
BRANCH  27  38
HETATM   38  C11 UNL     1      26.410  30.686  21.937  1.00  0.00     0.351 C 
HETATM   39  O1  UNL     1      26.323  31.836  22.422  1.00  0.00    -0.284 OA
ENDBRANCH  27  38
ENDBRANCH   1  27
BRANCH   2  40
HETATM   40  O2  UNL     1      24.080  32.872  20.594  1.00  0.00    -0.393 OA
ATOM     41  H2  UNL     1      23.546  33.601  20.300  1.00  0.00     0.210 HD
ENDBRANCH   2  40
TORSDOF 19
ENDMDL
MODEL 2
REMARK VINA RESULT: -6.441375999      2.328      3.677
REMARK  19 active torsions:
REMARK  status: ('A' for Active; 'I' for Inactive)
REMARK    1  A    between atoms: C2_2  and  C3_3 
REMARK    2  A    between atoms: C3_3  and  C4_4 
REMARK    3  A    between atoms: C4_4  and  C5_5 
REMARK    4  A    between atoms: C5_5  and  C6_6 
REMARK    5  A    between atoms: C6_6  and  C7_7 
REMARK    6  A    between atoms: C7_7  and  C8_8 
REMARK    7  A    between atoms: C8_8  and  C9_9 
REMARK    8  A    between atoms: C9_9  and  C10_10 
REMARK    9  A    between atoms: C10_10  and  N1_11 
REMARK   10  A    between atoms: N1_11  and  C11_12 
REMARK   11  A    between atoms: N1_11  and  C12_14 
REMARK   12  A    between atoms: C13_15  and  O2_16 
REMARK   13  A    between atoms: C15_19  and  C16_20 
REMARK   14  A    between atoms: C16_20  and  O3_21 
REMARK   15  A    between atoms: C17_24  and  O5_25 
REMARK   16  A    between atoms: O5_25  and  C18_26 
REMARK   17  A    between atoms: C21_30  and  O7_31 
REMARK   18  A    between atoms: C22_33  and  O8_34 
REMARK   19  A    between atoms: C26_39  and  O9_40 
ROOT
HETATM    1  C12 UNL     1      26.123  29.170  19.157  1.00  0.00     0.149 C 
HETATM    2  C13 UNL     1      25.353  27.925  18.816  1.00  0.00     0.146 C 
HETATM    3  C14 UNL     1      24.689  27.385  20.073  1.00  0.00     0.068 C 
HETATM    4  C15 UNL     1      25.367  27.742  21.335  1.00  0.00     0.150 C 
HETATM    5  O4  UNL     1      25.456  29.019  21.689  1.00  0.00    -0.351 OA
HETATM    6  C17 UNL     1      24.797  30.018  21.074  1.00  0.00     0.294 C 
HETATM    7  C26 UNL     1      25.133  30.218  19.595  1.00  0.00     0.198 C 
ENDROOT
BRANCH   6   8
HETATM    8  O5  UNL     1      23.421  30.080  21.283  1.00  0.00    -0.328 OA
BRANCH   8   9
HETATM    9  C18 UNL     1      23.056  30.497  22.560  1.00  0.00     0.270 C 
HETATM   10  O6  UNL     1      22.578  31.796  22.575  1.00  0.00    -0.353 OA
HETATM   11  C19 UNL     1      21.258  31.977  22.322  1.00  0.00     0.152 C 
HETATM   12  C20 UNL     1      20.875  31.800  20.857  1.00  0.00     0.042 C 
HETATM   13  C21 UNL     1      20.364  31.208  23.233  1.00  0.00     0.181 C 
HETATM   14  C22 UNL     1      20.934  30.000  23.838  1.00  0.00     0.094 C 
HETATM   15  C23 UNL     1      20.264  28.707  23.350  1.00  0.00     0.042 C 
HETATM   16  C25 UNL     1      22.249  29.529  23.336  1.00  0.00     0.078 C 
HETATM   17  C24 UNL     1      21.518  28.464  22.552  1.00  0.00     0.015 C 
BRANCH  13  18
HETATM   18  O7  UNL     1      19.815  32.058  24.223  1.00  0.00    -0.390 OA
ATOM     19  H7  UNL     1      20.477  32.653  24.557  1.00  0.00     0.210 HD
ENDBRANCH  13  18
BRANCH  14  20
HETATM   20  O8  UNL     1      20.827  30.021  25.238  1.00  0.00    -0.387 OA
ATOM     21  H8  UNL     1      20.255  29.333  25.557  1.00  0.00     0.210 HD
ENDBRANCH  14  20
ENDBRANCH   8   9
ENDBRANCH   6   8
BRANCH   7  22
HETATM   22  O9  UNL     1      23.976  30.211  18.822  1.00  0.00    -0.388 OA
ATOM     23  H9  UNL     1      23.272  30.711  19.218  1.00  0.00     0.210 HD
ENDBRANCH   7  22
BRANCH   4  24
HETATM   24  C16 UNL     1      24.740  26.869  22.436  1.00  0.00     0.196 C 
BRANCH  24  25
HETATM   25  O3  UNL     1      25.757  26.044  22.950  1.00  0.00    -0.398 OA
ATOM     26  H3  UNL     1      25.663  25.190  22.545  1.00  0.00     0.209 HD
ENDBRANCH  24  25
ENDBRANCH   4  24
BRANCH   1  27
HETATM   27  N1  UNL     1      27.057  29.556  18.155  1.00  0.00    -0.349 N 
BRANCH  27  28
HETATM   28  C10 UNL     1      28.477  29.675  18.314  1.00  0.00     0.126 C 
BRANCH  28  29
HETATM   29  C9  UNL     1      28.830  30.405  19.559  1.00  0.00     0.020 C 
BRANCH  29  30
HETATM   30  C8  UNL     1      30.280  30.868  19.574  1.00  0.00     0.002 C 
BRANCH  30  31
HETATM   31  C7  UNL     1      31.238  29.782  19.204  1.00  0.00     0.000 C 
BRANCH  31  32
HETATM   32  C6  UNL     1      32.189  29.436  20.325  1.00  0.00     0.000 C 
BRANCH  32  33
HETATM   33  C5  UNL     1      33.614  29.801  20.021  1.00  0.00     0.000 C 
BRANCH  33  34
HETATM   34  C4  UNL     1      34.492  28.781  20.734  1.00  0.00     0.000 C 
BRANCH  34  35
HETATM   35  C3  UNL     1      33.570  27.837  21.475  1.00  0.00    -0.000 C 
BRANCH  35  36
HETATM   36  C2  UNL     1      34.087  26.417  21.451  1.00  0.00    -0.005 C 
HETATM   37  C1  UNL     1      35.508  26.352  21.988  1.00  0.00     0.005 C 
ENDBRANCH  35  36
ENDBRANCH  34  35
ENDBRANCH  33  34
ENDBRANCH  32  33
ENDBRANCH  31  32
ENDBRANCH  30  31
ENDBRANCH  29  30
ENDBRANCH  28  29
ENDBRANCH  27  28
BRANCH  27  38
HETATM   38  C11 UNL     1      26.547  29.914  16.848  1.00  0.00     0.351 C 
HETATM   39  O1  UNL     1      26.680  29.119  15.892  1.00  0.00    -0.284 OA
ENDBRANCH  27  38
ENDBRANCH   1  27
BRANCH   2  40
HETATM   40  O2  UNL     1      24.396  28.107  17.830  1.00  0.00    -0.393 OA
ATOM     41  H2  UNL     1      24.172  27.313  17.359  1.00  0.00     0.210 HD
ENDBRANCH   2  40
TORSDOF 19
ENDMDL
MODEL 3
REMARK VINA RESULT: -6.266232619      1.288      1.933
REMARK  19 active torsions:
REMARK  status: ('A' for Active; 'I' for Inactive)
REMARK    1  A    between atoms: C2_2  and  C3_3 
REMARK    2  A    between atoms: C3_3  and  C4_4 
REMARK    3  A    between atoms: C4_4  and  C5_5 
REMARK    4  A    between atoms: C5_5  and  C6_6 
REMARK    5  A    between atoms: C6_6  and  C7_7 
REMARK    6  A    between atoms: C7_7  and  C8_8 
REMARK    7  A    between atoms: C8_8  and  C9_9 
REMARK    8  A    between atoms: C9_9  and  C10_10 
REMARK    9  A    between atoms: C10_10  and  N1_11 
REMARK   10  A    between atoms: N1_11  and  C11_12 
REMARK   11  A    between atoms: N1_11  and  C12_14 
REMARK   12  A    between atoms: C13_15  and  O2_16 
REMARK   13  A    between atoms: C15_19  and  C16_20 
REMARK   14  A    between atoms: C16_20  and  O3_21 
REMARK   15  A    between atoms: C17_24  and  O5_25 
REMARK   16  A    between atoms: O5_25  and  C18_26 
REMARK   17  A    between atoms: C21_30  and  O7_31 
REMARK   18  A    between atoms: C22_33  and  O8_34 
REMARK   19  A    between atoms: C26_39  and  O9_40 
ROOT
HETATM    1  C12 UNL     1      24.759  30.002  20.228  1.00  0.00     0.149 C 
HETATM    2  C13 UNL     1      25.068  31.297  20.926  1.00  0.00     0.146 C 
HETATM    3  C14 UNL     1      23.804  32.138  21.007  1.00  0.00     0.068 C 
HETATM    4  C15 UNL     1      22.809  31.867  19.951  1.00  0.00     0.150 C 
HETATM    5  O4  UNL     1      22.246  30.666  19.879  1.00  0.00    -0.351 OA
HETATM    6  C17 UNL     1      22.369  29.719  20.828  1.00  0.00     0.294 C 
HETATM    7  C26 UNL     1      23.795  29.232  21.093  1.00  0.00     0.198 C 
ENDROOT
BRANCH   6   8
HETATM    8  O5  UNL     1      21.690  29.941  22.023  1.00  0.00    -0.328 OA
BRANCH   8   9
HETATM    9  C18 UNL     1      20.742  28.968  22.330  1.00  0.00     0.270 C 
HETATM   10  O6  UNL     1      20.739  28.639  23.674  1.00  0.00    -0.353 OA
HETATM   11  C19 UNL     1      19.978  29.398  24.500  1.00  0.00     0.152 C 
HETATM   12  C20 UNL     1      20.560  30.778  24.788  1.00  0.00     0.042 C 
HETATM   13  C21 UNL     1      18.546  29.466  24.099  1.00  0.00     0.181 C 
HETATM   14  C22 UNL     1      18.255  29.239  22.679  1.00  0.00     0.094 C 
HETATM   15  C23 UNL     1      17.712  30.486  21.968  1.00  0.00     0.042 C 
HETATM   16  C25 UNL     1      19.402  29.179  21.739  1.00  0.00     0.078 C 
HETATM   17  C24 UNL     1      19.061  30.587  21.306  1.00  0.00     0.015 C 
BRANCH  13  18
HETATM   18  O7  UNL     1      17.760  28.618  24.917  1.00  0.00    -0.390 OA
ATOM     19  H7  UNL     1      16.901  28.486  24.532  1.00  0.00     0.210 HD
ENDBRANCH  13  18
BRANCH  14  20
HETATM   20  O8  UNL     1      17.311  28.214  22.500  1.00  0.00    -0.387 OA
ATOM     21  H8  UNL     1      17.420  27.779  21.663  1.00  0.00     0.210 HD
ENDBRANCH  14  20
ENDBRANCH   8   9
ENDBRANCH   6   8
BRANCH   7  22
HETATM   22  O9  UNL     1      24.103  29.327  22.447  1.00  0.00    -0.388 OA
ATOM     23  H9  UNL     1      23.514  28.817  22.990  1.00  0.00     0.210 HD
ENDBRANCH   7  22
BRANCH   4  24
HETATM   24  C16 UNL     1      21.771  33.000  20.019  1.00  0.00     0.196 C 
BRANCH  24  25
HETATM   25  O3  UNL     1      21.369  33.123  21.362  1.00  0.00    -0.398 OA
ATOM     26  H3  UNL     1      22.038  33.622  21.815  1.00  0.00     0.209 HD
ENDBRANCH  24  25
ENDBRANCH   4  24
BRANCH   1  27
HETATM   27  N1  UNL     1      25.916  29.302  19.786  1.00  0.00    -0.349 N 
BRANCH  27  28
HETATM   28  C10 UNL     1      27.223  29.857  19.584  1.00  0.00     0.126 C 
BRANCH  28  29
HETATM   29  C9  UNL     1      27.775  29.487  18.255  1.00  0.00     0.020 C 
BRANCH  29  30
HETATM   30  C8  UNL     1      29.280  29.704  18.167  1.00  0.00     0.002 C 
BRANCH  30  31
HETATM   31  C7  UNL     1      29.810  30.542  19.285  1.00  0.00     0.000 C 
BRANCH  31  32
HETATM   32  C6  UNL     1      31.311  30.448  19.422  1.00  0.00     0.000 C 
BRANCH  32  33
HETATM   33  C5  UNL     1      31.750  29.370  20.372  1.00  0.00     0.000 C 
BRANCH  33  34
HETATM   34  C4  UNL     1      33.271  29.427  20.432  1.00  0.00     0.000 C 
BRANCH  34  35
HETATM   35  C3  UNL     1      33.708  28.514  21.557  1.00  0.00    -0.000 C 
BRANCH  35  36
HETATM   36  C2  UNL     1      34.666  27.450  21.072  1.00  0.00    -0.005 C 
HETATM   37  C1  UNL     1      34.287  26.088  21.630  1.00  0.00     0.005 C 
ENDBRANCH  35  36
ENDBRANCH  34  35
ENDBRANCH  33  34
ENDBRANCH  32  33
ENDBRANCH  31  32
ENDBRANCH  30  31
ENDBRANCH  29  30
ENDBRANCH  28  29
ENDBRANCH  27  28
BRANCH  27  38
HETATM   38  C11 UNL     1      25.781  27.899  19.455  1.00  0.00     0.351 C 
HETATM   39  O1  UNL     1      24.960  27.547  18.579  1.00  0.00    -0.284 OA
ENDBRANCH  27  38
ENDBRANCH   1  27
BRANCH   2  40
HETATM   40  O2  UNL     1      25.601  31.139  22.196  1.00  0.00    -0.393 OA
ATOM     41  H2  UNL     1      26.230  31.809  22.436  1.00  0.00     0.210 HD
ENDBRANCH   2  40
TORSDOF 19
ENDMDL
MODEL 4
REMARK VINA RESULT: -6.227539450      1.738      2.891
REMARK  19 active torsions:
REMARK  status: ('A' for Active; 'I' for Inactive)
REMARK    1  A    between atoms: C2_2  and  C3_3 
REMARK    2  A    between atoms: C3_3  and  C4_4 
REMARK    3  A    between atoms: C4_4  and  C5_5 
REMARK    4  A    between atoms: C5_5  and  C6_6 
REMARK    5  A    between atoms: C6_6  and  C7_7 
REMARK    6  A    between atoms: C7_7  and  C8_8 
REMARK    7  A    between atoms: C8_8  and  C9_9 
REMARK    8  A    between atoms: C9_9  and  C10_10 
REMARK    9  A    between atoms: C10_10  and  N1_11 
REMARK   10  A    between atoms: N1_11  and  C11_12 
REMARK   11  A    between atoms: N1_11  and  C12_14 
REMARK   12  A    between atoms: C13_15  and  O2_16 
REMARK   13  A    between atoms: C15_19  and  C16_20 
REMARK   14  A    between atoms: C16_20  and  O3_21 
REMARK   15  A    between atoms: C17_24  and  O5_25 
REMARK   16  A    between atoms: O5_25  and  C18_26 
REMARK   17  A    between atoms: C21_30  and  O7_31 
REMARK   18  A    between atoms: C22_33  and  O8_34 
REMARK   19  A    between atoms: C26_39  and  O9_40 
ROOT
HETATM    1  C12 UNL     1      25.609  29.994  19.530  1.00  0.00     0.149 C 
HETATM    2  C13 UNL     1      25.989  30.868  20.693  1.00  0.00     0.146 C 
HETATM    3  C14 UNL     1      24.807  31.749  21.067  1.00  0.00     0.068 C 
HETATM    4  C15 UNL     1      23.869  32.029  19.962  1.00  0.00     0.150 C 
HETATM    5  O4  UNL     1      23.201  31.025  19.403  1.00  0.00    -0.351 OA
HETATM    6  C17 UNL     1      23.167  29.776  19.901  1.00  0.00     0.294 C 
HETATM    7  C26 UNL     1      24.518  29.064  19.991  1.00  0.00     0.198 C 
ENDROOT
BRANCH   6   8
HETATM    8  O5  UNL     1      22.429  29.588  21.067  1.00  0.00    -0.328 OA
BRANCH   8   9
HETATM    9  C18 UNL     1      21.067  29.845  20.929  1.00  0.00     0.270 C 
HETATM   10  O6  UNL     1      20.317  28.687  20.832  1.00  0.00    -0.353 OA
HETATM   11  C19 UNL     1      19.916  28.105  21.989  1.00  0.00     0.152 C 
HETATM   12  C20 UNL     1      21.028  27.381  22.739  1.00  0.00     0.042 C 
HETATM   13  C21 UNL     1      19.140  29.015  22.877  1.00  0.00     0.181 C 
HETATM   14  C22 UNL     1      19.384  30.452  22.713  1.00  0.00     0.094 C 
HETATM   15  C23 UNL     1      20.055  31.093  23.935  1.00  0.00     0.042 C 
HETATM   16  C25 UNL     1      20.518  30.866  21.850  1.00  0.00     0.078 C 
HETATM   17  C24 UNL     1      21.311  31.150  23.105  1.00  0.00     0.015 C 
BRANCH  13  18
HETATM   18  O7  UNL     1      17.755  28.726  22.796  1.00  0.00    -0.390 OA
ATOM     19  H7  UNL     1      17.617  27.862  22.425  1.00  0.00     0.210 HD
ENDBRANCH  13  18
BRANCH  14  20
HETATM   20  O8  UNL     1      18.193  31.157  22.474  1.00  0.00    -0.387 OA
ATOM     21  H8  UNL     1      18.290  32.083  22.660  1.00  0.00     0.210 HD
ENDBRANCH  14  20
ENDBRANCH   8   9
ENDBRANCH   6   8
BRANCH   7  22
HETATM   22  O9  UNL     1      24.737  28.585  21.280  1.00  0.00    -0.388 OA
ATOM     23  H9  UNL     1      24.452  27.685  21.386  1.00  0.00     0.210 HD
ENDBRANCH   7  22
BRANCH   4  24
HETATM   24  C16 UNL     1      22.940  33.156  20.445  1.00  0.00     0.196 C 
BRANCH  24  25
HETATM   25  O3  UNL     1      23.446  34.367  19.939  1.00  0.00    -0.398 OA
ATOM     26  H3  UNL     1      22.789  35.036  20.090  1.00  0.00     0.209 HD
ENDBRANCH  24  25
ENDBRANCH   4  24
BRANCH   1  27
HETATM   27  N1  UNL     1      26.724  29.396  18.879  1.00  0.00    -0.349 N 
BRANCH  27  28
HETATM   28  C10 UNL     1      28.091  29.819  18.967  1.00  0.00     0.126 C 
BRANCH  28  29
HETATM   29  C9  UNL     1      28.857  29.454  17.748  1.00  0.00     0.020 C 
BRANCH  29  30
HETATM   30  C8  UNL     1      30.329  29.832  17.847  1.00  0.00     0.002 C 
BRANCH  30  31
HETATM   31  C7  UNL     1      30.744  30.179  19.240  1.00  0.00     0.000 C 
BRANCH  31  32
HETATM   32  C6  UNL     1      32.068  30.904  19.290  1.00  0.00     0.000 C 
BRANCH  32  33
HETATM   33  C5  UNL     1      33.180  30.062  19.845  1.00  0.00     0.000 C 
BRANCH  33  34
HETATM   34  C4  UNL     1      32.533  29.001  20.727  1.00  0.00     0.000 C 
BRANCH  34  35
HETATM   35  C3  UNL     1      33.612  28.460  21.640  1.00  0.00    -0.000 C 
BRANCH  35  36
HETATM   36  C2  UNL     1      33.877  26.995  21.383  1.00  0.00    -0.005 C 
HETATM   37  C1  UNL     1      35.371  26.713  21.362  1.00  0.00     0.005 C 
ENDBRANCH  35  36
ENDBRANCH  34  35
ENDBRANCH  33  34
ENDBRANCH  32  33
ENDBRANCH  31  32
ENDBRANCH  30  31
ENDBRANCH  29  30
ENDBRANCH  28  29
ENDBRANCH  27  28
BRANCH  27  38
HETATM   38  C11 UNL     1      26.478  28.275  17.996  1.00  0.00     0.351 C 
HETATM   39  O1  UNL     1      25.760  28.431  16.984  1.00  0.00    -0.284 OA
ENDBRANCH  27  38
ENDBRANCH   1  27
BRANCH   2  40
HETATM   40  O2  UNL     1      26.413  30.166  21.810  1.00  0.00    -0.393 OA
ATOM     41  H2  UNL     1      27.344  29.979  21.819  1.00  0.00     0.210 HD
ENDBRANCH   2  40
TORSDOF 19
ENDMDL
MODEL 5
REMARK VINA RESULT: -6.164432759      6.742      8.217
REMARK  19 active torsions:
REMARK  status: ('A' for Active; 'I' for Inactive)
REMARK    1  A    between atoms: C2_2  and  C3_3 
REMARK    2  A    between atoms: C3_3  and  C4_4 
REMARK    3  A    between atoms: C4_4  and  C5_5 
REMARK    4  A    between atoms: C5_5  and  C6_6 
REMARK    5  A    between atoms: C6_6  and  C7_7 
REMARK    6  A    between atoms: C7_7  and  C8_8 
REMARK    7  A    between atoms: C8_8  and  C9_9 
REMARK    8  A    between atoms: C9_9  and  C10_10 
REMARK    9  A    between atoms: C10_10  and  N1_11 
REMARK   10  A    between atoms: N1_11  and  C11_12 
REMARK   11  A    between atoms: N1_11  and  C12_14 
REMARK   12  A    between atoms: C13_15  and  O2_16 
REMARK   13  A    between atoms: C15_19  and  C16_20 
REMARK   14  A    between atoms: C16_20  and  O3_21 
REMARK   15  A    between atoms: C17_24  and  O5_25 
REMARK   16  A    between atoms: O5_25  and  C18_26 
REMARK   17  A    between atoms: C21_30  and  O7_31 
REMARK   18  A    between atoms: C22_33  and  O8_34 
REMARK   19  A    between atoms: C26_39  and  O9_40 
ROOT
HETATM    1  C12 UNL     1      29.741  29.346  16.525  1.00  0.00     0.149 C 
HETATM    2  C13 UNL     1      28.792  29.847  15.473  1.00  0.00     0.146 C 
HETATM    3  C14 UNL     1      28.505  28.728  14.483  1.00  0.00     0.068 C 
HETATM    4  C15 UNL     1      29.572  27.714  14.366  1.00  0.00     0.150 C 
HETATM    5  O4  UNL     1      29.884  26.972  15.422  1.00  0.00    -0.351 OA
HETATM    6  C17 UNL     1      29.161  26.936  16.556  1.00  0.00     0.294 C 
HETATM    7  C26 UNL     1      29.038  28.265  17.303  1.00  0.00     0.198 C 
ENDROOT
BRANCH   6   8
HETATM    8  O5  UNL     1      27.930  26.287  16.492  1.00  0.00    -0.328 OA
BRANCH   8   9
HETATM    9  C18 UNL     1      27.695  25.403  17.543  1.00  0.00     0.270 C 
HETATM   10  O6  UNL     1      26.632  25.796  18.336  1.00  0.00    -0.353 OA
HETATM   11  C19 UNL     1      25.392  25.405  17.954  1.00  0.00     0.152 C 
HETATM   12  C20 UNL     1      24.841  26.167  16.754  1.00  0.00     0.042 C 
HETATM   13  C21 UNL     1      25.252  23.930  17.795  1.00  0.00     0.181 C 
HETATM   14  C22 UNL     1      26.483  23.187  17.502  1.00  0.00     0.094 C 
HETATM   15  C23 UNL     1      26.489  22.559  16.101  1.00  0.00     0.042 C 
HETATM   16  C25 UNL     1      27.702  23.969  17.177  1.00  0.00     0.078 C 
HETATM   17  C24 UNL     1      27.474  23.634  15.721  1.00  0.00     0.015 C 
BRANCH  13  18
HETATM   18  O7  UNL     1      24.578  23.372  18.908  1.00  0.00    -0.390 OA
ATOM     19  H7  UNL     1      25.082  22.655  19.277  1.00  0.00     0.210 HD
ENDBRANCH  13  18
BRANCH  14  20
HETATM   20  O8  UNL     1      26.693  22.149  18.424  1.00  0.00    -0.387 OA
ATOM     21  H8  UNL     1      25.874  21.810  18.764  1.00  0.00     0.210 HD
ENDBRANCH  14  20
ENDBRANCH   8   9
ENDBRANCH   6   8
BRANCH   7  22
HETATM   22  O9  UNL     1      27.702  28.570  17.547  1.00  0.00    -0.388 OA
ATOM     23  H9  UNL     1      27.169  28.523  16.762  1.00  0.00     0.210 HD
ENDBRANCH   7  22
BRANCH   4  24
HETATM   24  C16 UNL     1      29.241  26.865  13.127  1.00  0.00     0.196 C 
BRANCH  24  25
HETATM   25  O3  UNL     1      27.987  26.267  13.348  1.00  0.00    -0.398 OA
ATOM     26  H3  UNL     1      27.433  26.485  12.607  1.00  0.00     0.209 HD
ENDBRANCH  24  25
ENDBRANCH   4  24
BRANCH   1  27
HETATM   27  N1  UNL     1      30.348  30.385  17.285  1.00  0.00    -0.349 N 
BRANCH  27  28
HETATM   28  C10 UNL     1      30.332  30.518  18.713  1.00  0.00     0.126 C 
BRANCH  28  29
HETATM   29  C9  UNL     1      31.447  29.768  19.346  1.00  0.00     0.020 C 
BRANCH  29  30
HETATM   30  C8  UNL     1      32.574  30.679  19.814  1.00  0.00     0.002 C 
BRANCH  30  31
HETATM   31  C7  UNL     1      33.804  30.555  18.975  1.00  0.00     0.000 C 
BRANCH  31  32
HETATM   32  C6  UNL     1      35.072  30.563  19.796  1.00  0.00     0.000 C 
BRANCH  32  33
HETATM   33  C5  UNL     1      35.472  29.197  20.274  1.00  0.00     0.000 C 
BRANCH  33  34
HETATM   34  C4  UNL     1      35.456  29.240  21.797  1.00  0.00     0.000 C 
BRANCH  34  35
HETATM   35  C3  UNL     1      34.216  28.503  22.252  1.00  0.00    -0.000 C 
BRANCH  35  36
HETATM   36  C2  UNL     1      33.812  27.430  21.267  1.00  0.00    -0.005 C 
HETATM   37  C1  UNL     1      34.308  26.066  21.721  1.00  0.00     0.005 C 
ENDBRANCH  35  36
ENDBRANCH  34  35
ENDBRANCH  33  34
ENDBRANCH  32  33
ENDBRANCH  31  32
ENDBRANCH  30  31
ENDBRANCH  29  30
ENDBRANCH  28  29
ENDBRANCH  27  28
BRANCH  27  38
HETATM   38  C11 UNL     1      31.015  31.454  16.571  1.00  0.00     0.351 C 
HETATM   39  O1  UNL     1      31.324  32.504  17.177  1.00  0.00    -0.284 OA
ENDBRANCH  27  38
ENDBRANCH   1  27
BRANCH   2  40
HETATM   40  O2  UNL     1      27.597  30.335  15.977  1.00  0.00    -0.393 OA
ATOM     41  H2  UNL     1      26.862  29.743  15.868  1.00  0.00     0.210 HD
ENDBRANCH   2  40
TORSDOF 19
ENDMDL
