MODEL 1
REMARK VINA RESULT: -7.061369160      0.000      0.000
REMARK  25 active torsions:
REMARK  status: ('A' for Active; 'I' for Inactive)
REMARK    1  A    between atoms: C2_2  and  C3_3 
REMARK    2  A    between atoms: C2_2  and  C11_16 
REMARK    3  A    between atoms: C3_3  and  C4_4 
REMARK    4  A    between atoms: C3_3  and  O2_7 
REMARK    5  A    between atoms: C4_4  and  O1_5 
REMARK    6  A    between atoms: O2_7  and  C5_8 
REMARK    7  A    between atoms: C5_8  and  C6_9 
REMARK    8  A    between atoms: C6_9  and  O4_11 
REMARK    9  A    between atoms: O4_11  and  C7_12 
REMARK   10  A    between atoms: C11_16  and  O5_17 
REMARK   11  A    between atoms: C11_16  and  C12_19 
REMARK   12  A    between atoms: C12_19  and  O6_20 
REMARK   13  A    between atoms: C12_19  and  C13_22 
REMARK   14  A    between atoms: C13_22  and  O7_23 
REMARK   15  A    between atoms: C13_22  and  C14_25 
REMARK   16  A    between atoms: C14_25  and  O8_26 
REMARK   17  A    between atoms: C15_28  and  C16_29 
REMARK   18  A    between atoms: C16_29  and  C17_30 
REMARK   19  A    between atoms: C17_30  and  C18_31 
REMARK   20  A    between atoms: C18_31  and  C19_32 
REMARK   21  A    between atoms: C19_32  and  C20_33 
REMARK   22  A    between atoms: C21_34  and  C22_35 
REMARK   23  A    between atoms: C22_35  and  C23_36 
REMARK   24  A    between atoms: C24_37  and  C25_38 
REMARK   25  A    between atoms: C28_41  and  O9_42 
ROOT
HETATM    1  C13 UNL     1      28.636  29.865  16.301  1.00  0.00     0.205 C 
ENDROOT
BRANCH   1   2
HETATM    2  C12 UNL     1      28.444  28.997  17.523  1.00  0.00     0.182 C 
BRANCH   2   3
HETATM    3  C11 UNL     1      27.192  29.244  18.282  1.00  0.00     0.156 C 
BRANCH   3   4
HETATM    4  C2  UNL     1      26.124  28.211  18.296  1.00  0.00     0.044 C 
HETATM    5  C1  UNL     1      24.858  28.459  17.537  1.00  0.00     0.015 C 
BRANCH   4   6
HETATM    6  C3  UNL     1      25.743  27.758  19.684  1.00  0.00     0.151 C 
BRANCH   6   7
HETATM    7  C4  UNL     1      25.635  26.199  19.745  1.00  0.00     0.196 C 
BRANCH   7   8
HETATM    8  O1  UNL     1      26.141  25.680  20.906  1.00  0.00    -0.398 OA
ATOM      9  H1  UNL     1      26.578  24.847  20.775  1.00  0.00     0.209 HD
ENDBRANCH   7   8
ENDBRANCH   6   7
BRANCH   6  10
HETATM   10  O2  UNL     1      24.383  28.070  20.020  1.00  0.00    -0.374 OA
BRANCH  10  11
HETATM   11  C5  UNL     1      24.403  28.882  21.162  1.00  0.00     0.279 C 
BRANCH  11  12
HETATM   12  C6  UNL     1      23.699  28.215  22.300  1.00  0.00     0.283 C 
HETATM   13  O3  UNL     1      23.592  26.992  22.427  1.00  0.00    -0.263 OA
BRANCH  12  14
HETATM   14  O4  UNL     1      23.114  29.016  23.260  1.00  0.00    -0.310 OA
BRANCH  14  15
HETATM   15  C7  UNL     1      21.921  29.743  23.093  1.00  0.00     0.060 C 
HETATM   16  C8  UNL     1      22.377  31.148  22.732  1.00  0.00     0.045 C 
HETATM   17  C9  UNL     1      21.283  29.776  24.488  1.00  0.00     0.045 C 
HETATM   18  C10 UNL     1      20.943  29.157  22.153  1.00  0.00     0.045 C 
ENDBRANCH  14  15
ENDBRANCH  12  14
ENDBRANCH  11  12
ENDBRANCH  10  11
ENDBRANCH   6  10
ENDBRANCH   4   6
ENDBRANCH   3   4
BRANCH   3  19
HETATM   19  O5  UNL     1      27.421  29.618  19.586  1.00  0.00    -0.392 OA
ATOM     20  H5  UNL     1      27.580  28.826  20.086  1.00  0.00     0.210 HD
ENDBRANCH   3  19
ENDBRANCH   2   3
BRANCH   2  21
HETATM   21  O6  UNL     1      29.548  29.170  18.434  1.00  0.00    -0.390 OA
ATOM     22  H6  UNL     1      30.260  28.620  18.130  1.00  0.00     0.210 HD
ENDBRANCH   2  21
ENDBRANCH   1   2
BRANCH   1  23
HETATM   23  O7  UNL     1      27.398  30.277  15.883  1.00  0.00    -0.386 OA
ATOM     24  H7  UNL     1      26.960  29.528  15.495  1.00  0.00     0.210 HD
ENDBRANCH   1  23
BRANCH   1  25
HETATM   25  C14 UNL     1      29.553  29.269  15.364  1.00  0.00     0.074 C 
HETATM   26  C15 UNL     1      30.304  29.649  14.228  1.00  0.00     0.035 C 
BRANCH  25  27
HETATM   27  O8  UNL     1      29.807  27.963  15.619  1.00  0.00    -0.362 OA
ATOM     28  H8  UNL     1      29.456  27.376  14.959  1.00  0.00     0.217 HD
ENDBRANCH  25  27
BRANCH  26  29
HETATM   29  C16 UNL     1      30.329  30.793  13.592  1.00  0.00     0.003 C 
BRANCH  29  30
HETATM   30  C17 UNL     1      30.238  32.076  14.148  1.00  0.00     0.008 C 
BRANCH  30  31
HETATM   31  C18 UNL     1      31.034  32.779  15.008  1.00  0.00     0.055 C 
BRANCH  31  32
HETATM   32  C19 UNL     1      31.191  32.571  16.318  1.00  0.00    -0.128 C 
BRANCH  32  33
HETATM   33  C20 UNL     1      31.356  32.359  17.623  1.00  0.00     0.064 C 
HETATM   34  C21 UNL     1      32.424  31.422  17.894  1.00  0.00     0.064 C 
BRANCH  34  35
HETATM   35  C22 UNL     1      32.965  30.714  18.791  1.00  0.00    -0.128 C 
BRANCH  35  36
HETATM   36  C23 UNL     1      33.408  29.913  19.742  1.00  0.00     0.052 C 
HETATM   37  C24 UNL     1      33.297  29.127  20.747  1.00  0.00    -0.011 C 
BRANCH  37  38
HETATM   38  C25 UNL     1      34.556  28.517  21.316  1.00  0.00     0.044 A 
HETATM   39  C26 UNL     1      34.120  27.289  22.160  1.00  0.00     0.021 A 
HETATM   40  C27 UNL     1      34.380  25.959  21.605  1.00  0.00     0.013 C 
HETATM   41  C28 UNL     1      35.021  28.318  22.649  1.00  0.00     0.130 A 
BRANCH  41  42
HETATM   42  O9  UNL     1      36.371  27.884  22.805  1.00  0.00    -0.394 OA
ATOM     43  H9  UNL     1      36.526  27.170  23.412  1.00  0.00     0.210 HD
ENDBRANCH  41  42
ENDBRANCH  37  38
ENDBRANCH  35  36
ENDBRANCH  34  35
ENDBRANCH  32  33
ENDBRANCH  31  32
ENDBRANCH  30  31
ENDBRANCH  29  30
ENDBRANCH  26  29
ENDBRANCH   1  25
TORSDOF 25
ENDMDL
MODEL 2
REMARK VINA RESULT: -6.934327454      1.452      2.335
REMARK  25 active torsions:
REMARK  status: ('A' for Active; 'I' for Inactive)
REMARK    1  A    between atoms: C2_2  and  C3_3 
REMARK    2  A    between atoms: C2_2  and  C11_16 
REMARK    3  A    between atoms: C3_3  and  C4_4 
REMARK    4  A    between atoms: C3_3  and  O2_7 
REMARK    5  A    between atoms: C4_4  and  O1_5 
REMARK    6  A    between atoms: O2_7  and  C5_8 
REMARK    7  A    between atoms: C5_8  and  C6_9 
REMARK    8  A    between atoms: C6_9  and  O4_11 
REMARK    9  A    between atoms: O4_11  and  C7_12 
REMARK   10  A    between atoms: C11_16  and  O5_17 
REMARK   11  A    between atoms: C11_16  and  C12_19 
REMARK   12  A    between atoms: C12_19  and  O6_20 
REMARK   13  A    between atoms: C12_19  and  C13_22 
REMARK   14  A    between atoms: C13_22  and  O7_23 
REMARK   15  A    between atoms: C13_22  and  C14_25 
REMARK   16  A    between atoms: C14_25  and  O8_26 
REMARK   17  A    between atoms: C15_28  and  C16_29 
REMARK   18  A    between atoms: C16_29  and  C17_30 
REMARK   19  A    between atoms: C17_30  and  C18_31 
REMARK   20  A    between atoms: C18_31  and  C19_32 
REMARK   21  A    between atoms: C19_32  and  C20_33 
REMARK   22  A    between atoms: C21_34  and  C22_35 
REMARK   23  A    between atoms: C22_35  and  C23_36 
REMARK   24  A    between atoms: C24_37  and  C25_38 
REMARK   25  A    between atoms: C28_41  and  O9_42 
ROOT
HETATM    1  C13 UNL     1      27.151  28.223  17.525  1.00  0.00     0.205 C 
ENDROOT
BRANCH   1   2
HETATM    2  C12 UNL     1      26.623  29.222  18.528  1.00  0.00     0.182 C 
BRANCH   2   3
HETATM    3  C11 UNL     1      25.528  28.724  19.399  1.00  0.00     0.156 C 
BRANCH   3   4
HETATM    4  C2  UNL     1      25.147  29.493  20.612  1.00  0.00     0.044 C 
HETATM    5  C1  UNL     1      26.196  30.268  21.347  1.00  0.00     0.015 C 
BRANCH   4   6
HETATM    6  C3  UNL     1      24.389  28.675  21.629  1.00  0.00     0.151 C 
BRANCH   6   7
HETATM    7  C4  UNL     1      24.983  27.232  21.730  1.00  0.00     0.196 C 
BRANCH   7   8
HETATM    8  O1  UNL     1      24.278  26.429  22.585  1.00  0.00    -0.398 OA
ATOM      9  H1  UNL     1      24.403  25.505  22.407  1.00  0.00     0.209 HD
ENDBRANCH   7   8
ENDBRANCH   6   7
BRANCH   6  10
HETATM   10  O2  UNL     1      23.068  28.323  21.191  1.00  0.00    -0.374 OA
BRANCH  10  11
HETATM   11  C5  UNL     1      22.161  29.144  21.873  1.00  0.00     0.279 C 
BRANCH  11  12
HETATM   12  C6  UNL     1      21.147  28.323  22.604  1.00  0.00     0.283 C 
HETATM   13  O3  UNL     1      21.318  27.146  22.937  1.00  0.00    -0.263 OA
BRANCH  12  14
HETATM   14  O4  UNL     1      19.935  28.908  22.910  1.00  0.00    -0.310 OA
BRANCH  14  15
HETATM   15  C7  UNL     1      19.693  29.743  24.016  1.00  0.00     0.060 C 
HETATM   16  C8  UNL     1      18.310  29.341  24.505  1.00  0.00     0.045 C 
HETATM   17  C9  UNL     1      19.615  31.159  23.431  1.00  0.00     0.045 C 
HETATM   18  C10 UNL     1      20.737  29.733  25.062  1.00  0.00     0.045 C 
ENDBRANCH  14  15
ENDBRANCH  12  14
ENDBRANCH  11  12
ENDBRANCH  10  11
ENDBRANCH   6  10
ENDBRANCH   4   6
ENDBRANCH   3   4
BRANCH   3  19
HETATM   19  O5  UNL     1      24.373  28.449  18.705  1.00  0.00    -0.392 OA
ATOM     20  H5  UNL     1      24.586  28.465  17.779  1.00  0.00     0.210 HD
ENDBRANCH   3  19
ENDBRANCH   2   3
BRANCH   2  21
HETATM   21  O6  UNL     1      26.139  30.399  17.850  1.00  0.00    -0.390 OA
ATOM     22  H6  UNL     1      26.748  30.596  17.149  1.00  0.00     0.210 HD
ENDBRANCH   2  21
ENDBRANCH   1   2
BRANCH   1  23
HETATM   23  O7  UNL     1      26.865  26.968  17.995  1.00  0.00    -0.386 OA
ATOM     24  H7  UNL     1      25.920  26.875  18.018  1.00  0.00     0.210 HD
ENDBRANCH   1  23
BRANCH   1  25
HETATM   25  C14 UNL     1      28.489  28.548  17.104  1.00  0.00     0.074 C 
HETATM   26  C15 UNL     1      29.134  29.440  16.217  1.00  0.00     0.035 C 
BRANCH  25  27
HETATM   27  O8  UNL     1      29.441  27.812  17.727  1.00  0.00    -0.362 OA
ATOM     28  H8  UNL     1      29.955  27.279  17.130  1.00  0.00     0.217 HD
ENDBRANCH  25  27
BRANCH  26  29
HETATM   29  C16 UNL     1      28.615  30.295  15.374  1.00  0.00     0.003 C 
BRANCH  29  30
HETATM   30  C17 UNL     1      29.300  31.206  14.557  1.00  0.00     0.008 C 
BRANCH  30  31
HETATM   31  C18 UNL     1      30.296  32.108  14.798  1.00  0.00     0.055 C 
BRANCH  31  32
HETATM   32  C19 UNL     1      30.972  32.283  15.937  1.00  0.00    -0.128 C 
BRANCH  32  33
HETATM   33  C20 UNL     1      31.654  32.458  17.068  1.00  0.00     0.064 C 
HETATM   34  C21 UNL     1      32.193  31.217  17.578  1.00  0.00     0.064 C 
BRANCH  34  35
HETATM   35  C22 UNL     1      32.744  30.672  18.576  1.00  0.00    -0.128 C 
BRANCH  35  36
HETATM   36  C23 UNL     1      33.251  29.987  19.584  1.00  0.00     0.052 C 
HETATM   37  C24 UNL     1      33.215  29.353  20.696  1.00  0.00    -0.011 C 
BRANCH  37  38
HETATM   38  C25 UNL     1      34.502  28.762  21.222  1.00  0.00     0.044 A 
HETATM   39  C26 UNL     1      34.116  27.513  22.060  1.00  0.00     0.021 A 
HETATM   40  C27 UNL     1      34.390  26.197  21.479  1.00  0.00     0.013 C 
HETATM   41  C28 UNL     1      35.008  28.555  22.539  1.00  0.00     0.130 A 
BRANCH  41  42
HETATM   42  O9  UNL     1      36.371  28.149  22.651  1.00  0.00    -0.394 OA
ATOM     43  H9  UNL     1      36.561  27.444  23.258  1.00  0.00     0.210 HD
ENDBRANCH  41  42
ENDBRANCH  37  38
ENDBRANCH  35  36
ENDBRANCH  34  35
ENDBRANCH  32  33
ENDBRANCH  31  32
ENDBRANCH  30  31
ENDBRANCH  29  30
ENDBRANCH  26  29
ENDBRANCH   1  25
TORSDOF 25
ENDMDL
MODEL 3
REMARK VINA RESULT: -6.880112793      1.585      2.472
REMARK  25 active torsions:
REMARK  status: ('A' for Active; 'I' for Inactive)
REMARK    1  A    between atoms: C2_2  and  C3_3 
REMARK    2  A    between atoms: C2_2  and  C11_16 
REMARK    3  A    between atoms: C3_3  and  C4_4 
REMARK    4  A    between atoms: C3_3  and  O2_7 
REMARK    5  A    between atoms: C4_4  and  O1_5 
REMARK    6  A    between atoms: O2_7  and  C5_8 
REMARK    7  A    between atoms: C5_8  and  C6_9 
REMARK    8  A    between atoms: C6_9  and  O4_11 
REMARK    9  A    between atoms: O4_11  and  C7_12 
REMARK   10  A    between atoms: C11_16  and  O5_17 
REMARK   11  A    between atoms: C11_16  and  C12_19 
REMARK   12  A    between atoms: C12_19  and  O6_20 
REMARK   13  A    between atoms: C12_19  and  C13_22 
REMARK   14  A    between atoms: C13_22  and  O7_23 
REMARK   15  A    between atoms: C13_22  and  C14_25 
REMARK   16  A    between atoms: C14_25  and  O8_26 
REMARK   17  A    between atoms: C15_28  and  C16_29 
REMARK   18  A    between atoms: C16_29  and  C17_30 
REMARK   19  A    between atoms: C17_30  and  C18_31 
REMARK   20  A    between atoms: C18_31  and  C19_32 
REMARK   21  A    between atoms: C19_32  and  C20_33 
REMARK   22  A    between atoms: C21_34  and  C22_35 
REMARK   23  A    between atoms: C22_35  and  C23_36 
REMARK   24  A    between atoms: C24_37  and  C25_38 
REMARK   25  A    between atoms: C28_41  and  O9_42 
ROOT
HETATM    1  C13 UNL     1      27.867  29.683  17.150  1.00  0.00     0.205 C 
ENDROOT
BRANCH   1   2
HETATM    2  C12 UNL     1      27.559  29.433  18.608  1.00  0.00     0.182 C 
BRANCH   2   3
HETATM    3  C11 UNL     1      26.152  29.688  19.009  1.00  0.00     0.156 C 
BRANCH   3   4
HETATM    4  C2  UNL     1      25.693  29.295  20.366  1.00  0.00     0.044 C 
HETATM    5  C1  UNL     1      25.012  27.975  20.555  1.00  0.00     0.015 C 
BRANCH   4   6
HETATM    6  C3  UNL     1      24.845  30.345  21.041  1.00  0.00     0.151 C 
BRANCH   6   7
HETATM    7  C4  UNL     1      25.673  31.113  22.122  1.00  0.00     0.196 C 
BRANCH   7   8
HETATM    8  O1  UNL     1      26.747  31.775  21.592  1.00  0.00    -0.398 OA
ATOM      9  H1  UNL     1      27.485  31.814  22.189  1.00  0.00     0.209 HD
ENDBRANCH   7   8
ENDBRANCH   6   7
BRANCH   6  10
HETATM   10  O2  UNL     1      23.846  29.786  21.908  1.00  0.00    -0.374 OA
BRANCH  10  11
HETATM   11  C5  UNL     1      23.215  30.847  22.570  1.00  0.00     0.279 C 
BRANCH  11  12
HETATM   12  C6  UNL     1      22.115  30.344  23.450  1.00  0.00     0.283 C 
HETATM   13  O3  UNL     1      22.298  29.744  24.513  1.00  0.00    -0.263 OA
BRANCH  12  14
HETATM   14  O4  UNL     1      20.812  30.543  23.039  1.00  0.00    -0.310 OA
BRANCH  14  15
HETATM   15  C7  UNL     1      19.916  31.469  23.604  1.00  0.00     0.060 C 
HETATM   16  C8  UNL     1      18.727  30.630  24.048  1.00  0.00     0.045 C 
HETATM   17  C9  UNL     1      19.481  32.359  22.432  1.00  0.00     0.045 C 
HETATM   18  C10 UNL     1      20.478  32.338  24.659  1.00  0.00     0.045 C 
ENDBRANCH  14  15
ENDBRANCH  12  14
ENDBRANCH  11  12
ENDBRANCH  10  11
ENDBRANCH   6  10
ENDBRANCH   4   6
ENDBRANCH   3   4
BRANCH   3  19
HETATM   19  O5  UNL     1      25.762  30.990  18.802  1.00  0.00    -0.392 OA
ATOM     20  H5  UNL     1      24.865  30.972  18.487  1.00  0.00     0.210 HD
ENDBRANCH   3  19
ENDBRANCH   2   3
BRANCH   2  21
HETATM   21  O6  UNL     1      28.404  30.252  19.441  1.00  0.00    -0.390 OA
ATOM     22  H6  UNL     1      28.418  29.862  20.306  1.00  0.00     0.210 HD
ENDBRANCH   2  21
ENDBRANCH   1   2
BRANCH   1  23
HETATM   23  O7  UNL     1      26.750  29.356  16.426  1.00  0.00    -0.386 OA
ATOM     24  H7  UNL     1      27.032  28.855  15.669  1.00  0.00     0.210 HD
ENDBRANCH   1  23
BRANCH   1  25
HETATM   25  C14 UNL     1      29.150  29.146  16.777  1.00  0.00     0.074 C 
HETATM   26  C15 UNL     1      30.120  29.325  15.765  1.00  0.00     0.035 C 
BRANCH  25  27
HETATM   27  O8  UNL     1      29.603  28.196  17.631  1.00  0.00    -0.362 OA
ATOM     28  H8  UNL     1      30.193  27.574  17.221  1.00  0.00     0.217 HD
ENDBRANCH  25  27
BRANCH  26  29
HETATM   29  C16 UNL     1      30.086  30.094  14.706  1.00  0.00     0.003 C 
BRANCH  29  30
HETATM   30  C17 UNL     1      30.063  31.495  14.674  1.00  0.00     0.008 C 
BRANCH  30  31
HETATM   31  C18 UNL     1      30.695  32.455  15.412  1.00  0.00     0.055 C 
BRANCH  31  32
HETATM   32  C19 UNL     1      31.118  32.357  16.675  1.00  0.00    -0.128 C 
BRANCH  32  33
HETATM   33  C20 UNL     1      31.542  32.269  17.935  1.00  0.00     0.064 C 
HETATM   34  C21 UNL     1      32.500  31.201  18.116  1.00  0.00     0.064 C 
BRANCH  34  35
HETATM   35  C22 UNL     1      33.124  30.518  18.976  1.00  0.00    -0.128 C 
BRANCH  35  36
HETATM   36  C23 UNL     1      33.830  29.733  19.770  1.00  0.00     0.052 C 
HETATM   37  C24 UNL     1      34.333  29.355  20.884  1.00  0.00    -0.011 C 
BRANCH  37  38
HETATM   38  C25 UNL     1      35.163  28.093  20.900  1.00  0.00     0.044 A 
HETATM   39  C26 UNL     1      34.585  27.187  22.020  1.00  0.00     0.021 A 
HETATM   40  C27 UNL     1      33.806  26.016  21.609  1.00  0.00     0.013 C 
HETATM   41  C28 UNL     1      35.998  27.493  21.888  1.00  0.00     0.130 A 
BRANCH  41  42
HETATM   42  O9  UNL     1      36.798  26.387  21.472  1.00  0.00    -0.394 OA
ATOM     43  H9  UNL     1      37.629  26.266  21.916  1.00  0.00     0.210 HD
ENDBRANCH  41  42
ENDBRANCH  37  38
ENDBRANCH  35  36
ENDBRANCH  34  35
ENDBRANCH  32  33
ENDBRANCH  31  32
ENDBRANCH  30  31
ENDBRANCH  29  30
ENDBRANCH  26  29
ENDBRANCH   1  25
TORSDOF 25
ENDMDL
MODEL 4
REMARK VINA RESULT: -6.875551143      6.286     11.798
REMARK  25 active torsions:
REMARK  status: ('A' for Active; 'I' for Inactive)
REMARK    1  A    between atoms: C2_2  and  C3_3 
REMARK    2  A    between atoms: C2_2  and  C11_16 
REMARK    3  A    between atoms: C3_3  and  C4_4 
REMARK    4  A    between atoms: C3_3  and  O2_7 
REMARK    5  A    between atoms: C4_4  and  O1_5 
REMARK    6  A    between atoms: O2_7  and  C5_8 
REMARK    7  A    between atoms: C5_8  and  C6_9 
REMARK    8  A    between atoms: C6_9  and  O4_11 
REMARK    9  A    between atoms: O4_11  and  C7_12 
REMARK   10  A    between atoms: C11_16  and  O5_17 
REMARK   11  A    between atoms: C11_16  and  C12_19 
REMARK   12  A    between atoms: C12_19  and  O6_20 
REMARK   13  A    between atoms: C12_19  and  C13_22 
REMARK   14  A    between atoms: C13_22  and  O7_23 
REMARK   15  A    between atoms: C13_22  and  C14_25 
REMARK   16  A    between atoms: C14_25  and  O8_26 
REMARK   17  A    between atoms: C15_28  and  C16_29 
REMARK   18  A    between atoms: C16_29  and  C17_30 
REMARK   19  A    between atoms: C17_30  and  C18_31 
REMARK   20  A    between atoms: C18_31  and  C19_32 
REMARK   21  A    between atoms: C19_32  and  C20_33 
REMARK   22  A    between atoms: C21_34  and  C22_35 
REMARK   23  A    between atoms: C22_35  and  C23_36 
REMARK   24  A    between atoms: C24_37  and  C25_38 
REMARK   25  A    between atoms: C28_41  and  O9_42 
ROOT
HETATM    1  C13 UNL     1      36.418  29.067  20.600  1.00  0.00     0.205 C 
ENDROOT
BRANCH   1   2
HETATM    2  C12 UNL     1      35.699  29.651  19.406  1.00  0.00     0.182 C 
BRANCH   2   3
HETATM    3  C11 UNL     1      36.525  29.796  18.181  1.00  0.00     0.156 C 
BRANCH   3   4
HETATM    4  C2  UNL     1      35.890  29.653  16.845  1.00  0.00     0.044 C 
HETATM    5  C1  UNL     1      36.662  29.014  15.733  1.00  0.00     0.015 C 
BRANCH   4   6
HETATM    6  C3  UNL     1      35.307  30.940  16.315  1.00  0.00     0.151 C 
BRANCH   6   7
HETATM    7  C4  UNL     1      34.518  30.683  14.990  1.00  0.00     0.196 C 
BRANCH   7   8
HETATM    8  O1  UNL     1      33.450  29.845  15.165  1.00  0.00    -0.398 OA
ATOM      9  H1  UNL     1      33.661  28.938  14.974  1.00  0.00     0.209 HD
ENDBRANCH   7   8
ENDBRANCH   6   7
BRANCH   6  10
HETATM   10  O2  UNL     1      36.303  31.830  15.791  1.00  0.00    -0.374 OA
BRANCH  10  11
HETATM   11  C5  UNL     1      35.752  32.477  14.677  1.00  0.00     0.279 C 
BRANCH  11  12
HETATM   12  C6  UNL     1      36.786  33.297  13.974  1.00  0.00     0.283 C 
HETATM   13  O3  UNL     1      37.736  32.823  13.343  1.00  0.00    -0.263 OA
BRANCH  12  14
HETATM   14  O4  UNL     1      36.688  34.672  14.051  1.00  0.00    -0.310 OA
BRANCH  14  15
HETATM   15  C7  UNL     1      37.691  35.531  14.535  1.00  0.00     0.060 C 
HETATM   16  C8  UNL     1      38.256  34.815  15.752  1.00  0.00     0.045 C 
HETATM   17  C9  UNL     1      36.941  36.785  15.005  1.00  0.00     0.045 C 
HETATM   18  C10 UNL     1      38.707  35.946  13.545  1.00  0.00     0.045 C 
ENDBRANCH  14  15
ENDBRANCH  12  14
ENDBRANCH  11  12
ENDBRANCH  10  11
ENDBRANCH   6  10
ENDBRANCH   4   6
ENDBRANCH   3   4
BRANCH   3  19
HETATM   19  O5  UNL     1      37.263  30.957  18.164  1.00  0.00    -0.392 OA
ATOM     20  H5  UNL     1      37.882  30.912  18.884  1.00  0.00     0.210 HD
ENDBRANCH   3  19
ENDBRANCH   2   3
BRANCH   2  21
HETATM   21  O6  UNL     1      35.172  30.953  19.732  1.00  0.00    -0.390 OA
ATOM     22  H6  UNL     1      34.964  30.955  20.659  1.00  0.00     0.210 HD
ENDBRANCH   2  21
ENDBRANCH   1   2
BRANCH   1  23
HETATM   23  O7  UNL     1      37.759  29.055  20.315  1.00  0.00    -0.386 OA
ATOM     24  H7  UNL     1      38.137  28.292  20.735  1.00  0.00     0.210 HD
ENDBRANCH   1  23
BRANCH   1  25
HETATM   25  C14 UNL     1      35.772  27.872  21.078  1.00  0.00     0.074 C 
HETATM   26  C15 UNL     1      34.489  27.459  21.504  1.00  0.00     0.035 C 
BRANCH  25  27
HETATM   27  O8  UNL     1      36.602  26.803  21.141  1.00  0.00    -0.362 OA
ATOM     28  H8  UNL     1      36.645  26.411  22.006  1.00  0.00     0.217 HD
ENDBRANCH  25  27
BRANCH  26  29
HETATM   29  C16 UNL     1      33.397  28.163  21.658  1.00  0.00     0.003 C 
BRANCH  29  30
HETATM   30  C17 UNL     1      32.550  28.649  20.652  1.00  0.00     0.008 C 
BRANCH  30  31
HETATM   31  C18 UNL     1      31.961  29.862  20.435  1.00  0.00     0.055 C 
BRANCH  31  32
HETATM   32  C19 UNL     1      31.324  30.266  19.332  1.00  0.00    -0.128 C 
BRANCH  32  33
HETATM   33  C20 UNL     1      30.680  30.667  18.237  1.00  0.00     0.064 C 
HETATM   34  C21 UNL     1      31.469  31.583  17.443  1.00  0.00     0.064 C 
BRANCH  34  35
HETATM   35  C22 UNL     1      31.434  32.393  16.474  1.00  0.00    -0.128 C 
BRANCH  35  36
HETATM   36  C23 UNL     1      31.479  33.322  15.537  1.00  0.00     0.052 C 
HETATM   37  C24 UNL     1      30.987  34.116  14.662  1.00  0.00    -0.011 C 
BRANCH  37  38
HETATM   38  C25 UNL     1      31.934  35.018  13.907  1.00  0.00     0.044 A 
HETATM   39  C26 UNL     1      31.264  36.417  13.836  1.00  0.00     0.021 A 
HETATM   40  C27 UNL     1      31.811  37.474  14.691  1.00  0.00     0.013 C 
HETATM   41  C28 UNL     1      31.820  35.736  12.680  1.00  0.00     0.130 A 
BRANCH  41  42
HETATM   42  O9  UNL     1      33.010  36.333  12.167  1.00  0.00    -0.394 OA
ATOM     43  H9  UNL     1      33.455  35.872  11.466  1.00  0.00     0.210 HD
ENDBRANCH  41  42
ENDBRANCH  37  38
ENDBRANCH  35  36
ENDBRANCH  34  35
ENDBRANCH  32  33
ENDBRANCH  31  32
ENDBRANCH  30  31
ENDBRANCH  29  30
ENDBRANCH  26  29
ENDBRANCH   1  25
TORSDOF 25
ENDMDL
MODEL 5
REMARK VINA RESULT: -6.623341035      1.219      1.892
REMARK  25 active torsions:
REMARK  status: ('A' for Active; 'I' for Inactive)
REMARK    1  A    between atoms: C2_2  and  C3_3 
REMARK    2  A    between atoms: C2_2  and  C11_16 
REMARK    3  A    between atoms: C3_3  and  C4_4 
REMARK    4  A    between atoms: C3_3  and  O2_7 
REMARK    5  A    between atoms: C4_4  and  O1_5 
REMARK    6  A    between atoms: O2_7  and  C5_8 
REMARK    7  A    between atoms: C5_8  and  C6_9 
REMARK    8  A    between atoms: C6_9  and  O4_11 
REMARK    9  A    between atoms: O4_11  and  C7_12 
REMARK   10  A    between atoms: C11_16  and  O5_17 
REMARK   11  A    between atoms: C11_16  and  C12_19 
REMARK   12  A    between atoms: C12_19  and  O6_20 
REMARK   13  A    between atoms: C12_19  and  C13_22 
REMARK   14  A    between atoms: C13_22  and  O7_23 
REMARK   15  A    between atoms: C13_22  and  C14_25 
REMARK   16  A    between atoms: C14_25  and  O8_26 
REMARK   17  A    between atoms: C15_28  and  C16_29 
REMARK   18  A    between atoms: C16_29  and  C17_30 
REMARK   19  A    between atoms: C17_30  and  C18_31 
REMARK   20  A    between atoms: C18_31  and  C19_32 
REMARK   21  A    between atoms: C19_32  and  C20_33 
REMARK   22  A    between atoms: C21_34  and  C22_35 
REMARK   23  A    between atoms: C22_35  and  C23_36 
REMARK   24  A    between atoms: C24_37  and  C25_38 
REMARK   25  A    between atoms: C28_41  and  O9_42 
ROOT
HETATM    1  C13 UNL     1      28.326  30.000  16.162  1.00  0.00     0.205 C 
ENDROOT
BRANCH   1   2
HETATM    2  C12 UNL     1      27.216  28.996  16.369  1.00  0.00     0.182 C 
BRANCH   2   3
HETATM    3  C11 UNL     1      26.887  28.701  17.787  1.00  0.00     0.156 C 
BRANCH   3   4
HETATM    4  C2  UNL     1      25.577  29.130  18.342  1.00  0.00     0.044 C 
HETATM    5  C1  UNL     1      24.741  30.104  17.573  1.00  0.00     0.015 C 
BRANCH   4   6
HETATM    6  C3  UNL     1      25.660  29.625  19.766  1.00  0.00     0.151 C 
BRANCH   6   7
HETATM    7  C4  UNL     1      27.055  30.274  20.044  1.00  0.00     0.196 C 
BRANCH   7   8
HETATM    8  O1  UNL     1      27.027  31.640  19.967  1.00  0.00    -0.398 OA
ATOM      9  H1  UNL     1      27.829  32.041  20.279  1.00  0.00     0.209 HD
ENDBRANCH   7   8
ENDBRANCH   6   7
BRANCH   6  10
HETATM   10  O2  UNL     1      25.734  28.560  20.725  1.00  0.00    -0.374 OA
BRANCH  10  11
HETATM   11  C5  UNL     1      24.931  28.914  21.817  1.00  0.00     0.279 C 
BRANCH  11  12
HETATM   12  C6  UNL     1      23.862  27.893  22.042  1.00  0.00     0.283 C 
HETATM   13  O3  UNL     1      24.044  26.812  22.610  1.00  0.00    -0.263 OA
BRANCH  12  14
HETATM   14  O4  UNL     1      22.594  28.165  21.568  1.00  0.00    -0.310 OA
BRANCH  14  15
HETATM   15  C7  UNL     1      21.566  28.779  22.306  1.00  0.00     0.060 C 
HETATM   16  C8  UNL     1      20.708  27.625  22.802  1.00  0.00     0.045 C 
HETATM   17  C9  UNL     1      20.763  29.580  21.272  1.00  0.00     0.045 C 
HETATM   18  C10 UNL     1      22.010  29.709  23.366  1.00  0.00     0.045 C 
ENDBRANCH  14  15
ENDBRANCH  12  14
ENDBRANCH  11  12
ENDBRANCH  10  11
ENDBRANCH   6  10
ENDBRANCH   4   6
ENDBRANCH   3   4
BRANCH   3  19
HETATM   19  O5  UNL     1      27.060  27.376  18.115  1.00  0.00    -0.392 OA
ATOM     20  H5  UNL     1      26.213  26.952  18.040  1.00  0.00     0.210 HD
ENDBRANCH   3  19
ENDBRANCH   2   3
BRANCH   2  21
HETATM   21  O6  UNL     1      27.551  27.746  15.732  1.00  0.00    -0.390 OA
ATOM     22  H6  UNL     1      27.075  27.707  14.911  1.00  0.00     0.210 HD
ENDBRANCH   2  21
ENDBRANCH   1   2
BRANCH   1  23
HETATM   23  O7  UNL     1      27.893  30.915  15.239  1.00  0.00    -0.386 OA
ATOM     24  H7  UNL     1      28.194  31.772  15.518  1.00  0.00     0.210 HD
ENDBRANCH   1  23
BRANCH   1  25
HETATM   25  C14 UNL     1      29.603  29.355  15.995  1.00  0.00     0.074 C 
HETATM   26  C15 UNL     1      30.713  29.413  15.122  1.00  0.00     0.035 C 
BRANCH  25  27
HETATM   27  O8  UNL     1      29.858  28.418  16.940  1.00  0.00    -0.362 OA
ATOM     28  H8  UNL     1      29.401  27.599  16.790  1.00  0.00     0.217 HD
ENDBRANCH  25  27
BRANCH  26  29
HETATM   29  C16 UNL     1      30.884  30.129  14.040  1.00  0.00     0.003 C 
BRANCH  29  30
HETATM   30  C17 UNL     1      31.138  31.505  13.962  1.00  0.00     0.008 C 
BRANCH  30  31
HETATM   31  C18 UNL     1      31.086  32.516  14.879  1.00  0.00     0.055 C 
BRANCH  31  32
HETATM   32  C19 UNL     1      31.306  32.428  16.194  1.00  0.00    -0.128 C 
BRANCH  32  33
HETATM   33  C20 UNL     1      31.528  32.331  17.504  1.00  0.00     0.064 C 
HETATM   34  C21 UNL     1      32.515  31.321  17.818  1.00  0.00     0.064 C 
BRANCH  34  35
HETATM   35  C22 UNL     1      33.038  30.655  18.755  1.00  0.00    -0.128 C 
BRANCH  35  36
HETATM   36  C23 UNL     1      33.460  29.900  19.752  1.00  0.00     0.052 C 
HETATM   37  C24 UNL     1      33.345  29.246  20.847  1.00  0.00    -0.011 C 
BRANCH  37  38
HETATM   38  C25 UNL     1      34.560  28.521  21.376  1.00  0.00     0.044 A 
HETATM   39  C26 UNL     1      34.041  27.306  22.191  1.00  0.00     0.021 A 
HETATM   40  C27 UNL     1      34.186  25.977  21.593  1.00  0.00     0.013 C 
HETATM   41  C28 UNL     1      35.029  28.245  22.694  1.00  0.00     0.130 A 
BRANCH  41  42
HETATM   42  O9  UNL     1      36.343  27.701  22.812  1.00  0.00    -0.394 OA
ATOM     43  H9  UNL     1      36.419  26.845  23.217  1.00  0.00     0.210 HD
ENDBRANCH  41  42
ENDBRANCH  37  38
ENDBRANCH  35  36
ENDBRANCH  34  35
ENDBRANCH  32  33
ENDBRANCH  31  32
ENDBRANCH  30  31
ENDBRANCH  29  30
ENDBRANCH  26  29
ENDBRANCH   1  25
TORSDOF 25
ENDMDL
