MODEL 1
REMARK VINA RESULT: -5.887255826      0.000      0.000
REMARK  6 active torsions:
REMARK  status: ('A' for Active; 'I' for Inactive)
REMARK    1  A    between atoms: N1_2  and  C2_4 
REMARK    2  A    between atoms: C2_4  and  C3_5 
REMARK    3  A    between atoms: C3_5  and  N2_6 
REMARK    4  A    between atoms: N2_6  and  C4_8 
REMARK    5  A    between atoms: C9_13  and  N3_14 
REMARK    6  A    between atoms: N3_14  and  C10_16 
ROOT
HETATM    1  C4  UNL     1       5.863   3.815  -4.249  1.00  0.00     0.055 A 
HETATM    2  C5  UNL     1       5.833   5.095  -4.814  1.00  0.00     0.031 A 
HETATM    3  C6  UNL     1       6.340   5.376  -6.033  1.00  0.00     0.002 A 
HETATM    4  C7  UNL     1       6.921   4.381  -6.779  1.00  0.00     0.002 A 
HETATM    5  C8  UNL     1       6.977   3.086  -6.261  1.00  0.00     0.032 A 
HETATM    6  C9  UNL     1       6.460   2.812  -5.027  1.00  0.00     0.060 A 
ENDROOT
BRANCH   1   7
HETATM    7  N2  UNL     1       5.309   3.621  -2.963  1.00  0.00    -0.387 N 
ATOM      8  H2  UNL     1       5.895   3.661  -2.130  1.00  0.00     0.159 HD
BRANCH   7   9
HETATM    9  C3  UNL     1       3.880   3.363  -2.859  1.00  0.00     0.139 C 
BRANCH   9  10
HETATM   10  C2  UNL     1       3.354   3.878  -1.537  1.00  0.00     0.133 C 
BRANCH  10  11
HETATM   11  N1  UNL     1       2.584   2.890  -0.861  1.00  0.00    -0.424 N 
HETATM   12  C1  UNL     1       1.691   2.137  -1.680  1.00  0.00     0.139 C 
ATOM     13  H1  UNL     1       2.666   2.730   0.143  1.00  0.00     0.152 HD
ENDBRANCH  10  11
ENDBRANCH   9  10
ENDBRANCH   7   9
ENDBRANCH   1   7
BRANCH   6  14
HETATM   14  N3  UNL     1       6.503   1.515  -4.481  1.00  0.00    -0.332 N 
ATOM     15  H3  UNL     1       6.750   1.456  -3.493  1.00  0.00     0.168 HD
BRANCH  14  16
HETATM   16  C10 UNL     1       6.250   0.303  -5.115  1.00  0.00     0.353 C 
HETATM   17  O1  UNL     1       6.880  -0.744  -4.957  1.00  0.00    -0.283 OA
ENDBRANCH  14  16
ENDBRANCH   6  14
TORSDOF 6
ENDMDL
MODEL 2
REMARK VINA RESULT: -5.862849345      2.518      3.431
REMARK  6 active torsions:
REMARK  status: ('A' for Active; 'I' for Inactive)
REMARK    1  A    between atoms: N1_2  and  C2_4 
REMARK    2  A    between atoms: C2_4  and  C3_5 
REMARK    3  A    between atoms: C3_5  and  N2_6 
REMARK    4  A    between atoms: N2_6  and  C4_8 
REMARK    5  A    between atoms: C9_13  and  N3_14 
REMARK    6  A    between atoms: N3_14  and  C10_16 
ROOT
HETATM    1  C4  UNL     1       6.032   3.642  -4.267  1.00  0.00     0.055 A 
HETATM    2  C5  UNL     1       6.296   2.694  -5.261  1.00  0.00     0.031 A 
HETATM    3  C6  UNL     1       6.886   2.999  -6.435  1.00  0.00     0.002 A 
HETATM    4  C7  UNL     1       7.257   4.294  -6.699  1.00  0.00     0.002 A 
HETATM    5  C8  UNL     1       7.016   5.280  -5.740  1.00  0.00     0.032 A 
HETATM    6  C9  UNL     1       6.419   4.960  -4.555  1.00  0.00     0.060 A 
ENDROOT
BRANCH   1   7
HETATM    7  N2  UNL     1       5.406   3.225  -3.070  1.00  0.00    -0.387 N 
ATOM      8  H2  UNL     1       5.960   2.947  -2.260  1.00  0.00     0.159 HD
BRANCH   7   9
HETATM    9  C3  UNL     1       3.951   3.202  -3.023  1.00  0.00     0.139 C 
BRANCH   9  10
HETATM   10  C2  UNL     1       3.462   3.852  -1.748  1.00  0.00     0.133 C 
BRANCH  10  11
HETATM   11  N1  UNL     1       2.686   2.950  -0.967  1.00  0.00    -0.424 N 
HETATM   12  C1  UNL     1       1.742   2.163  -1.691  1.00  0.00     0.139 C 
ATOM     13  H1  UNL     1       2.798   2.871   0.044  1.00  0.00     0.152 HD
ENDBRANCH  10  11
ENDBRANCH   9  10
ENDBRANCH   7   9
ENDBRANCH   1   7
BRANCH   6  14
HETATM   14  N3  UNL     1       6.165   5.934  -3.570  1.00  0.00    -0.332 N 
ATOM     15  H3  UNL     1       6.864   6.012  -2.831  1.00  0.00     0.168 HD
BRANCH  14  16
HETATM   16  C10 UNL     1       5.085   6.805  -3.476  1.00  0.00     0.353 C 
HETATM   17  O1  UNL     1       4.587   7.233  -2.433  1.00  0.00    -0.283 OA
ENDBRANCH  14  16
ENDBRANCH   6  14
TORSDOF 6
ENDMDL
MODEL 3
REMARK VINA RESULT: -5.833980174      2.496      4.705
REMARK  6 active torsions:
REMARK  status: ('A' for Active; 'I' for Inactive)
REMARK    1  A    between atoms: N1_2  and  C2_4 
REMARK    2  A    between atoms: C2_4  and  C3_5 
REMARK    3  A    between atoms: C3_5  and  N2_6 
REMARK    4  A    between atoms: N2_6  and  C4_8 
REMARK    5  A    between atoms: C9_13  and  N3_14 
REMARK    6  A    between atoms: N3_14  and  C10_16 
ROOT
HETATM    1  C4  UNL     1       5.353   5.808  -3.269  1.00  0.00     0.055 A 
HETATM    2  C5  UNL     1       5.527   7.074  -3.838  1.00  0.00     0.031 A 
HETATM    3  C6  UNL     1       4.784   8.147  -3.496  1.00  0.00     0.002 A 
HETATM    4  C7  UNL     1       3.800   8.023  -2.547  1.00  0.00     0.002 A 
HETATM    5  C8  UNL     1       3.585   6.782  -1.947  1.00  0.00     0.032 A 
HETATM    6  C9  UNL     1       4.343   5.702  -2.300  1.00  0.00     0.060 A 
ENDROOT
BRANCH   1   7
HETATM    7  N2  UNL     1       6.180   4.745  -3.696  1.00  0.00    -0.387 N 
ATOM      8  H2  UNL     1       6.488   4.026  -3.041  1.00  0.00     0.159 HD
BRANCH   7   9
HETATM    9  C3  UNL     1       6.582   4.701  -5.095  1.00  0.00     0.139 C 
BRANCH   9  10
HETATM   10  C2  UNL     1       6.716   3.265  -5.552  1.00  0.00     0.133 C 
BRANCH  10  11
HETATM   11  N1  UNL     1       6.277   2.355  -4.550  1.00  0.00    -0.424 N 
HETATM   12  C1  UNL     1       6.229   0.984  -4.942  1.00  0.00     0.139 C 
ATOM     13  H1  UNL     1       6.015   2.662  -3.614  1.00  0.00     0.152 HD
ENDBRANCH  10  11
ENDBRANCH   9  10
ENDBRANCH   7   9
ENDBRANCH   1   7
BRANCH   6  14
HETATM   14  N3  UNL     1       4.148   4.439  -1.710  1.00  0.00    -0.332 N 
ATOM     15  H3  UNL     1       4.591   4.299  -0.801  1.00  0.00     0.168 HD
BRANCH  14  16
HETATM   16  C10 UNL     1       3.429   3.357  -2.206  1.00  0.00     0.353 C 
HETATM   17  O1  UNL     1       3.592   2.819  -3.303  1.00  0.00    -0.283 OA
ENDBRANCH  14  16
ENDBRANCH   6  14
TORSDOF 6
ENDMDL
MODEL 4
REMARK VINA RESULT: -5.806406138      3.484      5.735
REMARK  6 active torsions:
REMARK  status: ('A' for Active; 'I' for Inactive)
REMARK    1  A    between atoms: N1_2  and  C2_4 
REMARK    2  A    between atoms: C2_4  and  C3_5 
REMARK    3  A    between atoms: C3_5  and  N2_6 
REMARK    4  A    between atoms: N2_6  and  C4_8 
REMARK    5  A    between atoms: C9_13  and  N3_14 
REMARK    6  A    between atoms: N3_14  and  C10_16 
ROOT
HETATM    1  C4  UNL     1       1.272   5.074  -3.592  1.00  0.00     0.055 A 
HETATM    2  C5  UNL     1       0.880   5.626  -4.816  1.00  0.00     0.031 A 
HETATM    3  C6  UNL     1      -0.149   5.149  -5.547  1.00  0.00     0.002 A 
HETATM    4  C7  UNL     1      -0.866   4.070  -5.095  1.00  0.00     0.002 A 
HETATM    5  C8  UNL     1      -0.517   3.481  -3.879  1.00  0.00     0.032 A 
HETATM    6  C9  UNL     1       0.526   3.972  -3.147  1.00  0.00     0.060 A 
ENDROOT
BRANCH   1   7
HETATM    7  N2  UNL     1       2.366   5.644  -2.902  1.00  0.00    -0.387 N 
ATOM      8  H2  UNL     1       2.227   6.144  -2.024  1.00  0.00     0.159 HD
BRANCH   7   9
HETATM    9  C3  UNL     1       3.696   5.498  -3.476  1.00  0.00     0.139 C 
BRANCH   9  10
HETATM   10  C2  UNL     1       4.523   4.550  -2.637  1.00  0.00     0.133 C 
BRANCH  10  11
HETATM   11  N1  UNL     1       5.856   4.449  -3.125  1.00  0.00    -0.424 N 
HETATM   12  C1  UNL     1       6.176   5.298  -4.225  1.00  0.00     0.139 C 
ATOM     13  H1  UNL     1       6.538   3.811  -2.715  1.00  0.00     0.152 HD
ENDBRANCH  10  11
ENDBRANCH   9  10
ENDBRANCH   7   9
ENDBRANCH   1   7
BRANCH   6  14
HETATM   14  N3  UNL     1       0.899   3.398  -1.917  1.00  0.00    -0.332 N 
ATOM     15  H3  UNL     1       0.588   3.895  -1.081  1.00  0.00     0.168 HD
BRANCH  14  16
HETATM   16  C10 UNL     1       1.635   2.240  -1.693  1.00  0.00     0.353 C 
HETATM   17  O1  UNL     1       1.249   1.241  -1.084  1.00  0.00    -0.283 OA
ENDBRANCH  14  16
ENDBRANCH   6  14
TORSDOF 6
ENDMDL
MODEL 5
REMARK VINA RESULT: -5.782811174      4.601      6.049
REMARK  6 active torsions:
REMARK  status: ('A' for Active; 'I' for Inactive)
REMARK    1  A    between atoms: N1_2  and  C2_4 
REMARK    2  A    between atoms: C2_4  and  C3_5 
REMARK    3  A    between atoms: C3_5  and  N2_6 
REMARK    4  A    between atoms: N2_6  and  C4_8 
REMARK    5  A    between atoms: C9_13  and  N3_14 
REMARK    6  A    between atoms: N3_14  and  C10_16 
ROOT
HETATM    1  C4  UNL     1       1.250   4.960  -3.718  1.00  0.00     0.055 A 
HETATM    2  C5  UNL     1       0.797   5.501  -4.926  1.00  0.00     0.031 A 
HETATM    3  C6  UNL     1      -0.331   5.089  -5.542  1.00  0.00     0.002 A 
HETATM    4  C7  UNL     1      -1.091   4.092  -4.984  1.00  0.00     0.002 A 
HETATM    5  C8  UNL     1      -0.683   3.518  -3.779  1.00  0.00     0.032 A 
HETATM    6  C9  UNL     1       0.459   3.943  -3.163  1.00  0.00     0.060 A 
ENDROOT
BRANCH   1   7
HETATM    7  N2  UNL     1       2.446   5.457  -3.151  1.00  0.00    -0.387 N 
ATOM      8  H2  UNL     1       3.242   4.840  -2.988  1.00  0.00     0.159 HD
BRANCH   7   9
HETATM    9  C3  UNL     1       2.512   6.870  -2.806  1.00  0.00     0.139 C 
BRANCH   9  10
HETATM   10  C2  UNL     1       3.757   7.148  -1.993  1.00  0.00     0.133 C 
BRANCH  10  11
HETATM   11  N1  UNL     1       4.240   8.469  -2.214  1.00  0.00    -0.424 N 
HETATM   12  C1  UNL     1       5.012   8.653  -3.399  1.00  0.00     0.139 C 
ATOM     13  H1  UNL     1       4.047   9.234  -1.568  1.00  0.00     0.152 HD
ENDBRANCH  10  11
ENDBRANCH   9  10
ENDBRANCH   7   9
ENDBRANCH   1   7
BRANCH   6  14
HETATM   14  N3  UNL     1       0.893   3.382  -1.946  1.00  0.00    -0.332 N 
ATOM     15  H3  UNL     1       0.306   3.572  -1.134  1.00  0.00     0.168 HD
BRANCH  14  16
HETATM   16  C10 UNL     1       2.020   2.602  -1.710  1.00  0.00     0.353 C 
HETATM   17  O1  UNL     1       3.143   3.018  -1.420  1.00  0.00    -0.283 OA
ENDBRANCH  14  16
ENDBRANCH   6  14
TORSDOF 6
ENDMDL
