MODEL 1
REMARK VINA RESULT: -6.233684731      0.000      0.000
REMARK  6 active torsions:
REMARK  status: ('A' for Active; 'I' for Inactive)
REMARK    1  A    between atoms: C2_2  and  C3_3 
REMARK    2  A    between atoms: C3_3  and  O1_4 
REMARK    3  A    between atoms: O1_4  and  N1_5 
REMARK    4  A    between atoms: N1_5  and  C4_6 
REMARK    5  A    between atoms: C4_6  and  C5_7 
REMARK    6  A    between atoms: C5_7  and  C6_8 
ROOT
HETATM    1  C6  UNL     1       4.221   3.647  -2.596  1.00  0.00     0.056 A 
HETATM    2  N2  UNL     1       4.481   2.576  -3.364  1.00  0.00    -0.309 N 
ATOM      3  H2  UNL     1       3.993   1.682  -3.324  1.00  0.00     0.170 HD
HETATM    4  C7  UNL     1       5.506   2.885  -4.202  1.00  0.00     0.326 A 
HETATM    5  O2  UNL     1       6.024   2.136  -5.062  1.00  0.00    -0.247 OA
HETATM    6  N3  UNL     1       5.908   4.150  -3.981  1.00  0.00    -0.295 N 
ATOM      7  H3  UNL     1       6.655   4.652  -4.460  1.00  0.00     0.172 HD
HETATM    8  C8  UNL     1       5.115   4.617  -2.991  1.00  0.00     0.143 A 
HETATM    9  N4  UNL     1       5.178   5.925  -2.421  1.00  0.00    -0.080 NA
ENDROOT
BRANCH   1  10
HETATM   10  C5  UNL     1       3.192   3.790  -1.535  1.00  0.00     0.079 C 
BRANCH  10  11
HETATM   11  C4  UNL     1       2.199   2.687  -1.738  1.00  0.00     0.149 C 
BRANCH  11  12
HETATM   12  N1  UNL     1       0.852   3.148  -1.944  1.00  0.00    -0.101 NA
BRANCH  12  13
HETATM   13  O1  UNL     1       0.787   3.793  -3.133  1.00  0.00    -0.283 OA
BRANCH  13  14
HETATM   14  C3  UNL     1      -0.521   4.292  -3.229  1.00  0.00     0.222 C 
BRANCH  14  15
HETATM   15  C2  UNL     1      -1.190   3.846  -4.466  1.00  0.00    -0.009 C 
HETATM   16  C1  UNL     1      -0.541   3.590  -5.590  1.00  0.00     0.009 C 
ENDBRANCH  14  15
ENDBRANCH  13  14
ENDBRANCH  12  13
ENDBRANCH  11  12
ENDBRANCH  10  11
ENDBRANCH   1  10
TORSDOF 6
ENDMDL
MODEL 2
REMARK VINA RESULT: -6.143325938      2.204      3.154
REMARK  6 active torsions:
REMARK  status: ('A' for Active; 'I' for Inactive)
REMARK    1  A    between atoms: C2_2  and  C3_3 
REMARK    2  A    between atoms: C3_3  and  O1_4 
REMARK    3  A    between atoms: O1_4  and  N1_5 
REMARK    4  A    between atoms: N1_5  and  C4_6 
REMARK    5  A    between atoms: C4_6  and  C5_7 
REMARK    6  A    between atoms: C5_7  and  C6_8 
ROOT
HETATM    1  C6  UNL     1       3.385   4.318  -2.005  1.00  0.00     0.056 A 
HETATM    2  N2  UNL     1       2.340   3.826  -1.319  1.00  0.00    -0.309 N 
ATOM      3  H2  UNL     1       1.790   4.334  -0.627  1.00  0.00     0.170 HD
HETATM    4  C7  UNL     1       2.139   2.538  -1.705  1.00  0.00     0.326 A 
HETATM    5  O2  UNL     1       1.255   1.758  -1.283  1.00  0.00    -0.247 OA
HETATM    6  N3  UNL     1       3.048   2.195  -2.636  1.00  0.00    -0.295 N 
ATOM      7  H3  UNL     1       3.139   1.295  -3.106  1.00  0.00     0.172 HD
HETATM    8  C8  UNL     1       3.814   3.293  -2.819  1.00  0.00     0.143 A 
HETATM    9  N4  UNL     1       4.917   3.398  -3.721  1.00  0.00    -0.080 NA
ENDROOT
BRANCH   1  10
HETATM   10  C5  UNL     1       3.981   5.676  -1.926  1.00  0.00     0.079 C 
BRANCH  10  11
HETATM   11  C4  UNL     1       2.914   6.644  -2.337  1.00  0.00     0.149 C 
BRANCH  11  12
HETATM   12  N1  UNL     1       2.292   6.326  -3.595  1.00  0.00    -0.101 NA
BRANCH  12  13
HETATM   13  O1  UNL     1       0.985   6.046  -3.378  1.00  0.00    -0.283 OA
BRANCH  13  14
HETATM   14  C3  UNL     1       0.641   5.061  -4.317  1.00  0.00     0.222 C 
BRANCH  14  15
HETATM   15  C2  UNL     1      -0.453   4.199  -3.833  1.00  0.00    -0.009 C 
HETATM   16  C1  UNL     1      -1.499   3.870  -4.574  1.00  0.00     0.009 C 
ENDBRANCH  14  15
ENDBRANCH  13  14
ENDBRANCH  12  13
ENDBRANCH  11  12
ENDBRANCH  10  11
ENDBRANCH   1  10
TORSDOF 6
ENDMDL
MODEL 3
REMARK VINA RESULT: -6.107706461      0.918      1.053
REMARK  6 active torsions:
REMARK  status: ('A' for Active; 'I' for Inactive)
REMARK    1  A    between atoms: C2_2  and  C3_3 
REMARK    2  A    between atoms: C3_3  and  O1_4 
REMARK    3  A    between atoms: O1_4  and  N1_5 
REMARK    4  A    between atoms: N1_5  and  C4_6 
REMARK    5  A    between atoms: C4_6  and  C5_7 
REMARK    6  A    between atoms: C5_7  and  C6_8 
ROOT
HETATM    1  C6  UNL     1       3.979   3.617  -2.478  1.00  0.00     0.056 A 
HETATM    2  N2  UNL     1       4.343   2.625  -3.308  1.00  0.00    -0.309 N 
ATOM      3  H2  UNL     1       3.896   1.711  -3.374  1.00  0.00     0.170 HD
HETATM    4  C7  UNL     1       5.405   3.046  -4.044  1.00  0.00     0.326 A 
HETATM    5  O2  UNL     1       6.015   2.395  -4.923  1.00  0.00    -0.247 OA
HETATM    6  N3  UNL     1       5.729   4.305  -3.695  1.00  0.00    -0.295 N 
ATOM      7  H3  UNL     1       6.482   4.876  -4.079  1.00  0.00     0.172 HD
HETATM    8  C8  UNL     1       4.850   4.653  -2.730  1.00  0.00     0.143 A 
HETATM    9  N4  UNL     1       4.811   5.912  -2.054  1.00  0.00    -0.080 NA
ENDROOT
BRANCH   1  10
HETATM   10  C5  UNL     1       2.877   3.627  -1.483  1.00  0.00     0.079 C 
BRANCH  10  11
HETATM   11  C4  UNL     1       1.615   3.310  -2.227  1.00  0.00     0.149 C 
BRANCH  11  12
HETATM   12  N1  UNL     1       1.606   3.783  -3.585  1.00  0.00    -0.101 NA
BRANCH  12  13
HETATM   13  O1  UNL     1       0.969   4.977  -3.629  1.00  0.00    -0.283 OA
BRANCH  13  14
HETATM   14  C3  UNL     1       0.535   5.133  -4.955  1.00  0.00     0.222 C 
BRANCH  14  15
HETATM   15  C2  UNL     1      -0.475   4.125  -5.325  1.00  0.00    -0.009 C 
HETATM   16  C1  UNL     1      -1.628   3.986  -4.692  1.00  0.00     0.009 C 
ENDBRANCH  14  15
ENDBRANCH  13  14
ENDBRANCH  12  13
ENDBRANCH  11  12
ENDBRANCH  10  11
ENDBRANCH   1  10
TORSDOF 6
ENDMDL
MODEL 4
REMARK VINA RESULT: -6.042003241      2.214      2.637
REMARK  6 active torsions:
REMARK  status: ('A' for Active; 'I' for Inactive)
REMARK    1  A    between atoms: C2_2  and  C3_3 
REMARK    2  A    between atoms: C3_3  and  O1_4 
REMARK    3  A    between atoms: O1_4  and  N1_5 
REMARK    4  A    between atoms: N1_5  and  C4_6 
REMARK    5  A    between atoms: C4_6  and  C5_7 
REMARK    6  A    between atoms: C5_7  and  C6_8 
ROOT
HETATM    1  C6  UNL     1       4.566   5.917  -3.032  1.00  0.00     0.056 A 
HETATM    2  N2  UNL     1       5.042   6.744  -3.977  1.00  0.00    -0.309 N 
ATOM      3  H2  UNL     1       4.627   7.633  -4.254  1.00  0.00     0.170 HD
HETATM    4  C7  UNL     1       6.170   6.196  -4.502  1.00  0.00     0.326 A 
HETATM    5  O2  UNL     1       6.889   6.680  -5.406  1.00  0.00    -0.247 OA
HETATM    6  N3  UNL     1       6.426   5.020  -3.900  1.00  0.00    -0.295 N 
ATOM      7  H3  UNL     1       7.204   4.388  -4.088  1.00  0.00     0.172 HD
HETATM    8  C8  UNL     1       5.436   4.850  -2.996  1.00  0.00     0.143 A 
HETATM    9  N4  UNL     1       5.293   3.732  -2.117  1.00  0.00    -0.080 NA
ENDROOT
BRANCH   1  10
HETATM   10  C5  UNL     1       3.358   6.084  -2.185  1.00  0.00     0.079 C 
BRANCH  10  11
HETATM   11  C4  UNL     1       2.189   6.217  -3.113  1.00  0.00     0.149 C 
BRANCH  11  12
HETATM   12  N1  UNL     1       2.247   5.338  -4.250  1.00  0.00    -0.101 NA
BRANCH  12  13
HETATM   13  O1  UNL     1       1.610   4.183  -3.944  1.00  0.00    -0.283 OA
BRANCH  13  14
HETATM   14  C3  UNL     1       0.301   4.546  -3.591  1.00  0.00     0.222 C 
BRANCH  14  15
HETATM   15  C2  UNL     1      -0.704   3.844  -4.412  1.00  0.00    -0.009 C 
HETATM   16  C1  UNL     1      -0.540   3.590  -5.699  1.00  0.00     0.009 C 
ENDBRANCH  14  15
ENDBRANCH  13  14
ENDBRANCH  12  13
ENDBRANCH  11  12
ENDBRANCH  10  11
ENDBRANCH   1  10
TORSDOF 6
ENDMDL
MODEL 5
REMARK VINA RESULT: -6.004977970      2.089      5.068
REMARK  6 active torsions:
REMARK  status: ('A' for Active; 'I' for Inactive)
REMARK    1  A    between atoms: C2_2  and  C3_3 
REMARK    2  A    between atoms: C3_3  and  O1_4 
REMARK    3  A    between atoms: O1_4  and  N1_5 
REMARK    4  A    between atoms: N1_5  and  C4_6 
REMARK    5  A    between atoms: C4_6  and  C5_7 
REMARK    6  A    between atoms: C5_7  and  C6_8 
ROOT
HETATM    1  C6  UNL     1       2.891   4.363  -2.004  1.00  0.00     0.056 A 
HETATM    2  N2  UNL     1       2.750   3.334  -1.152  1.00  0.00    -0.309 N 
ATOM      3  H2  UNL     1       3.299   3.182  -0.306  1.00  0.00     0.170 HD
HETATM    4  C7  UNL     1       1.753   2.530  -1.608  1.00  0.00     0.326 A 
HETATM    5  O2  UNL     1       1.338   1.475  -1.076  1.00  0.00    -0.247 OA
HETATM    6  N3  UNL     1       1.249   3.034  -2.748  1.00  0.00    -0.295 N 
ATOM      7  H3  UNL     1       0.493   2.646  -3.313  1.00  0.00     0.172 HD
HETATM    8  C8  UNL     1       1.951   4.163  -2.990  1.00  0.00     0.143 A 
HETATM    9  N4  UNL     1       1.764   5.038  -4.104  1.00  0.00    -0.080 NA
ENDROOT
BRANCH   1  10
HETATM   10  C5  UNL     1       3.849   5.496  -1.930  1.00  0.00     0.079 C 
BRANCH  10  11
HETATM   11  C4  UNL     1       4.995   5.158  -2.833  1.00  0.00     0.149 C 
BRANCH  11  12
HETATM   12  N1  UNL     1       5.264   3.748  -2.930  1.00  0.00    -0.101 NA
BRANCH  12  13
HETATM   13  O1  UNL     1       5.464   3.429  -4.230  1.00  0.00    -0.283 OA
BRANCH  13  14
HETATM   14  C3  UNL     1       6.209   4.486  -4.776  1.00  0.00     0.222 C 
BRANCH  14  15
HETATM   15  C2  UNL     1       7.207   4.009  -5.752  1.00  0.00    -0.009 C 
HETATM   16  C1  UNL     1       6.882   3.433  -6.899  1.00  0.00     0.009 C 
ENDBRANCH  14  15
ENDBRANCH  13  14
ENDBRANCH  12  13
ENDBRANCH  11  12
ENDBRANCH  10  11
ENDBRANCH   1  10
TORSDOF 6
ENDMDL
