MODEL 1
REMARK VINA RESULT: -6.018758755      0.000      0.000
REMARK  7 active torsions:
REMARK  status: ('A' for Active; 'I' for Inactive)
REMARK    1  A    between atoms: N1_2  and  C2_4 
REMARK    2  A    between atoms: C2_4  and  C3_5 
REMARK    3  A    between atoms: C3_5  and  O1_6 
REMARK    4  A    between atoms: O1_6  and  C4_7 
REMARK    5  A    between atoms: C5_12  and  N4_13 
REMARK    6  A    between atoms: N4_13  and  C6_15 
REMARK    7  A    between atoms: C6_15  and  C7_16 
ROOT
HETATM    1  C4  UNL     1       3.434   3.661  -1.783  1.00  0.00     0.203 A 
HETATM    2  N2  UNL     1       2.719   3.009  -0.844  1.00  0.00    -0.275 N 
ATOM      3  H2  UNL     1       2.929   2.485   0.004  1.00  0.00     0.189 HD
HETATM    4  N3  UNL     1       1.629   3.346  -1.503  1.00  0.00    -0.280 N 
ATOM      5  H3  UNL     1       0.638   3.167  -1.341  1.00  0.00     0.188 HD
HETATM    6  C5  UNL     1       2.300   4.017  -2.477  1.00  0.00     0.169 A 
ENDROOT
BRANCH   1   7
HETATM    7  O1  UNL     1       4.771   3.871  -1.955  1.00  0.00    -0.330 OA
BRANCH   7   8
HETATM    8  C3  UNL     1       5.432   4.053  -3.184  1.00  0.00     0.196 C 
BRANCH   8   9
HETATM    9  C2  UNL     1       5.749   5.519  -3.433  1.00  0.00     0.140 C 
BRANCH   9  10
HETATM   10  N1  UNL     1       6.987   5.594  -4.133  1.00  0.00    -0.423 N 
HETATM   11  C1  UNL     1       7.102   4.811  -5.307  1.00  0.00     0.139 C 
ATOM     12  H1  UNL     1       7.752   6.184  -3.805  1.00  0.00     0.152 HD
ENDBRANCH   9  10
ENDBRANCH   8   9
ENDBRANCH   7   8
ENDBRANCH   1   7
BRANCH   6  13
HETATM   13  N4  UNL     1       1.910   4.717  -3.634  1.00  0.00    -0.365 N 
ATOM     14  H4  UNL     1       2.595   4.865  -4.375  1.00  0.00     0.161 HD
BRANCH  13  15
HETATM   15  C6  UNL     1       0.581   5.228  -3.804  1.00  0.00     0.199 C 
BRANCH  15  16
HETATM   16  C7  UNL     1      -0.156   4.480  -4.851  1.00  0.00     0.140 C 
HETATM   17  C8  UNL     1      -1.373   3.671  -4.525  1.00  0.00     0.092 C 
HETATM   18  O2  UNL     1       0.232   4.521  -5.999  1.00  0.00    -0.297 OA
ENDBRANCH  15  16
ENDBRANCH  13  15
ENDBRANCH   6  13
TORSDOF 7
ENDMDL
MODEL 2
REMARK VINA RESULT: -5.992844002      1.209      1.274
REMARK  7 active torsions:
REMARK  status: ('A' for Active; 'I' for Inactive)
REMARK    1  A    between atoms: N1_2  and  C2_4 
REMARK    2  A    between atoms: C2_4  and  C3_5 
REMARK    3  A    between atoms: C3_5  and  O1_6 
REMARK    4  A    between atoms: O1_6  and  C4_7 
REMARK    5  A    between atoms: C5_12  and  N4_13 
REMARK    6  A    between atoms: N4_13  and  C6_15 
REMARK    7  A    between atoms: C6_15  and  C7_16 
ROOT
HETATM    1  C4  UNL     1       3.370   3.587  -1.764  1.00  0.00     0.203 A 
HETATM    2  N2  UNL     1       2.625   2.891  -0.882  1.00  0.00    -0.275 N 
ATOM      3  H2  UNL     1       2.809   2.306  -0.067  1.00  0.00     0.189 HD
HETATM    4  N3  UNL     1       1.554   3.296  -1.533  1.00  0.00    -0.280 N 
ATOM      5  H3  UNL     1       0.556   3.131  -1.399  1.00  0.00     0.188 HD
HETATM    6  C5  UNL     1       2.257   4.015  -2.450  1.00  0.00     0.169 A 
ENDROOT
BRANCH   1   7
HETATM    7  O1  UNL     1       4.714   3.776  -1.901  1.00  0.00    -0.330 OA
BRANCH   7   8
HETATM    8  C3  UNL     1       5.342   4.658  -2.801  1.00  0.00     0.196 C 
BRANCH   8   9
HETATM    9  C2  UNL     1       5.584   3.998  -4.149  1.00  0.00     0.140 C 
BRANCH   9  10
HETATM   10  N1  UNL     1       5.951   2.641  -3.922  1.00  0.00    -0.423 N 
HETATM   11  C1  UNL     1       6.274   1.869  -5.064  1.00  0.00     0.139 C 
ATOM     12  H1  UNL     1       5.979   2.245  -2.982  1.00  0.00     0.152 HD
ENDBRANCH   9  10
ENDBRANCH   8   9
ENDBRANCH   7   8
ENDBRANCH   1   7
BRANCH   6  13
HETATM   13  N4  UNL     1       1.902   4.800  -3.563  1.00  0.00    -0.365 N 
ATOM     14  H4  UNL     1       2.615   5.023  -4.257  1.00  0.00     0.161 HD
BRANCH  13  15
HETATM   15  C6  UNL     1       0.570   5.296  -3.753  1.00  0.00     0.199 C 
BRANCH  15  16
HETATM   16  C7  UNL     1      -0.147   4.533  -4.802  1.00  0.00     0.140 C 
HETATM   17  C8  UNL     1      -1.420   3.802  -4.507  1.00  0.00     0.092 C 
HETATM   18  O2  UNL     1       0.304   4.496  -5.926  1.00  0.00    -0.297 OA
ENDBRANCH  15  16
ENDBRANCH  13  15
ENDBRANCH   6  13
TORSDOF 7
ENDMDL
MODEL 3
REMARK VINA RESULT: -5.968776105      1.901      5.145
REMARK  7 active torsions:
REMARK  status: ('A' for Active; 'I' for Inactive)
REMARK    1  A    between atoms: N1_2  and  C2_4 
REMARK    2  A    between atoms: C2_4  and  C3_5 
REMARK    3  A    between atoms: C3_5  and  O1_6 
REMARK    4  A    between atoms: O1_6  and  C4_7 
REMARK    5  A    between atoms: C5_12  and  N4_13 
REMARK    6  A    between atoms: N4_13  and  C6_15 
REMARK    7  A    between atoms: C6_15  and  C7_16 
ROOT
HETATM    1  C4  UNL     1       1.605   3.071  -2.122  1.00  0.00     0.203 A 
HETATM    2  N2  UNL     1       1.740   2.003  -1.311  1.00  0.00    -0.275 N 
ATOM      3  H2  UNL     1       1.295   1.090  -1.221  1.00  0.00     0.189 HD
HETATM    4  N3  UNL     1       2.699   2.654  -0.685  1.00  0.00    -0.280 N 
ATOM      5  H3  UNL     1       3.297   2.415   0.107  1.00  0.00     0.188 HD
HETATM    6  C5  UNL     1       2.606   3.758  -1.474  1.00  0.00     0.169 A 
ENDROOT
BRANCH   1   7
HETATM    7  O1  UNL     1       0.782   3.342  -3.175  1.00  0.00    -0.330 OA
BRANCH   7   8
HETATM    8  C3  UNL     1      -0.375   4.143  -3.141  1.00  0.00     0.196 C 
BRANCH   8   9
HETATM    9  C2  UNL     1      -1.199   3.985  -4.410  1.00  0.00     0.140 C 
BRANCH   9  10
HETATM   10  N1  UNL     1      -0.334   4.159  -5.527  1.00  0.00    -0.423 N 
HETATM   11  C1  UNL     1       0.044   5.487  -5.839  1.00  0.00     0.139 C 
ATOM     12  H1  UNL     1      -0.003   3.365  -6.076  1.00  0.00     0.152 HD
ENDBRANCH   9  10
ENDBRANCH   8   9
ENDBRANCH   7   8
ENDBRANCH   1   7
BRANCH   6  13
HETATM   13  N4  UNL     1       3.277   4.995  -1.514  1.00  0.00    -0.365 N 
ATOM     14  H4  UNL     1       3.217   5.615  -0.706  1.00  0.00     0.161 HD
BRANCH  13  15
HETATM   15  C6  UNL     1       4.043   5.411  -2.653  1.00  0.00     0.199 C 
BRANCH  15  16
HETATM   16  C7  UNL     1       5.175   4.489  -2.909  1.00  0.00     0.140 C 
HETATM   17  C8  UNL     1       5.900   4.485  -4.219  1.00  0.00     0.092 C 
HETATM   18  O2  UNL     1       5.526   3.718  -2.042  1.00  0.00    -0.297 OA
ENDBRANCH  15  16
ENDBRANCH  13  15
ENDBRANCH   6  13
TORSDOF 7
ENDMDL
MODEL 4
REMARK VINA RESULT: -5.951025223      1.042      1.149
REMARK  7 active torsions:
REMARK  status: ('A' for Active; 'I' for Inactive)
REMARK    1  A    between atoms: N1_2  and  C2_4 
REMARK    2  A    between atoms: C2_4  and  C3_5 
REMARK    3  A    between atoms: C3_5  and  O1_6 
REMARK    4  A    between atoms: O1_6  and  C4_7 
REMARK    5  A    between atoms: C5_12  and  N4_13 
REMARK    6  A    between atoms: N4_13  and  C6_15 
REMARK    7  A    between atoms: C6_15  and  C7_16 
ROOT
HETATM    1  C4  UNL     1       2.926   3.940  -1.502  1.00  0.00     0.203 A 
HETATM    2  N2  UNL     1       2.850   3.006  -0.532  1.00  0.00    -0.275 N 
ATOM      3  H2  UNL     1       3.274   2.865   0.385  1.00  0.00     0.189 HD
HETATM    4  N3  UNL     1       1.988   2.355  -1.286  1.00  0.00    -0.280 N 
ATOM      5  H3  UNL     1       1.476   1.482  -1.159  1.00  0.00     0.188 HD
HETATM    6  C5  UNL     1       2.026   3.266  -2.296  1.00  0.00     0.169 A 
ENDROOT
BRANCH   1   7
HETATM    7  O1  UNL     1       3.634   5.099  -1.623  1.00  0.00    -0.330 OA
BRANCH   7   8
HETATM    8  C3  UNL     1       4.360   5.515  -2.755  1.00  0.00     0.196 C 
BRANCH   8   9
HETATM    9  C2  UNL     1       5.440   4.509  -3.123  1.00  0.00     0.140 C 
BRANCH   9  10
HETATM   10  N1  UNL     1       6.458   5.194  -3.845  1.00  0.00    -0.423 N 
HETATM   11  C1  UNL     1       6.196   6.541  -4.193  1.00  0.00     0.139 C 
ATOM     12  H1  UNL     1       7.334   4.736  -4.098  1.00  0.00     0.152 HD
ENDBRANCH   9  10
ENDBRANCH   8   9
ENDBRANCH   7   8
ENDBRANCH   1   7
BRANCH   6  13
HETATM   13  N4  UNL     1       1.393   3.369  -3.548  1.00  0.00    -0.365 N 
ATOM     14  H4  UNL     1       1.330   2.540  -4.139  1.00  0.00     0.161 HD
BRANCH  13  15
HETATM   15  C6  UNL     1       0.833   4.602  -4.021  1.00  0.00     0.199 C 
BRANCH  15  16
HETATM   16  C7  UNL     1      -0.187   4.365  -5.070  1.00  0.00     0.140 C 
HETATM   17  C8  UNL     1      -1.601   4.015  -4.722  1.00  0.00     0.092 C 
HETATM   18  O2  UNL     1       0.125   4.456  -6.238  1.00  0.00    -0.297 OA
ENDBRANCH  15  16
ENDBRANCH  13  15
ENDBRANCH   6  13
TORSDOF 7
ENDMDL
MODEL 5
REMARK VINA RESULT: -5.848457549      1.843      2.086
REMARK  7 active torsions:
REMARK  status: ('A' for Active; 'I' for Inactive)
REMARK    1  A    between atoms: N1_2  and  C2_4 
REMARK    2  A    between atoms: C2_4  and  C3_5 
REMARK    3  A    between atoms: C3_5  and  O1_6 
REMARK    4  A    between atoms: O1_6  and  C4_7 
REMARK    5  A    between atoms: C5_12  and  N4_13 
REMARK    6  A    between atoms: N4_13  and  C6_15 
REMARK    7  A    between atoms: C6_15  and  C7_16 
ROOT
HETATM    1  C4  UNL     1       3.270   3.737  -1.673  1.00  0.00     0.203 A 
HETATM    2  N2  UNL     1       2.951   3.004  -0.587  1.00  0.00    -0.275 N 
ATOM      3  H2  UNL     1       3.350   2.854   0.338  1.00  0.00     0.189 HD
HETATM    4  N3  UNL     1       1.897   2.567  -1.246  1.00  0.00    -0.280 N 
ATOM      5  H3  UNL     1       1.145   1.922  -1.002  1.00  0.00     0.188 HD
HETATM    6  C5  UNL     1       2.171   3.285  -2.368  1.00  0.00     0.169 A 
ENDROOT
BRANCH   1   7
HETATM    7  O1  UNL     1       4.297   4.591  -1.950  1.00  0.00    -0.330 OA
BRANCH   7   8
HETATM    8  C3  UNL     1       4.215   5.768  -2.717  1.00  0.00     0.196 C 
BRANCH   8   9
HETATM    9  C2  UNL     1       3.323   6.805  -2.051  1.00  0.00     0.140 C 
BRANCH   9  10
HETATM   10  N1  UNL     1       4.025   8.043  -2.021  1.00  0.00    -0.423 N 
HETATM   11  C1  UNL     1       4.761   8.386  -3.181  1.00  0.00     0.139 C 
ATOM     12  H1  UNL     1       3.999   8.653  -1.204  1.00  0.00     0.152 HD
ENDBRANCH   9  10
ENDBRANCH   8   9
ENDBRANCH   7   8
ENDBRANCH   1   7
BRANCH   6  13
HETATM   13  N4  UNL     1       1.548   3.423  -3.622  1.00  0.00    -0.365 N 
ATOM     14  H4  UNL     1       1.595   2.649  -4.284  1.00  0.00     0.161 HD
BRANCH  13  15
HETATM   15  C6  UNL     1       0.847   4.617  -3.999  1.00  0.00     0.199 C 
BRANCH  15  16
HETATM   16  C7  UNL     1      -0.197   4.334  -5.013  1.00  0.00     0.140 C 
HETATM   17  C8  UNL     1      -1.600   3.994  -4.618  1.00  0.00     0.092 C 
HETATM   18  O2  UNL     1       0.088   4.376  -6.190  1.00  0.00    -0.297 OA
ENDBRANCH  15  16
ENDBRANCH  13  15
ENDBRANCH   6  13
TORSDOF 7
ENDMDL
