MODEL 1
REMARK VINA RESULT: -6.237616127      0.000      0.000
REMARK  8 active torsions:
REMARK  status: ('A' for Active; 'I' for Inactive)
REMARK    1  A    between atoms: C2_2  and  C3_3 
REMARK    2  A    between atoms: C3_3  and  C4_4 
REMARK    3  A    between atoms: C4_4  and  N1_5 
REMARK    4  A    between atoms: N1_5  and  C5_8 
REMARK    5  A    between atoms: C5_8  and  C6_9 
REMARK    6  A    between atoms: C6_9  and  O1_10 
REMARK    7  A    between atoms: O1_10  and  C7_11 
REMARK    8  A    between atoms: C8_17  and  N5_18 
ROOT
HETATM    1  C7  UNL     1       5.295   3.694  -3.138  1.00  0.00     0.201 A 
HETATM    2  N2  UNL     1       5.347   2.529  -3.799  1.00  0.00    -0.261 N 
ATOM      3  H2  UNL     1       4.919   1.652  -3.498  1.00  0.00     0.186 HD
HETATM    4  N3  UNL     1       6.053   2.709  -4.918  1.00  0.00    -0.019 NA
HETATM    5  N4  UNL     1       6.461   3.970  -4.997  1.00  0.00    -0.266 N 
ATOM      6  H4  UNL     1       7.017   4.381  -5.747  1.00  0.00     0.186 HD
HETATM    7  C8  UNL     1       6.004   4.604  -3.905  1.00  0.00     0.165 A 
ENDROOT
BRANCH   1   8
HETATM    8  O1  UNL     1       4.695   4.034  -1.945  1.00  0.00    -0.331 OA
BRANCH   8   9
HETATM    9  C6  UNL     1       3.336   4.383  -1.820  1.00  0.00     0.205 C 
BRANCH   9  10
HETATM   10  C5  UNL     1       2.619   3.190  -1.229  1.00  0.00     0.259 C 
BRANCH  10  11
HETATM   11  N1  UNL     1       1.222   3.184  -1.623  1.00  0.00    -0.073 N 
ATOM     12  H12 UNL     1       0.645   3.731  -0.985  1.00  0.00     0.277 HD
ATOM     13  H11 UNL     1       0.791   2.271  -1.474  1.00  0.00     0.277 HD
BRANCH  11  14
HETATM   14  C4  UNL     1       1.076   3.627  -2.987  1.00  0.00     0.236 C 
BRANCH  14  15
HETATM   15  C3  UNL     1      -0.279   4.257  -3.162  1.00  0.00     0.054 C 
BRANCH  15  16
HETATM   16  C2  UNL     1      -1.010   3.729  -4.314  1.00  0.00    -0.035 C 
HETATM   17  C1  UNL     1      -0.595   3.652  -5.554  1.00  0.00     0.007 C 
ENDBRANCH  15  16
ENDBRANCH  14  15
ENDBRANCH  11  14
ENDBRANCH  10  11
ENDBRANCH   9  10
ENDBRANCH   8   9
ENDBRANCH   1   8
BRANCH   7  18
HETATM   18  N5  UNL     1       6.208   5.844  -3.643  1.00  0.00    -0.381 N 
ATOM     19  H52 UNL     1       5.515   6.584  -3.764  1.00  0.00     0.157 HD
ATOM     20  H51 UNL     1       7.066   6.263  -3.286  1.00  0.00     0.157 HD
ENDBRANCH   7  18
TORSDOF 8
ENDMDL
MODEL 2
REMARK VINA RESULT: -6.203829506      1.203      2.005
REMARK  8 active torsions:
REMARK  status: ('A' for Active; 'I' for Inactive)
REMARK    1  A    between atoms: C2_2  and  C3_3 
REMARK    2  A    between atoms: C3_3  and  C4_4 
REMARK    3  A    between atoms: C4_4  and  N1_5 
REMARK    4  A    between atoms: N1_5  and  C5_8 
REMARK    5  A    between atoms: C5_8  and  C6_9 
REMARK    6  A    between atoms: C6_9  and  O1_10 
REMARK    7  A    between atoms: O1_10  and  C7_11 
REMARK    8  A    between atoms: C8_17  and  N5_18 
ROOT
HETATM    1  C7  UNL     1       4.423   4.001  -2.320  1.00  0.00     0.201 A 
HETATM    2  N2  UNL     1       4.405   5.298  -1.980  1.00  0.00    -0.261 N 
ATOM      3  H2  UNL     1       3.745   5.736  -1.336  1.00  0.00     0.186 HD
HETATM    4  N3  UNL     1       5.395   5.918  -2.626  1.00  0.00    -0.019 NA
HETATM    5  N4  UNL     1       6.057   5.049  -3.380  1.00  0.00    -0.266 N 
ATOM      6  H4  UNL     1       6.858   5.253  -3.978  1.00  0.00     0.186 HD
HETATM    7  C8  UNL     1       5.476   3.851  -3.209  1.00  0.00     0.165 A 
ENDROOT
BRANCH   1   8
HETATM    8  O1  UNL     1       3.621   2.950  -1.933  1.00  0.00    -0.331 OA
BRANCH   8   9
HETATM    9  C6  UNL     1       2.607   2.397  -2.740  1.00  0.00     0.205 C 
BRANCH   9  10
HETATM   10  C5  UNL     1       1.390   2.204  -1.863  1.00  0.00     0.259 C 
BRANCH  10  11
HETATM   11  N1  UNL     1       0.627   3.436  -1.765  1.00  0.00    -0.073 N 
ATOM     12  H12 UNL     1       0.973   4.037  -1.017  1.00  0.00     0.277 HD
ATOM     13  H11 UNL     1      -0.313   3.271  -1.407  1.00  0.00     0.277 HD
BRANCH  11  14
HETATM   14  C4  UNL     1       0.603   4.122  -3.033  1.00  0.00     0.236 C 
BRANCH  14  15
HETATM   15  C3  UNL     1      -0.820   4.454  -3.389  1.00  0.00     0.054 C 
BRANCH  15  16
HETATM   16  C2  UNL     1      -1.252   3.839  -4.645  1.00  0.00    -0.035 C 
HETATM   17  C1  UNL     1      -0.512   3.542  -5.684  1.00  0.00     0.007 C 
ENDBRANCH  15  16
ENDBRANCH  14  15
ENDBRANCH  11  14
ENDBRANCH  10  11
ENDBRANCH   9  10
ENDBRANCH   8   9
ENDBRANCH   1   8
BRANCH   7  18
HETATM   18  N5  UNL     1       5.852   2.768  -3.786  1.00  0.00    -0.381 N 
ATOM     19  H52 UNL     1       5.392   1.864  -3.679  1.00  0.00     0.157 HD
ATOM     20  H51 UNL     1       6.645   2.652  -4.417  1.00  0.00     0.157 HD
ENDBRANCH   7  18
TORSDOF 8
ENDMDL
MODEL 3
REMARK VINA RESULT: -6.053876887      0.565      1.533
REMARK  8 active torsions:
REMARK  status: ('A' for Active; 'I' for Inactive)
REMARK    1  A    between atoms: C2_2  and  C3_3 
REMARK    2  A    between atoms: C3_3  and  C4_4 
REMARK    3  A    between atoms: C4_4  and  N1_5 
REMARK    4  A    between atoms: N1_5  and  C5_8 
REMARK    5  A    between atoms: C5_8  and  C6_9 
REMARK    6  A    between atoms: C6_9  and  O1_10 
REMARK    7  A    between atoms: O1_10  and  C7_11 
REMARK    8  A    between atoms: C8_17  and  N5_18 
ROOT
HETATM    1  C7  UNL     1       5.479   4.099  -3.059  1.00  0.00     0.201 A 
HETATM    2  N2  UNL     1       6.070   5.262  -3.369  1.00  0.00    -0.261 N 
ATOM      3  H2  UNL     1       6.039   6.115  -2.810  1.00  0.00     0.186 HD
HETATM    4  N3  UNL     1       6.708   5.115  -4.533  1.00  0.00    -0.019 NA
HETATM    5  N4  UNL     1       6.542   3.878  -4.986  1.00  0.00    -0.266 N 
ATOM      6  H4  UNL     1       6.920   3.495  -5.853  1.00  0.00     0.186 HD
HETATM    7  C8  UNL     1       5.784   3.226  -4.091  1.00  0.00     0.165 A 
ENDROOT
BRANCH   1   8
HETATM    8  O1  UNL     1       4.709   3.733  -1.977  1.00  0.00    -0.331 OA
BRANCH   8   9
HETATM    9  C6  UNL     1       3.393   4.184  -1.760  1.00  0.00     0.205 C 
BRANCH   9  10
HETATM   10  C5  UNL     1       2.536   2.964  -1.504  1.00  0.00     0.259 C 
BRANCH  10  11
HETATM   11  N1  UNL     1       1.134   3.264  -1.732  1.00  0.00    -0.073 N 
ATOM     12  H12 UNL     1       0.774   3.932  -1.051  1.00  0.00     0.277 HD
ATOM     13  H11 UNL     1       0.536   2.472  -1.500  1.00  0.00     0.277 HD
BRANCH  11  14
HETATM   14  C4  UNL     1       0.924   3.714  -3.085  1.00  0.00     0.236 C 
BRANCH  14  15
HETATM   15  C3  UNL     1      -0.483   4.229  -3.223  1.00  0.00     0.054 C 
BRANCH  15  16
HETATM   16  C2  UNL     1      -1.129   3.800  -4.464  1.00  0.00    -0.035 C 
HETATM   17  C1  UNL     1      -0.565   3.601  -5.629  1.00  0.00     0.007 C 
ENDBRANCH  15  16
ENDBRANCH  14  15
ENDBRANCH  11  14
ENDBRANCH  10  11
ENDBRANCH   9  10
ENDBRANCH   8   9
ENDBRANCH   1   8
BRANCH   7  18
HETATM   18  N5  UNL     1       5.417   2.000  -4.200  1.00  0.00    -0.381 N 
ATOM     19  H52 UNL     1       5.018   1.444  -3.443  1.00  0.00     0.157 HD
ATOM     20  H51 UNL     1       5.469   1.416  -5.034  1.00  0.00     0.157 HD
ENDBRANCH   7  18
TORSDOF 8
ENDMDL
MODEL 4
REMARK VINA RESULT: -5.859332736      2.179      2.573
REMARK  8 active torsions:
REMARK  status: ('A' for Active; 'I' for Inactive)
REMARK    1  A    between atoms: C2_2  and  C3_3 
REMARK    2  A    between atoms: C3_3  and  C4_4 
REMARK    3  A    between atoms: C4_4  and  N1_5 
REMARK    4  A    between atoms: N1_5  and  C5_8 
REMARK    5  A    between atoms: C5_8  and  C6_9 
REMARK    6  A    between atoms: C6_9  and  O1_10 
REMARK    7  A    between atoms: O1_10  and  C7_11 
REMARK    8  A    between atoms: C8_17  and  N5_18 
ROOT
HETATM    1  C7  UNL     1       4.455   5.466  -2.265  1.00  0.00     0.201 A 
HETATM    2  N2  UNL     1       3.742   4.507  -1.656  1.00  0.00    -0.261 N 
ATOM      3  H2  UNL     1       2.935   4.657  -1.049  1.00  0.00     0.186 HD
HETATM    4  N3  UNL     1       4.267   3.321  -1.977  1.00  0.00    -0.019 NA
HETATM    5  N4  UNL     1       5.307   3.492  -2.785  1.00  0.00    -0.266 N 
ATOM      6  H4  UNL     1       5.892   2.757  -3.182  1.00  0.00     0.186 HD
HETATM    7  C8  UNL     1       5.446   4.812  -2.980  1.00  0.00     0.165 A 
ENDROOT
BRANCH   1   8
HETATM    8  O1  UNL     1       4.324   6.837  -2.256  1.00  0.00    -0.331 OA
BRANCH   8   9
HETATM    9  C6  UNL     1       3.090   7.509  -2.358  1.00  0.00     0.205 C 
BRANCH   9  10
HETATM   10  C5  UNL     1       2.442   7.066  -3.651  1.00  0.00     0.259 C 
BRANCH  10  11
HETATM   11  N1  UNL     1       1.102   6.563  -3.407  1.00  0.00    -0.073 N 
ATOM     12  H12 UNL     1       0.397   7.108  -3.903  1.00  0.00     0.277 HD
ATOM     13  H11 UNL     1       0.796   6.750  -2.452  1.00  0.00     0.277 HD
BRANCH  11  14
HETATM   14  C4  UNL     1       1.018   5.161  -3.731  1.00  0.00     0.236 C 
BRANCH  14  15
HETATM   15  C3  UNL     1      -0.314   4.627  -3.277  1.00  0.00     0.054 C 
BRANCH  15  16
HETATM   16  C2  UNL     1      -1.004   3.859  -4.314  1.00  0.00    -0.035 C 
HETATM   17  C1  UNL     1      -0.598   3.625  -5.536  1.00  0.00     0.007 C 
ENDBRANCH  15  16
ENDBRANCH  14  15
ENDBRANCH  11  14
ENDBRANCH  10  11
ENDBRANCH   9  10
ENDBRANCH   8   9
ENDBRANCH   1   8
BRANCH   7  18
HETATM   18  N5  UNL     1       6.355   5.351  -3.710  1.00  0.00    -0.381 N 
ATOM     19  H52 UNL     1       7.215   4.886  -4.002  1.00  0.00     0.157 HD
ATOM     20  H51 UNL     1       6.353   6.295  -4.094  1.00  0.00     0.157 HD
ENDBRANCH   7  18
TORSDOF 8
ENDMDL
MODEL 5
REMARK VINA RESULT: -5.836535043      1.256      1.869
REMARK  8 active torsions:
REMARK  status: ('A' for Active; 'I' for Inactive)
REMARK    1  A    between atoms: C2_2  and  C3_3 
REMARK    2  A    between atoms: C3_3  and  C4_4 
REMARK    3  A    between atoms: C4_4  and  N1_5 
REMARK    4  A    between atoms: N1_5  and  C5_8 
REMARK    5  A    between atoms: C5_8  and  C6_9 
REMARK    6  A    between atoms: C6_9  and  O1_10 
REMARK    7  A    between atoms: O1_10  and  C7_11 
REMARK    8  A    between atoms: C8_17  and  N5_18 
ROOT
HETATM    1  C7  UNL     1       5.086   4.783  -2.802  1.00  0.00     0.201 A 
HETATM    2  N2  UNL     1       6.140   4.819  -3.630  1.00  0.00    -0.261 N 
ATOM      3  H2  UNL     1       6.726   4.022  -3.885  1.00  0.00     0.186 HD
HETATM    4  N3  UNL     1       6.295   6.072  -4.064  1.00  0.00    -0.019 NA
HETATM    5  N4  UNL     1       5.360   6.852  -3.534  1.00  0.00    -0.266 N 
ATOM      6  H4  UNL     1       5.244   7.853  -3.694  1.00  0.00     0.186 HD
HETATM    7  C8  UNL     1       4.596   6.078  -2.747  1.00  0.00     0.165 A 
ENDROOT
BRANCH   1   8
HETATM    8  O1  UNL     1       4.518   3.742  -2.100  1.00  0.00    -0.331 OA
BRANCH   8   9
HETATM    9  C6  UNL     1       3.359   3.057  -2.512  1.00  0.00     0.205 C 
BRANCH   9  10
HETATM   10  C5  UNL     1       2.418   3.014  -1.328  1.00  0.00     0.259 C 
BRANCH  10  11
HETATM   11  N1  UNL     1       1.035   3.070  -1.768  1.00  0.00    -0.073 N 
ATOM     12  H12 UNL     1       0.436   3.518  -1.076  1.00  0.00     0.277 HD
ATOM     13  H11 UNL     1       0.602   2.147  -1.771  1.00  0.00     0.277 HD
BRANCH  11  14
HETATM   14  C4  UNL     1       0.937   3.710  -3.056  1.00  0.00     0.236 C 
BRANCH  14  15
HETATM   15  C3  UNL     1      -0.458   4.243  -3.238  1.00  0.00     0.054 C 
BRANCH  15  16
HETATM   16  C2  UNL     1      -1.100   3.757  -4.460  1.00  0.00    -0.035 C 
HETATM   17  C1  UNL     1      -0.549   3.586  -5.636  1.00  0.00     0.007 C 
ENDBRANCH  15  16
ENDBRANCH  14  15
ENDBRANCH  11  14
ENDBRANCH  10  11
ENDBRANCH   9  10
ENDBRANCH   8   9
ENDBRANCH   1   8
BRANCH   7  18
HETATM   18  N5  UNL     1       3.589   6.496  -2.068  1.00  0.00    -0.381 N 
ATOM     19  H52 UNL     1       3.155   5.983  -1.301  1.00  0.00     0.157 HD
ATOM     20  H51 UNL     1       3.088   7.375  -2.192  1.00  0.00     0.157 HD
ENDBRANCH   7  18
TORSDOF 8
ENDMDL
