MODEL 1
REMARK VINA RESULT: -5.641163500      0.000      0.000
REMARK  8 active torsions:
REMARK  status: ('A' for Active; 'I' for Inactive)
REMARK    1  A    between atoms: C2_2  and  C3_3 
REMARK    2  A    between atoms: C3_3  and  N1_4 
REMARK    3  A    between atoms: N1_4  and  C4_7 
REMARK    4  A    between atoms: C4_7  and  C5_8 
REMARK    5  A    between atoms: C5_8  and  N2_9 
REMARK    6  A    between atoms: N2_9  and  C6_12 
REMARK    7  A    between atoms: C6_12  and  C7_13 
REMARK    8  A    between atoms: C9_18  and  N4_19 
ROOT
HETATM    1  N2  UNL     1       4.953   4.466  -2.150  1.00  0.00    -0.070 N 
ATOM      2  H21 UNL     1       5.711   4.746  -1.527  1.00  0.00     0.277 HD
ATOM      3  H22 UNL     1       4.768   3.531  -1.790  1.00  0.00     0.277 HD
ENDROOT
BRANCH   1   4
HETATM    4  C5  UNL     1       5.418   4.398  -3.502  1.00  0.00     0.260 C 
BRANCH   4   5
HETATM    5  C4  UNL     1       6.083   5.721  -3.922  1.00  0.00     0.260 C 
BRANCH   5   6
HETATM    6  N1  UNL     1       7.361   5.506  -4.515  1.00  0.00    -0.070 N 
ATOM      7  H12 UNL     1       7.789   4.659  -4.142  1.00  0.00     0.277 HD
ATOM      8  H11 UNL     1       8.030   6.199  -4.183  1.00  0.00     0.277 HD
BRANCH   6   9
HETATM    9  C3  UNL     1       7.341   5.471  -5.938  1.00  0.00     0.259 C 
BRANCH   9  10
HETATM   10  C2  UNL     1       7.738   4.187  -6.517  1.00  0.00    -0.010 C 
HETATM   11  C1  UNL     1       6.909   3.266  -6.941  1.00  0.00     0.008 C 
ENDBRANCH   9  10
ENDBRANCH   6   9
ENDBRANCH   5   6
ENDBRANCH   4   5
ENDBRANCH   1   4
BRANCH   1  12
HETATM   12  C6  UNL     1       3.802   5.318  -1.957  1.00  0.00     0.276 C 
BRANCH  12  13
HETATM   13  C7  UNL     1       2.546   4.568  -2.309  1.00  0.00     0.037 A 
HETATM   14  C8  UNL     1       1.636   4.902  -3.303  1.00  0.00     0.180 A 
HETATM   15  O1  UNL     1       0.693   4.004  -3.291  1.00  0.00    -0.248 OA
HETATM   16  N3  UNL     1       0.882   3.113  -2.395  1.00  0.00    -0.245 N 
HETATM   17  C9  UNL     1       2.036   3.420  -1.745  1.00  0.00     0.129 A 
ATOM     18  H3  UNL     1       0.276   2.315  -2.202  1.00  0.00     0.196 HD
BRANCH  17  19
HETATM   19  N4  UNL     1       2.578   2.766  -0.773  1.00  0.00    -0.384 N 
ATOM     20  H42 UNL     1       2.137   2.490   0.104  1.00  0.00     0.157 HD
ATOM     21  H41 UNL     1       3.541   2.432  -0.757  1.00  0.00     0.157 HD
ENDBRANCH  17  19
ENDBRANCH  12  13
ENDBRANCH   1  12
TORSDOF 8
ENDMDL
MODEL 2
REMARK VINA RESULT: -5.624935977      2.701      5.570
REMARK  8 active torsions:
REMARK  status: ('A' for Active; 'I' for Inactive)
REMARK    1  A    between atoms: C2_2  and  C3_3 
REMARK    2  A    between atoms: C3_3  and  N1_4 
REMARK    3  A    between atoms: N1_4  and  C4_7 
REMARK    4  A    between atoms: C4_7  and  C5_8 
REMARK    5  A    between atoms: C5_8  and  N2_9 
REMARK    6  A    between atoms: N2_9  and  C6_12 
REMARK    7  A    between atoms: C6_12  and  C7_13 
REMARK    8  A    between atoms: C9_18  and  N4_19 
ROOT
HETATM    1  N2  UNL     1       1.821   3.203  -3.113  1.00  0.00    -0.070 N 
ATOM      2  H21 UNL     1       2.039   4.008  -3.701  1.00  0.00     0.277 HD
ATOM      3  H22 UNL     1       1.669   2.497  -3.833  1.00  0.00     0.277 HD
ENDROOT
BRANCH   1   4
HETATM    4  C5  UNL     1       0.615   3.433  -2.377  1.00  0.00     0.260 C 
BRANCH   4   5
HETATM    5  C4  UNL     1      -0.347   4.337  -3.171  1.00  0.00     0.260 C 
BRANCH   5   6
HETATM    6  N1  UNL     1      -0.915   3.653  -4.285  1.00  0.00    -0.070 N 
ATOM      7  H12 UNL     1      -1.932   3.656  -4.225  1.00  0.00     0.277 HD
ATOM      8  H11 UNL     1      -0.740   2.651  -4.216  1.00  0.00     0.277 HD
BRANCH   6   9
HETATM    9  C3  UNL     1      -0.487   4.149  -5.549  1.00  0.00     0.259 C 
BRANCH   9  10
HETATM   10  C2  UNL     1       0.186   5.447  -5.493  1.00  0.00    -0.010 C 
HETATM   11  C1  UNL     1       0.109   6.374  -6.416  1.00  0.00     0.008 C 
ENDBRANCH   9  10
ENDBRANCH   6   9
ENDBRANCH   5   6
ENDBRANCH   4   5
ENDBRANCH   1   4
BRANCH   1  12
HETATM   12  C6  UNL     1       2.960   2.852  -2.297  1.00  0.00     0.276 C 
BRANCH  12  13
HETATM   13  C7  UNL     1       4.070   3.845  -2.513  1.00  0.00     0.037 A 
HETATM   14  C8  UNL     1       4.114   5.150  -2.041  1.00  0.00     0.180 A 
HETATM   15  O1  UNL     1       5.238   5.674  -2.438  1.00  0.00    -0.248 OA
HETATM   16  N3  UNL     1       5.941   4.856  -3.123  1.00  0.00    -0.245 N 
HETATM   17  C9  UNL     1       5.252   3.686  -3.202  1.00  0.00     0.129 A 
ATOM     18  H3  UNL     1       6.854   5.046  -3.535  1.00  0.00     0.196 HD
BRANCH  17  19
HETATM   19  N4  UNL     1       5.619   2.607  -3.806  1.00  0.00    -0.384 N 
ATOM     20  H42 UNL     1       5.083   1.744  -3.905  1.00  0.00     0.157 HD
ATOM     21  H41 UNL     1       6.515   2.474  -4.276  1.00  0.00     0.157 HD
ENDBRANCH  17  19
ENDBRANCH  12  13
ENDBRANCH   1  12
TORSDOF 8
ENDMDL
MODEL 3
REMARK VINA RESULT: -5.621309769      2.569      5.687
REMARK  8 active torsions:
REMARK  status: ('A' for Active; 'I' for Inactive)
REMARK    1  A    between atoms: C2_2  and  C3_3 
REMARK    2  A    between atoms: C3_3  and  N1_4 
REMARK    3  A    between atoms: N1_4  and  C4_7 
REMARK    4  A    between atoms: C4_7  and  C5_8 
REMARK    5  A    between atoms: C5_8  and  N2_9 
REMARK    6  A    between atoms: N2_9  and  C6_12 
REMARK    7  A    between atoms: C6_12  and  C7_13 
REMARK    8  A    between atoms: C9_18  and  N4_19 
ROOT
HETATM    1  N2  UNL     1       3.534   4.867  -1.610  1.00  0.00    -0.070 N 
ATOM      2  H21 UNL     1       4.501   4.741  -1.312  1.00  0.00     0.277 HD
ATOM      3  H22 UNL     1       3.250   5.610  -0.972  1.00  0.00     0.277 HD
ENDROOT
BRANCH   1   4
HETATM    4  C5  UNL     1       2.776   3.679  -1.359  1.00  0.00     0.260 C 
BRANCH   4   5
HETATM    5  C4  UNL     1       1.937   3.294  -2.592  1.00  0.00     0.260 C 
BRANCH   5   6
HETATM    6  N1  UNL     1       0.539   3.376  -2.325  1.00  0.00    -0.070 N 
ATOM      7  H12 UNL     1       0.375   3.568  -1.338  1.00  0.00     0.277 HD
ATOM      8  H11 UNL     1       0.107   2.455  -2.398  1.00  0.00     0.277 HD
BRANCH   6   9
HETATM    9  C3  UNL     1      -0.152   4.318  -3.139  1.00  0.00     0.259 C 
BRANCH   9  10
HETATM   10  C2  UNL     1      -0.939   3.720  -4.219  1.00  0.00    -0.010 C 
HETATM   11  C1  UNL     1      -0.579   3.680  -5.477  1.00  0.00     0.008 C 
ENDBRANCH   9  10
ENDBRANCH   6   9
ENDBRANCH   5   6
ENDBRANCH   4   5
ENDBRANCH   1   4
BRANCH   1  12
HETATM   12  C6  UNL     1       3.484   5.331  -2.977  1.00  0.00     0.276 C 
BRANCH  12  13
HETATM   13  C7  UNL     1       4.881   5.527  -3.502  1.00  0.00     0.037 A 
HETATM   14  C8  UNL     1       5.482   6.737  -3.820  1.00  0.00     0.180 A 
HETATM   15  O1  UNL     1       6.690   6.480  -4.235  1.00  0.00    -0.248 OA
HETATM   16  N3  UNL     1       6.951   5.230  -4.225  1.00  0.00    -0.245 N 
HETATM   17  C9  UNL     1       5.845   4.580  -3.772  1.00  0.00     0.129 A 
ATOM     18  H3  UNL     1       7.830   4.796  -4.506  1.00  0.00     0.196 HD
BRANCH  17  19
HETATM   19  N4  UNL     1       5.701   3.308  -3.612  1.00  0.00    -0.384 N 
ATOM     20  H42 UNL     1       4.885   2.824  -3.237  1.00  0.00     0.157 HD
ATOM     21  H41 UNL     1       6.401   2.605  -3.847  1.00  0.00     0.157 HD
ENDBRANCH  17  19
ENDBRANCH  12  13
ENDBRANCH   1  12
TORSDOF 8
ENDMDL
MODEL 4
REMARK VINA RESULT: -5.593419192      2.637      5.196
REMARK  8 active torsions:
REMARK  status: ('A' for Active; 'I' for Inactive)
REMARK    1  A    between atoms: C2_2  and  C3_3 
REMARK    2  A    between atoms: C3_3  and  N1_4 
REMARK    3  A    between atoms: N1_4  and  C4_7 
REMARK    4  A    between atoms: C4_7  and  C5_8 
REMARK    5  A    between atoms: C5_8  and  N2_9 
REMARK    6  A    between atoms: N2_9  and  C6_12 
REMARK    7  A    between atoms: C6_12  and  C7_13 
REMARK    8  A    between atoms: C9_18  and  N4_19 
ROOT
HETATM    1  N2  UNL     1       1.723   3.479  -1.741  1.00  0.00    -0.070 N 
ATOM      2  H21 UNL     1       1.554   3.157  -0.788  1.00  0.00     0.277 HD
ATOM      3  H22 UNL     1       1.922   4.462  -1.561  1.00  0.00     0.277 HD
ENDROOT
BRANCH   1   4
HETATM    4  C5  UNL     1       0.536   3.346  -2.531  1.00  0.00     0.260 C 
BRANCH   4   5
HETATM    5  C4  UNL     1       0.158   4.690  -3.182  1.00  0.00     0.260 C 
BRANCH   5   6
HETATM    6  N1  UNL     1       0.878   4.911  -4.391  1.00  0.00    -0.070 N 
ATOM      7  H12 UNL     1       0.271   4.774  -5.199  1.00  0.00     0.277 HD
ATOM      8  H11 UNL     1       1.550   4.161  -4.550  1.00  0.00     0.277 HD
BRANCH   6   9
HETATM    9  C3  UNL     1       1.521   6.180  -4.460  1.00  0.00     0.259 C 
BRANCH   9  10
HETATM   10  C2  UNL     1       1.163   7.098  -3.378  1.00  0.00    -0.010 C 
HETATM   11  C1  UNL     1       1.917   8.079  -2.946  1.00  0.00     0.008 C 
ENDBRANCH   9  10
ENDBRANCH   6   9
ENDBRANCH   5   6
ENDBRANCH   4   5
ENDBRANCH   1   4
BRANCH   1  12
HETATM   12  C6  UNL     1       2.885   2.823  -2.295  1.00  0.00     0.276 C 
BRANCH  12  13
HETATM   13  C7  UNL     1       3.997   3.821  -2.478  1.00  0.00     0.037 A 
HETATM   14  C8  UNL     1       4.036   5.115  -1.978  1.00  0.00     0.180 A 
HETATM   15  O1  UNL     1       5.165   5.647  -2.351  1.00  0.00    -0.248 OA
HETATM   16  N3  UNL     1       5.874   4.844  -3.045  1.00  0.00    -0.245 N 
HETATM   17  C9  UNL     1       5.186   3.676  -3.157  1.00  0.00     0.129 A 
ATOM     18  H3  UNL     1       6.792   5.042  -3.444  1.00  0.00     0.196 HD
BRANCH  17  19
HETATM   19  N4  UNL     1       5.561   2.610  -3.780  1.00  0.00    -0.384 N 
ATOM     20  H42 UNL     1       5.898   2.545  -4.741  1.00  0.00     0.157 HD
ATOM     21  H41 UNL     1       5.570   1.671  -3.382  1.00  0.00     0.157 HD
ENDBRANCH  17  19
ENDBRANCH  12  13
ENDBRANCH   1  12
TORSDOF 8
ENDMDL
MODEL 5
REMARK VINA RESULT: -5.567661440      2.411      5.846
REMARK  8 active torsions:
REMARK  status: ('A' for Active; 'I' for Inactive)
REMARK    1  A    between atoms: C2_2  and  C3_3 
REMARK    2  A    between atoms: C3_3  and  N1_4 
REMARK    3  A    between atoms: N1_4  and  C4_7 
REMARK    4  A    between atoms: C4_7  and  C5_8 
REMARK    5  A    between atoms: C5_8  and  N2_9 
REMARK    6  A    between atoms: N2_9  and  C6_12 
REMARK    7  A    between atoms: C6_12  and  C7_13 
REMARK    8  A    between atoms: C9_18  and  N4_19 
ROOT
HETATM    1  N2  UNL     1       4.089   4.507  -1.641  1.00  0.00    -0.070 N 
ATOM      2  H21 UNL     1       4.605   4.422  -0.765  1.00  0.00     0.277 HD
ATOM      3  H22 UNL     1       3.786   5.478  -1.571  1.00  0.00     0.277 HD
ENDROOT
BRANCH   1   4
HETATM    4  C5  UNL     1       2.957   3.631  -1.641  1.00  0.00     0.260 C 
BRANCH   4   5
HETATM    5  C4  UNL     1       2.075   3.874  -2.880  1.00  0.00     0.260 C 
BRANCH   5   6
HETATM    6  N1  UNL     1       0.744   3.406  -2.680  1.00  0.00    -0.070 N 
ATOM      7  H12 UNL     1       0.581   3.205  -1.694  1.00  0.00     0.277 HD
ATOM      8  H11 UNL     1       0.633   2.470  -3.069  1.00  0.00     0.277 HD
BRANCH   6   9
HETATM    9  C3  UNL     1      -0.260   4.279  -3.185  1.00  0.00     0.259 C 
BRANCH   9  10
HETATM   10  C2  UNL     1      -1.027   3.734  -4.307  1.00  0.00    -0.010 C 
HETATM   11  C1  UNL     1      -0.590   3.636  -5.538  1.00  0.00     0.008 C 
ENDBRANCH   9  10
ENDBRANCH   6   9
ENDBRANCH   5   6
ENDBRANCH   4   5
ENDBRANCH   1   4
BRANCH   1  12
HETATM   12  C6  UNL     1       4.977   4.336  -2.767  1.00  0.00     0.276 C 
BRANCH  12  13
HETATM   13  C7  UNL     1       5.346   5.679  -3.336  1.00  0.00     0.037 A 
HETATM   14  C8  UNL     1       4.666   6.874  -3.143  1.00  0.00     0.180 A 
HETATM   15  O1  UNL     1       5.305   7.801  -3.797  1.00  0.00    -0.248 OA
HETATM   16  N3  UNL     1       6.334   7.347  -4.402  1.00  0.00    -0.245 N 
HETATM   17  C9  UNL     1       6.409   6.014  -4.147  1.00  0.00     0.129 A 
ATOM     18  H3  UNL     1       6.984   7.888  -4.974  1.00  0.00     0.196 HD
BRANCH  17  19
HETATM   19  N4  UNL     1       7.305   5.189  -4.573  1.00  0.00    -0.384 N 
ATOM     20  H42 UNL     1       8.163   4.913  -4.095  1.00  0.00     0.157 HD
ATOM     21  H41 UNL     1       7.270   4.694  -5.464  1.00  0.00     0.157 HD
ENDBRANCH  17  19
ENDBRANCH  12  13
ENDBRANCH   1  12
TORSDOF 8
ENDMDL
