MODEL 1
REMARK VINA RESULT: -5.215576065      0.000      0.000
REMARK  4 active torsions:
REMARK  status: ('A' for Active; 'I' for Inactive)
REMARK    1  A    between atoms: C2_2  and  S1_3 
REMARK    2  A    between atoms: S1_3  and  C3_4 
REMARK    3  A    between atoms: N1_7  and  N2_8 
REMARK    4  A    between atoms: N2_8  and  O1_10 
ROOT
HETATM    1  C3  UNL     1      49.639  25.009  40.543  1.00  0.00     0.055 C 
HETATM    2  C4  UNL     1      50.546  23.916  41.004  1.00  0.00     0.037 C 
HETATM    3  C5  UNL     1      51.314  23.265  39.874  1.00  0.00     0.145 C 
HETATM    4  N1  UNL     1      51.944  24.248  39.017  1.00  0.00    -0.309 N 
HETATM    5  C6  UNL     1      51.296  25.554  38.850  1.00  0.00     0.145 C 
HETATM    6  C7  UNL     1      49.815  25.302  39.052  1.00  0.00     0.037 C 
ENDROOT
BRANCH   4   7
HETATM    7  N2  UNL     1      53.144  23.962  38.363  1.00  0.00    -0.212 N 
ATOM      8  H2  UNL     1      53.996  23.752  38.882  1.00  0.00     0.215 HD
BRANCH   7   9
HETATM    9  O1  UNL     1      53.128  23.973  37.107  1.00  0.00    -0.275 OA
ATOM     10  H1  UNL     1      53.966  24.037  36.664  1.00  0.00     0.246 HD
ENDBRANCH   7   9
ENDBRANCH   4   7
BRANCH   1  11
HETATM   11  S1  UNL     1      47.901  24.749  40.944  1.00  0.00    -0.137 SA
BRANCH  11  12
HETATM   12  C2  UNL     1      47.278  26.024  42.019  1.00  0.00     0.035 C 
HETATM   13  C1  UNL     1      48.122  26.682  42.799  1.00  0.00     0.018 C 
ENDBRANCH  11  12
ENDBRANCH   1  11
TORSDOF 4
ENDMDL
MODEL 2
REMARK VINA RESULT: -5.128575243      0.861      1.751
REMARK  4 active torsions:
REMARK  status: ('A' for Active; 'I' for Inactive)
REMARK    1  A    between atoms: C2_2  and  S1_3 
REMARK    2  A    between atoms: S1_3  and  C3_4 
REMARK    3  A    between atoms: N1_7  and  N2_8 
REMARK    4  A    between atoms: N2_8  and  O1_10 
ROOT
HETATM    1  C3  UNL     1      49.497  24.581  40.374  1.00  0.00     0.055 C 
HETATM    2  C4  UNL     1      49.816  25.356  39.139  1.00  0.00     0.037 C 
HETATM    3  C5  UNL     1      51.303  25.488  38.888  1.00  0.00     0.145 C 
HETATM    4  N1  UNL     1      51.979  24.211  38.988  1.00  0.00    -0.309 N 
HETATM    5  C6  UNL     1      51.445  23.202  39.909  1.00  0.00     0.145 C 
HETATM    6  C7  UNL     1      50.753  23.982  41.010  1.00  0.00     0.037 C 
ENDROOT
BRANCH   4   7
HETATM    7  N2  UNL     1      53.116  23.943  38.223  1.00  0.00    -0.212 N 
ATOM      8  H2  UNL     1      53.956  23.543  38.641  1.00  0.00     0.215 HD
BRANCH   7   9
HETATM    9  O1  UNL     1      53.060  24.216  36.999  1.00  0.00    -0.275 OA
ATOM     10  H1  UNL     1      52.233  24.061  36.557  1.00  0.00     0.246 HD
ENDBRANCH   7   9
ENDBRANCH   4   7
BRANCH   1  11
HETATM   11  S1  UNL     1      48.533  25.493  41.594  1.00  0.00    -0.137 SA
BRANCH  11  12
HETATM   12  C2  UNL     1      47.142  26.316  40.849  1.00  0.00     0.035 C 
HETATM   13  C1  UNL     1      47.026  27.630  40.972  1.00  0.00     0.018 C 
ENDBRANCH  11  12
ENDBRANCH   1  11
TORSDOF 4
ENDMDL
MODEL 3
REMARK VINA RESULT: -5.123402428      0.645      1.650
REMARK  4 active torsions:
REMARK  status: ('A' for Active; 'I' for Inactive)
REMARK    1  A    between atoms: C2_2  and  S1_3 
REMARK    2  A    between atoms: S1_3  and  C3_4 
REMARK    3  A    between atoms: N1_7  and  N2_8 
REMARK    4  A    between atoms: N2_8  and  O1_10 
ROOT
HETATM    1  C3  UNL     1      49.040  24.376  40.217  1.00  0.00     0.055 C 
HETATM    2  C4  UNL     1      49.536  25.235  39.102  1.00  0.00     0.037 C 
HETATM    3  C5  UNL     1      51.030  25.473  39.155  1.00  0.00     0.145 C 
HETATM    4  N1  UNL     1      51.764  24.237  39.337  1.00  0.00    -0.309 N 
HETATM    5  C6  UNL     1      51.134  23.150  40.093  1.00  0.00     0.145 C 
HETATM    6  C7  UNL     1      50.187  23.825  41.066  1.00  0.00     0.037 C 
ENDROOT
BRANCH   4   7
HETATM    7  N2  UNL     1      53.045  24.083  38.802  1.00  0.00    -0.212 N 
ATOM      8  H2  UNL     1      53.868  24.025  39.402  1.00  0.00     0.215 HD
BRANCH   7   9
HETATM    9  O1  UNL     1      53.139  24.018  37.552  1.00  0.00    -0.275 OA
ATOM     10  H1  UNL     1      53.844  23.488  37.198  1.00  0.00     0.246 HD
ENDBRANCH   7   9
ENDBRANCH   4   7
BRANCH   1  11
HETATM   11  S1  UNL     1      47.793  25.160  41.257  1.00  0.00    -0.137 SA
BRANCH  11  12
HETATM   12  C2  UNL     1      48.534  26.146  42.540  1.00  0.00     0.035 C 
HETATM   13  C1  UNL     1      48.439  27.466  42.478  1.00  0.00     0.018 C 
ENDBRANCH  11  12
ENDBRANCH   1  11
TORSDOF 4
ENDMDL
MODEL 4
REMARK VINA RESULT: -5.120674211      2.332      3.343
REMARK  4 active torsions:
REMARK  status: ('A' for Active; 'I' for Inactive)
REMARK    1  A    between atoms: C2_2  and  S1_3 
REMARK    2  A    between atoms: S1_3  and  C3_4 
REMARK    3  A    between atoms: N1_7  and  N2_8 
REMARK    4  A    between atoms: N2_8  and  O1_10 
ROOT
HETATM    1  C3  UNL     1      47.223  25.721  41.806  1.00  0.00     0.055 C 
HETATM    2  C4  UNL     1      47.188  25.670  40.315  1.00  0.00     0.037 C 
HETATM    3  C5  UNL     1      48.533  25.946  39.679  1.00  0.00     0.145 C 
HETATM    4  N1  UNL     1      49.585  25.156  40.284  1.00  0.00    -0.309 N 
HETATM    5  C6  UNL     1      49.468  24.795  41.700  1.00  0.00     0.145 C 
HETATM    6  C7  UNL     1      48.647  25.901  42.336  1.00  0.00     0.037 C 
ENDROOT
BRANCH   4   7
HETATM    7  N2  UNL     1      50.689  24.744  39.534  1.00  0.00    -0.212 N 
ATOM      8  H2  UNL     1      51.047  23.792  39.594  1.00  0.00     0.215 HD
BRANCH   7   9
HETATM    9  O1  UNL     1      51.222  25.598  38.784  1.00  0.00    -0.275 OA
ATOM     10  H1  UNL     1      51.351  26.469  39.141  1.00  0.00     0.246 HD
ENDBRANCH   7   9
ENDBRANCH   4   7
BRANCH   1  11
HETATM   11  S1  UNL     1      46.111  26.940  42.533  1.00  0.00    -0.137 SA
BRANCH  11  12
HETATM   12  C2  UNL     1      45.048  27.672  41.307  1.00  0.00     0.035 C 
HETATM   13  C1  UNL     1      45.233  28.938  40.964  1.00  0.00     0.018 C 
ENDBRANCH  11  12
ENDBRANCH   1  11
TORSDOF 4
ENDMDL
MODEL 5
REMARK VINA RESULT: -5.085675472      3.830      5.161
REMARK  4 active torsions:
REMARK  status: ('A' for Active; 'I' for Inactive)
REMARK    1  A    between atoms: C2_2  and  S1_3 
REMARK    2  A    between atoms: S1_3  and  C3_4 
REMARK    3  A    between atoms: N1_7  and  N2_8 
REMARK    4  A    between atoms: N2_8  and  O1_10 
ROOT
HETATM    1  C3  UNL     1      49.723  24.726  39.901  1.00  0.00     0.055 C 
HETATM    2  C4  UNL     1      48.265  24.899  39.632  1.00  0.00     0.037 C 
HETATM    3  C5  UNL     1      47.530  23.586  39.474  1.00  0.00     0.145 C 
HETATM    4  N1  UNL     1      47.839  22.665  40.548  1.00  0.00    -0.309 N 
HETATM    5  C6  UNL     1      49.165  22.730  41.171  1.00  0.00     0.145 C 
HETATM    6  C7  UNL     1      50.095  23.255  40.094  1.00  0.00     0.037 C 
ENDROOT
BRANCH   4   7
HETATM    7  N2  UNL     1      46.894  21.734  40.984  1.00  0.00    -0.212 N 
ATOM      8  H2  UNL     1      46.602  21.690  41.960  1.00  0.00     0.215 HD
BRANCH   7   9
HETATM    9  O1  UNL     1      46.419  20.954  40.123  1.00  0.00    -0.275 OA
ATOM     10  H1  UNL     1      45.536  21.129  39.819  1.00  0.00     0.246 HD
ENDBRANCH   7   9
ENDBRANCH   4   7
BRANCH   1  11
HETATM   11  S1  UNL     1      50.799  25.505  38.683  1.00  0.00    -0.137 SA
BRANCH  11  12
HETATM   12  C2  UNL     1      52.353  24.650  38.537  1.00  0.00     0.035 C 
HETATM   13  C1  UNL     1      52.699  24.132  37.368  1.00  0.00     0.018 C 
ENDBRANCH  11  12
ENDBRANCH   1  11
TORSDOF 4
ENDMDL
