MODEL 1
REMARK VINA RESULT: -5.064770352      0.000      0.000
REMARK  4 active torsions:
REMARK  status: ('A' for Active; 'I' for Inactive)
REMARK    1  A    between atoms: C2_2  and  C3_3 
REMARK    2  A    between atoms: C3_3  and  C4_4 
REMARK    3  A    between atoms: C5_6  and  N1_7 
REMARK    4  A    between atoms: N1_7  and  O1_8 
ROOT
HETATM    1  N1  UNL     1      48.277  25.423  39.739  1.00  0.00    -0.179 N 
HETATM    2  C6  UNL     1      49.528  25.509  39.092  1.00  0.00     0.206 C 
HETATM    3  N2  UNL     1      50.550  25.594  38.547  1.00  0.00    -0.170 NA
ENDROOT
BRANCH   1   4
HETATM    4  C5  UNL     1      47.811  26.396  40.688  1.00  0.00     0.201 A 
HETATM    5  C4  UNL     1      46.815  26.026  41.744  1.00  0.00     0.089 A 
HETATM    6  S1  UNL     1      48.534  26.175  42.358  1.00  0.00    -0.131 SA
BRANCH   5   7
HETATM    7  C3  UNL     1      45.911  27.102  42.309  1.00  0.00     0.044 C 
BRANCH   7   8
HETATM    8  C2  UNL     1      45.034  27.715  41.313  1.00  0.00    -0.036 C 
HETATM    9  C1  UNL     1      45.167  28.990  40.991  1.00  0.00     0.007 C 
ENDBRANCH   7   8
ENDBRANCH   5   7
ENDBRANCH   1   4
BRANCH   1  10
HETATM   10  O1  UNL     1      47.577  24.421  39.431  1.00  0.00    -0.277 OA
ATOM     11  H1  UNL     1      47.915  23.537  39.516  1.00  0.00     0.245 HD
ENDBRANCH   1  10
TORSDOF 4
ENDMDL
MODEL 2
REMARK VINA RESULT: -5.037141159      1.383      1.778
REMARK  4 active torsions:
REMARK  status: ('A' for Active; 'I' for Inactive)
REMARK    1  A    between atoms: C2_2  and  C3_3 
REMARK    2  A    between atoms: C3_3  and  C4_4 
REMARK    3  A    between atoms: C5_6  and  N1_7 
REMARK    4  A    between atoms: N1_7  and  O1_8 
ROOT
HETATM    1  N1  UNL     1      48.194  25.267  40.120  1.00  0.00    -0.179 N 
HETATM    2  C6  UNL     1      47.936  23.928  40.484  1.00  0.00     0.206 C 
HETATM    3  N2  UNL     1      47.736  22.829  40.800  1.00  0.00    -0.170 NA
ENDROOT
BRANCH   1   4
HETATM    4  C5  UNL     1      47.612  26.394  40.795  1.00  0.00     0.201 A 
HETATM    5  C4  UNL     1      46.860  26.217  42.078  1.00  0.00     0.089 A 
HETATM    6  S1  UNL     1      48.548  26.897  42.290  1.00  0.00    -0.131 SA
BRANCH   5   7
HETATM    7  C3  UNL     1      45.789  27.222  42.444  1.00  0.00     0.044 C 
BRANCH   7   8
HETATM    8  C2  UNL     1      45.065  27.756  41.292  1.00  0.00    -0.036 C 
HETATM    9  C1  UNL     1      45.133  29.042  40.989  1.00  0.00     0.007 C 
ENDBRANCH   7   8
ENDBRANCH   5   7
ENDBRANCH   1   4
BRANCH   1  10
HETATM   10  O1  UNL     1      48.980  25.420  39.146  1.00  0.00    -0.277 OA
ATOM     11  H1  UNL     1      49.076  24.751  38.478  1.00  0.00     0.245 HD
ENDBRANCH   1  10
TORSDOF 4
ENDMDL
MODEL 3
REMARK VINA RESULT: -5.016874947      3.185      5.682
REMARK  4 active torsions:
REMARK  status: ('A' for Active; 'I' for Inactive)
REMARK    1  A    between atoms: C2_2  and  C3_3 
REMARK    2  A    between atoms: C3_3  and  C4_4 
REMARK    3  A    between atoms: C5_6  and  N1_7 
REMARK    4  A    between atoms: N1_7  and  O1_8 
ROOT
HETATM    1  N1  UNL     1      48.644  23.682  40.586  1.00  0.00    -0.179 N 
HETATM    2  C6  UNL     1      48.437  25.004  40.133  1.00  0.00     0.206 C 
HETATM    3  N2  UNL     1      48.276  26.097  39.778  1.00  0.00    -0.170 NA
ENDROOT
BRANCH   1   4
HETATM    4  C5  UNL     1      49.904  23.001  40.479  1.00  0.00     0.201 A 
HETATM    5  C4  UNL     1      51.176  23.765  40.272  1.00  0.00     0.089 A 
HETATM    6  S1  UNL     1      50.938  23.161  41.985  1.00  0.00    -0.131 SA
BRANCH   5   7
HETATM    7  C3  UNL     1      52.338  23.082  39.582  1.00  0.00     0.044 C 
BRANCH   7   8
HETATM    8  C2  UNL     1      53.121  23.972  38.727  1.00  0.00    -0.036 C 
HETATM    9  C1  UNL     1      52.885  24.040  37.428  1.00  0.00     0.007 C 
ENDBRANCH   7   8
ENDBRANCH   5   7
ENDBRANCH   1   4
BRANCH   1  10
HETATM   10  O1  UNL     1      47.637  23.123  41.099  1.00  0.00    -0.277 OA
ATOM     11  H1  UNL     1      47.262  22.337  40.719  1.00  0.00     0.245 HD
ENDBRANCH   1  10
TORSDOF 4
ENDMDL
MODEL 4
REMARK VINA RESULT: -5.007287261      4.190      5.623
REMARK  4 active torsions:
REMARK  status: ('A' for Active; 'I' for Inactive)
REMARK    1  A    between atoms: C2_2  and  C3_3 
REMARK    2  A    between atoms: C3_3  and  C4_4 
REMARK    3  A    between atoms: C5_6  and  N1_7 
REMARK    4  A    between atoms: N1_7  and  O1_8 
ROOT
HETATM    1  N1  UNL     1      48.085  23.216  40.719  1.00  0.00    -0.179 N 
HETATM    2  C6  UNL     1      47.371  21.999  40.681  1.00  0.00     0.206 C 
HETATM    3  N2  UNL     1      46.780  21.001  40.630  1.00  0.00    -0.170 NA
ENDROOT
BRANCH   1   4
HETATM    4  C5  UNL     1      49.401  23.377  40.164  1.00  0.00     0.201 A 
HETATM    5  C4  UNL     1      50.171  24.645  40.368  1.00  0.00     0.089 A 
HETATM    6  S1  UNL     1      50.730  23.254  41.421  1.00  0.00    -0.131 SA
BRANCH   5   7
HETATM    7  C3  UNL     1      51.214  25.041  39.344  1.00  0.00     0.044 C 
BRANCH   7   8
HETATM    8  C2  UNL     1      52.332  24.104  39.250  1.00  0.00    -0.036 C 
HETATM    9  C1  UNL     1      52.925  23.876  38.090  1.00  0.00     0.007 C 
ENDBRANCH   7   8
ENDBRANCH   5   7
ENDBRANCH   1   4
BRANCH   1  10
HETATM   10  O1  UNL     1      47.489  24.175  41.281  1.00  0.00    -0.277 OA
ATOM     11  H1  UNL     1      46.575  24.362  41.102  1.00  0.00     0.245 HD
ENDBRANCH   1  10
TORSDOF 4
ENDMDL
MODEL 5
REMARK VINA RESULT: -4.973583267      4.250      5.172
REMARK  4 active torsions:
REMARK  status: ('A' for Active; 'I' for Inactive)
REMARK    1  A    between atoms: C2_2  and  C3_3 
REMARK    2  A    between atoms: C3_3  and  C4_4 
REMARK    3  A    between atoms: C5_6  and  N1_7 
REMARK    4  A    between atoms: N1_7  and  O1_8 
ROOT
HETATM    1  N1  UNL     1      51.700  22.450  41.479  1.00  0.00    -0.179 N 
HETATM    2  C6  UNL     1      51.246  22.761  42.779  1.00  0.00     0.206 C 
HETATM    3  N2  UNL     1      50.885  23.033  43.847  1.00  0.00    -0.170 NA
ENDROOT
BRANCH   1   4
HETATM    4  C5  UNL     1      51.203  23.095  40.295  1.00  0.00     0.201 A 
HETATM    5  C4  UNL     1      50.715  24.511  40.339  1.00  0.00     0.089 A 
HETATM    6  S1  UNL     1      52.378  24.317  39.596  1.00  0.00    -0.131 SA
BRANCH   5   7
HETATM    7  C3  UNL     1      49.685  24.962  39.325  1.00  0.00     0.044 C 
BRANCH   7   8
HETATM    8  C2  UNL     1      48.320  24.993  39.846  1.00  0.00    -0.036 C 
HETATM    9  C1  UNL     1      47.455  24.045  39.526  1.00  0.00     0.007 C 
ENDBRANCH   7   8
ENDBRANCH   5   7
ENDBRANCH   1   4
BRANCH   1  10
HETATM   10  O1  UNL     1      52.584  21.553  41.415  1.00  0.00    -0.277 OA
ATOM     11  H1  UNL     1      53.474  21.755  41.152  1.00  0.00     0.245 HD
ENDBRANCH   1  10
TORSDOF 4
ENDMDL
