MODEL 1
REMARK VINA RESULT: -6.618608956      0.000      0.000
REMARK  3 active torsions:
REMARK  status: ('A' for Active; 'I' for Inactive)
REMARK    1  A    between atoms: C2_2  and  C3_3 
REMARK    2  A    between atoms: C3_3  and  C4_4 
REMARK    3  A    between atoms: C4_4  and  C5_5 
ROOT
HETATM    1  C5  UNL     1      50.013  23.716  40.753  1.00  0.00     0.297 C 
HETATM    2  O1  UNL     1      49.935  24.380  41.954  1.00  0.00    -0.208 OA
HETATM    3  O2  UNL     1      48.713  24.871  42.100  1.00  0.00    -0.230 OA
HETATM    4  C6  UNL     1      48.637  25.968  41.240  1.00  0.00     0.189 C 
HETATM    5  C7  UNL     1      47.205  26.340  40.850  1.00  0.00     0.040 C 
HETATM    6  C8  UNL     1      47.298  25.195  39.839  1.00  0.00     0.037 C 
HETATM    7  C9  UNL     1      48.804  25.475  39.843  1.00  0.00     0.157 C 
HETATM    8  O3  UNL     1      49.610  24.416  39.661  1.00  0.00    -0.350 OA
ENDROOT
BRANCH   1   9
HETATM    9  C4  UNL     1      51.442  23.250  40.523  1.00  0.00     0.067 C 
BRANCH   9  10
HETATM   10  C3  UNL     1      52.275  24.304  39.839  1.00  0.00     0.031 C 
BRANCH  10  11
HETATM   11  C2  UNL     1      52.989  23.647  38.716  1.00  0.00    -0.037 C 
HETATM   12  C1  UNL     1      52.903  24.049  37.464  1.00  0.00     0.007 C 
ENDBRANCH  10  11
ENDBRANCH   9  10
ENDBRANCH   1   9
TORSDOF 3
ENDMDL
MODEL 2
REMARK VINA RESULT: -6.470480918      1.269      4.921
REMARK  3 active torsions:
REMARK  status: ('A' for Active; 'I' for Inactive)
REMARK    1  A    between atoms: C2_2  and  C3_3 
REMARK    2  A    between atoms: C3_3  and  C4_4 
REMARK    3  A    between atoms: C4_4  and  C5_5 
ROOT
HETATM    1  C5  UNL     1      49.009  25.498  40.753  1.00  0.00     0.297 C 
HETATM    2  O1  UNL     1      48.769  24.673  41.827  1.00  0.00    -0.208 OA
HETATM    3  O2  UNL     1      49.909  24.121  42.214  1.00  0.00    -0.230 OA
HETATM    4  C6  UNL     1      50.209  23.150  41.256  1.00  0.00     0.189 C 
HETATM    5  C7  UNL     1      51.692  22.783  41.202  1.00  0.00     0.040 C 
HETATM    6  C8  UNL     1      51.868  24.058  40.375  1.00  0.00     0.037 C 
HETATM    7  C9  UNL     1      50.414  23.836  39.948  1.00  0.00     0.157 C 
HETATM    8  O3  UNL     1      49.684  24.940  39.716  1.00  0.00    -0.350 OA
ENDROOT
BRANCH   1   9
HETATM    9  C4  UNL     1      47.690  26.044  40.229  1.00  0.00     0.067 C 
BRANCH   9  10
HETATM   10  C3  UNL     1      47.309  27.337  40.903  1.00  0.00     0.031 C 
BRANCH  10  11
HETATM   11  C2  UNL     1      46.101  27.072  41.725  1.00  0.00    -0.037 C 
HETATM   12  C1  UNL     1      46.106  27.061  43.043  1.00  0.00     0.007 C 
ENDBRANCH  10  11
ENDBRANCH   9  10
ENDBRANCH   1   9
TORSDOF 3
ENDMDL
MODEL 3
REMARK VINA RESULT: -6.371311208      1.749      2.931
REMARK  3 active torsions:
REMARK  status: ('A' for Active; 'I' for Inactive)
REMARK    1  A    between atoms: C2_2  and  C3_3 
REMARK    2  A    between atoms: C3_3  and  C4_4 
REMARK    3  A    between atoms: C4_4  and  C5_5 
ROOT
HETATM    1  C5  UNL     1      49.637  24.700  40.837  1.00  0.00     0.297 C 
HETATM    2  O1  UNL     1      48.945  24.893  39.666  1.00  0.00    -0.208 OA
HETATM    3  O2  UNL     1      48.412  26.106  39.671  1.00  0.00    -0.230 OA
HETATM    4  C6  UNL     1      47.333  26.047  40.555  1.00  0.00     0.189 C 
HETATM    5  C7  UNL     1      46.926  27.411  41.115  1.00  0.00     0.040 C 
HETATM    6  C8  UNL     1      48.096  27.241  42.086  1.00  0.00     0.037 C 
HETATM    7  C9  UNL     1      47.863  25.737  41.914  1.00  0.00     0.157 C 
HETATM    8  O3  UNL     1      48.950  24.952  41.981  1.00  0.00    -0.350 OA
ENDROOT
BRANCH   1   9
HETATM    9  C4  UNL     1      50.153  23.271  40.891  1.00  0.00     0.067 C 
BRANCH   9  10
HETATM   10  C3  UNL     1      51.612  23.212  41.262  1.00  0.00     0.031 C 
BRANCH  10  11
HETATM   11  C2  UNL     1      51.794  22.055  42.175  1.00  0.00    -0.037 C 
HETATM   12  C1  UNL     1      51.347  22.029  43.415  1.00  0.00     0.007 C 
ENDBRANCH  10  11
ENDBRANCH   9  10
ENDBRANCH   1   9
TORSDOF 3
ENDMDL
MODEL 4
REMARK VINA RESULT: -6.325756163      1.066      2.029
REMARK  3 active torsions:
REMARK  status: ('A' for Active; 'I' for Inactive)
REMARK    1  A    between atoms: C2_2  and  C3_3 
REMARK    2  A    between atoms: C3_3  and  C4_4 
REMARK    3  A    between atoms: C4_4  and  C5_5 
ROOT
HETATM    1  C5  UNL     1      49.620  24.713  40.872  1.00  0.00     0.297 C 
HETATM    2  O1  UNL     1      48.955  24.906  39.684  1.00  0.00    -0.208 OA
HETATM    3  O2  UNL     1      48.424  26.120  39.677  1.00  0.00    -0.230 OA
HETATM    4  C6  UNL     1      47.325  26.063  40.535  1.00  0.00     0.189 C 
HETATM    5  C7  UNL     1      46.907  27.427  41.085  1.00  0.00     0.040 C 
HETATM    6  C8  UNL     1      48.053  27.256  42.083  1.00  0.00     0.037 C 
HETATM    7  C9  UNL     1      47.822  25.753  41.906  1.00  0.00     0.157 C 
HETATM    8  O3  UNL     1      48.907  24.966  41.999  1.00  0.00    -0.350 OA
ENDROOT
BRANCH   1   9
HETATM    9  C4  UNL     1      50.132  23.283  40.938  1.00  0.00     0.067 C 
BRANCH   9  10
HETATM   10  C3  UNL     1      51.634  23.228  41.047  1.00  0.00     0.031 C 
BRANCH  10  11
HETATM   11  C2  UNL     1      52.174  23.034  39.678  1.00  0.00    -0.037 C 
HETATM   12  C1  UNL     1      52.859  23.954  39.028  1.00  0.00     0.007 C 
ENDBRANCH  10  11
ENDBRANCH   9  10
ENDBRANCH   1   9
TORSDOF 3
ENDMDL
MODEL 5
REMARK VINA RESULT: -6.279131839      1.726      2.378
REMARK  3 active torsions:
REMARK  status: ('A' for Active; 'I' for Inactive)
REMARK    1  A    between atoms: C2_2  and  C3_3 
REMARK    2  A    between atoms: C3_3  and  C4_4 
REMARK    3  A    between atoms: C4_4  and  C5_5 
ROOT
HETATM    1  C5  UNL     1      49.116  24.041  40.962  1.00  0.00     0.297 C 
HETATM    2  O1  UNL     1      49.479  24.712  42.105  1.00  0.00    -0.208 OA
HETATM    3  O2  UNL     1      48.493  25.521  42.465  1.00  0.00    -0.230 OA
HETATM    4  C6  UNL     1      48.527  26.589  41.566  1.00  0.00     0.189 C 
HETATM    5  C7  UNL     1      47.197  27.335  41.453  1.00  0.00     0.040 C 
HETATM    6  C8  UNL     1      46.762  26.200  40.525  1.00  0.00     0.037 C 
HETATM    7  C9  UNL     1      48.252  26.056  40.201  1.00  0.00     0.157 C 
HETATM    8  O3  UNL     1      48.688  24.815  39.931  1.00  0.00    -0.350 OA
ENDROOT
BRANCH   1   9
HETATM    9  C4  UNL     1      50.286  23.199  40.477  1.00  0.00     0.067 C 
BRANCH   9  10
HETATM   10  C3  UNL     1      51.516  23.403  41.323  1.00  0.00     0.031 C 
BRANCH  10  11
HETATM   11  C2  UNL     1      51.779  22.130  42.040  1.00  0.00    -0.037 C 
HETATM   12  C1  UNL     1      51.376  21.891  43.272  1.00  0.00     0.007 C 
ENDBRANCH  10  11
ENDBRANCH   9  10
ENDBRANCH   1   9
TORSDOF 3
ENDMDL
