MODEL 1
REMARK VINA RESULT: -4.920931955      0.000      0.000
REMARK  2 active torsions:
REMARK  status: ('A' for Active; 'I' for Inactive)
REMARK    1  A    between atoms: S1_3  and  C2_4 
REMARK    2  A    between atoms: C2_4  and  C3_5 
ROOT
HETATM    1  N1  UNL     1      52.869  23.803  37.191  1.00  0.00    -0.184 NA
HETATM    2  C1  UNL     1      52.133  24.337  37.927  1.00  0.00     0.133 C 
HETATM    3  S1  UNL     1      51.003  25.120  39.058  1.00  0.00    -0.048 SA
ENDROOT
BRANCH   3   4
HETATM    4  C2  UNL     1      50.510  23.798  40.225  1.00  0.00     0.122 C 
BRANCH   4   5
HETATM    5  C3  UNL     1      49.060  23.955  40.593  1.00  0.00     0.131 C 
HETATM    6  C4  UNL     1      48.413  24.853  39.552  1.00  0.00     0.035 C 
HETATM    7  C5  UNL     1      47.314  25.472  40.426  1.00  0.00     0.029 C 
HETATM    8  C6  UNL     1      48.166  25.713  41.682  1.00  0.00     0.168 C 
HETATM    9  O1  UNL     1      48.859  24.545  41.824  1.00  0.00    -0.385 OA
ENDBRANCH   4   5
ENDBRANCH   3   4
TORSDOF 2
ENDMDL
MODEL 2
REMARK VINA RESULT: -4.907549774      2.335      3.471
REMARK  2 active torsions:
REMARK  status: ('A' for Active; 'I' for Inactive)
REMARK    1  A    between atoms: S1_3  and  C2_4 
REMARK    2  A    between atoms: C2_4  and  C3_5 
ROOT
HETATM    1  N1  UNL     1      50.815  25.570  38.361  1.00  0.00    -0.184 NA
HETATM    2  C1  UNL     1      49.820  25.263  38.893  1.00  0.00     0.133 C 
HETATM    3  S1  UNL     1      48.315  24.765  39.705  1.00  0.00    -0.048 SA
ENDROOT
BRANCH   3   4
HETATM    4  C2  UNL     1      48.681  23.115  40.408  1.00  0.00     0.122 C 
BRANCH   4   5
HETATM    5  C3  UNL     1      50.066  23.104  40.994  1.00  0.00     0.131 C 
HETATM    6  C4  UNL     1      50.847  21.990  40.317  1.00  0.00     0.035 C 
HETATM    7  C5  UNL     1      51.813  21.651  41.460  1.00  0.00     0.029 C 
HETATM    8  C6  UNL     1      50.796  21.713  42.609  1.00  0.00     0.168 C 
HETATM    9  O1  UNL     1      50.094  22.855  42.352  1.00  0.00    -0.385 OA
ENDBRANCH   4   5
ENDBRANCH   3   4
TORSDOF 2
ENDMDL
MODEL 3
REMARK VINA RESULT: -4.793841991      3.244      4.509
REMARK  2 active torsions:
REMARK  status: ('A' for Active; 'I' for Inactive)
REMARK    1  A    between atoms: S1_3  and  C2_4 
REMARK    2  A    between atoms: C2_4  and  C3_5 
ROOT
HETATM    1  N1  UNL     1      48.373  26.208  42.757  1.00  0.00    -0.184 NA
HETATM    2  C1  UNL     1      48.359  25.707  41.700  1.00  0.00     0.133 C 
HETATM    3  S1  UNL     1      48.355  24.919  40.104  1.00  0.00    -0.048 SA
ENDROOT
BRANCH   3   4
HETATM    4  C2  UNL     1      48.789  23.172  40.438  1.00  0.00     0.122 C 
BRANCH   4   5
HETATM    5  C3  UNL     1      50.155  23.094  41.062  1.00  0.00     0.131 C 
HETATM    6  C4  UNL     1      50.932  22.004  40.344  1.00  0.00     0.035 C 
HETATM    7  C5  UNL     1      51.855  21.576  41.492  1.00  0.00     0.029 C 
HETATM    8  C6  UNL     1      50.805  21.595  42.613  1.00  0.00     0.168 C 
HETATM    9  O1  UNL     1      50.137  22.767  42.403  1.00  0.00    -0.385 OA
ENDBRANCH   4   5
ENDBRANCH   3   4
TORSDOF 2
ENDMDL
MODEL 4
REMARK VINA RESULT: -4.694999928      1.857      3.149
REMARK  2 active torsions:
REMARK  status: ('A' for Active; 'I' for Inactive)
REMARK    1  A    between atoms: S1_3  and  C2_4 
REMARK    2  A    between atoms: C2_4  and  C3_5 
ROOT
HETATM    1  N1  UNL     1      52.767  23.776  37.204  1.00  0.00    -0.184 NA
HETATM    2  C1  UNL     1      52.088  24.358  37.959  1.00  0.00     0.133 C 
HETATM    3  S1  UNL     1      51.038  25.216  39.112  1.00  0.00    -0.048 SA
ENDROOT
BRANCH   3   4
HETATM    4  C2  UNL     1      50.163  23.894  40.028  1.00  0.00     0.122 C 
BRANCH   4   5
HETATM    5  C3  UNL     1      51.012  23.419  41.175  1.00  0.00     0.131 C 
HETATM    6  C4  UNL     1      51.701  22.136  40.740  1.00  0.00     0.035 C 
HETATM    7  C5  UNL     1      51.840  21.466  42.113  1.00  0.00     0.029 C 
HETATM    8  C6  UNL     1      50.443  21.813  42.650  1.00  0.00     0.168 C 
HETATM    9  O1  UNL     1      50.293  23.128  42.317  1.00  0.00    -0.385 OA
ENDBRANCH   4   5
ENDBRANCH   3   4
TORSDOF 2
ENDMDL
MODEL 5
REMARK VINA RESULT: -4.688760180      2.726      3.065
REMARK  2 active torsions:
REMARK  status: ('A' for Active; 'I' for Inactive)
REMARK    1  A    between atoms: S1_3  and  C2_4 
REMARK    2  A    between atoms: C2_4  and  C3_5 
ROOT
HETATM    1  N1  UNL     1      51.233  21.690  43.454  1.00  0.00    -0.184 NA
HETATM    2  C1  UNL     1      51.169  21.811  42.292  1.00  0.00     0.133 C 
HETATM    3  S1  UNL     1      51.056  22.023  40.528  1.00  0.00    -0.048 SA
ENDROOT
BRANCH   3   4
HETATM    4  C2  UNL     1      50.600  23.781  40.292  1.00  0.00     0.122 C 
BRANCH   4   5
HETATM    5  C3  UNL     1      49.134  23.970  40.569  1.00  0.00     0.131 C 
HETATM    6  C4  UNL     1      48.590  24.947  39.541  1.00  0.00     0.035 C 
HETATM    7  C5  UNL     1      47.454  25.557  40.372  1.00  0.00     0.029 C 
HETATM    8  C6  UNL     1      48.224  25.698  41.694  1.00  0.00     0.168 C 
HETATM    9  O1  UNL     1      48.867  24.499  41.816  1.00  0.00    -0.385 OA
ENDBRANCH   4   5
ENDBRANCH   3   4
TORSDOF 2
ENDMDL
