MODEL 1
REMARK VINA RESULT: -5.243795997      0.000      0.000
REMARK  2 active torsions:
REMARK  status: ('A' for Active; 'I' for Inactive)
REMARK    1  A    between atoms: C4_5  and  C5_6 
REMARK    2  A    between atoms: C5_6  and  C6_7 
ROOT
HETATM    1  C6  UNL     1      51.312  21.996  41.751  1.00  0.00     0.125 C 
HETATM    2  C7  UNL     1      50.926  22.287  43.153  1.00  0.00     0.059 C 
HETATM    3  N1  UNL     1      50.622  22.533  44.243  1.00  0.00    -0.197 NA
ENDROOT
BRANCH   1   4
HETATM    4  C5  UNL     1      51.513  23.293  41.066  1.00  0.00     0.031 C 
BRANCH   4   5
HETATM    5  C4  UNL     1      50.584  23.572  39.937  1.00  0.00     0.074 C 
HETATM    6  C3  UNL     1      50.518  25.051  39.605  1.00  0.00     0.184 C 
HETATM    7  O1  UNL     1      49.415  25.236  38.794  1.00  0.00    -0.375 OA
HETATM    8  C2  UNL     1      48.284  24.909  39.529  1.00  0.00     0.179 C 
HETATM    9  C1  UNL     1      47.818  25.979  40.447  1.00  0.00     0.051 C 
HETATM   10  S1  UNL     1      48.822  23.403  40.439  1.00  0.00    -0.131 SA
ENDBRANCH   4   5
ENDBRANCH   1   4
TORSDOF 2
ENDMDL
MODEL 2
REMARK VINA RESULT: -5.213328015      3.186      4.544
REMARK  2 active torsions:
REMARK  status: ('A' for Active; 'I' for Inactive)
REMARK    1  A    between atoms: C4_5  and  C5_6 
REMARK    2  A    between atoms: C5_6  and  C6_7 
ROOT
HETATM    1  C6  UNL     1      51.168  25.261  38.271  1.00  0.00     0.125 C 
HETATM    2  C7  UNL     1      52.155  24.360  37.626  1.00  0.00     0.059 C 
HETATM    3  N1  UNL     1      52.925  23.646  37.138  1.00  0.00    -0.197 NA
ENDROOT
BRANCH   1   4
HETATM    4  C5  UNL     1      51.150  24.938  39.716  1.00  0.00     0.031 C 
BRANCH   4   5
HETATM    5  C4  UNL     1      50.500  23.649  40.076  1.00  0.00     0.074 C 
HETATM    6  C3  UNL     1      49.651  23.769  41.328  1.00  0.00     0.184 C 
HETATM    7  O1  UNL     1      49.369  22.485  41.752  1.00  0.00    -0.375 OA
HETATM    8  C2  UNL     1      50.567  21.877  42.100  1.00  0.00     0.179 C 
HETATM    9  C1  UNL     1      51.068  22.238  43.450  1.00  0.00     0.051 C 
HETATM   10  S1  UNL     1      51.704  22.441  40.768  1.00  0.00    -0.131 SA
ENDBRANCH   4   5
ENDBRANCH   1   4
TORSDOF 2
ENDMDL
MODEL 3
REMARK VINA RESULT: -5.201757884      3.118      3.598
REMARK  2 active torsions:
REMARK  status: ('A' for Active; 'I' for Inactive)
REMARK    1  A    between atoms: C4_5  and  C5_6 
REMARK    2  A    between atoms: C5_6  and  C6_7 
ROOT
HETATM    1  C6  UNL     1      52.122  22.889  39.380  1.00  0.00     0.125 C 
HETATM    2  C7  UNL     1      52.566  23.502  38.104  1.00  0.00     0.059 C 
HETATM    3  N1  UNL     1      52.913  23.997  37.117  1.00  0.00    -0.197 NA
ENDROOT
BRANCH   1   4
HETATM    4  C5  UNL     1      51.766  23.991  40.302  1.00  0.00     0.031 C 
BRANCH   4   5
HETATM    5  C4  UNL     1      50.526  23.785  41.098  1.00  0.00     0.074 C 
HETATM    6  C3  UNL     1      49.693  22.632  40.568  1.00  0.00     0.184 C 
HETATM    7  O1  UNL     1      48.444  22.733  41.150  1.00  0.00    -0.375 OA
HETATM    8  C2  UNL     1      47.865  23.917  40.716  1.00  0.00     0.179 C 
HETATM    9  C1  UNL     1      47.256  23.843  39.364  1.00  0.00     0.051 C 
HETATM   10  S1  UNL     1      49.276  25.096  40.775  1.00  0.00    -0.131 SA
ENDBRANCH   4   5
ENDBRANCH   1   4
TORSDOF 2
ENDMDL
MODEL 4
REMARK VINA RESULT: -5.186842980      2.648      3.989
REMARK  2 active torsions:
REMARK  status: ('A' for Active; 'I' for Inactive)
REMARK    1  A    between atoms: C4_5  and  C5_6 
REMARK    2  A    between atoms: C5_6  and  C6_7 
ROOT
HETATM    1  C6  UNL     1      47.579  24.619  39.781  1.00  0.00     0.125 C 
HETATM    2  C7  UNL     1      47.129  25.301  41.019  1.00  0.00     0.059 C 
HETATM    3  N1  UNL     1      46.793  25.826  41.995  1.00  0.00    -0.197 NA
ENDROOT
BRANCH   1   4
HETATM    4  C5  UNL     1      48.613  23.633  40.167  1.00  0.00     0.031 C 
BRANCH   4   5
HETATM    5  C4  UNL     1      49.976  24.188  40.388  1.00  0.00     0.074 C 
HETATM    6  C3  UNL     1      50.422  25.078  39.243  1.00  0.00     0.184 C 
HETATM    7  O1  UNL     1      51.783  25.268  39.383  1.00  0.00    -0.375 OA
HETATM    8  C2  UNL     1      52.404  24.035  39.237  1.00  0.00     0.179 C 
HETATM    9  C1  UNL     1      52.585  23.603  37.828  1.00  0.00     0.051 C 
HETATM   10  S1  UNL     1      51.283  22.911  40.166  1.00  0.00    -0.131 SA
ENDBRANCH   4   5
ENDBRANCH   1   4
TORSDOF 2
ENDMDL
MODEL 5
REMARK VINA RESULT: -5.149839282      3.978      5.916
REMARK  2 active torsions:
REMARK  status: ('A' for Active; 'I' for Inactive)
REMARK    1  A    between atoms: C4_5  and  C5_6 
REMARK    2  A    between atoms: C5_6  and  C6_7 
ROOT
HETATM    1  C6  UNL     1      45.310  27.604  41.609  1.00  0.00     0.125 C 
HETATM    2  C7  UNL     1      45.077  28.927  40.980  1.00  0.00     0.059 C 
HETATM    3  N1  UNL     1      44.913  29.961  40.483  1.00  0.00    -0.197 NA
ENDROOT
BRANCH   1   4
HETATM    4  C5  UNL     1      46.768  27.348  41.578  1.00  0.00     0.031 C 
BRANCH   4   5
HETATM    5  C4  UNL     1      47.171  25.926  41.746  1.00  0.00     0.074 C 
HETATM    6  C3  UNL     1      48.583  25.794  42.285  1.00  0.00     0.184 C 
HETATM    7  O1  UNL     1      48.969  24.480  42.095  1.00  0.00    -0.375 OA
HETATM    8  C2  UNL     1      49.005  24.238  40.730  1.00  0.00     0.179 C 
HETATM    9  C1  UNL     1      50.235  24.722  40.053  1.00  0.00     0.051 C 
HETATM   10  S1  UNL     1      47.499  25.109  40.130  1.00  0.00    -0.131 SA
ENDBRANCH   4   5
ENDBRANCH   1   4
TORSDOF 2
ENDMDL
