MODEL 1
REMARK VINA RESULT: -4.955362175      0.000      0.000
REMARK  2 active torsions:
REMARK  status: ('A' for Active; 'I' for Inactive)
REMARK    1  A    between atoms: N1_2  and  C1_4 
REMARK    2  A    between atoms: C1_4  and  C2_5 
ROOT
HETATM    1  C2  UNL     1      50.666  23.190  40.081  1.00  0.00     0.071 C 
HETATM    2  C3  UNL     1      51.168  21.796  40.152  1.00  0.00     0.017 C 
HETATM    3  C4  UNL     1      51.863  21.428  41.423  1.00  0.00     0.002 C 
HETATM    4  C5  UNL     1      51.077  21.653  42.661  1.00  0.00     0.010 C 
HETATM    5  C6  UNL     1      50.915  23.142  42.921  1.00  0.00     0.074 C 
HETATM    6  S1  UNL     1      49.808  23.715  41.595  1.00  0.00    -0.162 SA
ENDROOT
BRANCH   1   7
HETATM    7  C1  UNL     1      51.751  24.204  39.792  1.00  0.00     0.216 C 
BRANCH   7   8
HETATM    8  N1  UNL     1      51.649  24.726  38.442  1.00  0.00    -0.155 N 
HETATM    9  O1  UNL     1      50.815  25.628  38.242  1.00  0.00    -0.536 OA
HETATM   10  O2  UNL     1      52.467  24.195  37.495  1.00  0.00    -0.536 OA
ENDBRANCH   7   8
ENDBRANCH   1   7
TORSDOF 2
ENDMDL
MODEL 2
REMARK VINA RESULT: -4.898747749      3.715      4.550
REMARK  2 active torsions:
REMARK  status: ('A' for Active; 'I' for Inactive)
REMARK    1  A    between atoms: N1_2  and  C1_4 
REMARK    2  A    between atoms: C1_4  and  C2_5 
ROOT
HETATM    1  C2  UNL     1      50.677  22.760  40.665  1.00  0.00     0.071 C 
HETATM    2  C3  UNL     1      49.248  23.128  40.511  1.00  0.00     0.017 C 
HETATM    3  C4  UNL     1      48.983  24.573  40.239  1.00  0.00     0.002 C 
HETATM    4  C5  UNL     1      49.688  25.134  39.061  1.00  0.00     0.010 C 
HETATM    5  C6  UNL     1      51.180  25.231  39.335  1.00  0.00     0.074 C 
HETATM    6  S1  UNL     1      51.742  23.501  39.392  1.00  0.00    -0.162 SA
ENDROOT
BRANCH   1   7
HETATM    7  C1  UNL     1      51.249  23.127  42.016  1.00  0.00     0.216 C 
BRANCH   7   8
HETATM    8  N1  UNL     1      50.844  22.186  43.043  1.00  0.00    -0.155 N 
HETATM    9  O1  UNL     1      50.850  20.978  42.740  1.00  0.00    -0.536 OA
HETATM   10  O2  UNL     1      50.489  22.686  44.256  1.00  0.00    -0.536 OA
ENDBRANCH   7   8
ENDBRANCH   1   7
TORSDOF 2
ENDMDL
MODEL 3
REMARK VINA RESULT: -4.860281392      3.702      4.444
REMARK  2 active torsions:
REMARK  status: ('A' for Active; 'I' for Inactive)
REMARK    1  A    between atoms: N1_2  and  C1_4 
REMARK    2  A    between atoms: C1_4  and  C2_5 
ROOT
HETATM    1  C2  UNL     1      50.696  22.777  40.669  1.00  0.00     0.071 C 
HETATM    2  C3  UNL     1      49.261  23.127  40.533  1.00  0.00     0.017 C 
HETATM    3  C4  UNL     1      48.974  24.566  40.252  1.00  0.00     0.002 C 
HETATM    4  C5  UNL     1      49.655  25.125  39.059  1.00  0.00     0.010 C 
HETATM    5  C6  UNL     1      51.150  25.242  39.310  1.00  0.00     0.074 C 
HETATM    6  S1  UNL     1      51.734  23.519  39.374  1.00  0.00    -0.162 SA
ENDROOT
BRANCH   1   7
HETATM    7  C1  UNL     1      51.284  23.164  42.008  1.00  0.00     0.216 C 
BRANCH   7   8
HETATM    8  N1  UNL     1      50.850  22.266  43.062  1.00  0.00    -0.155 N 
HETATM    9  O1  UNL     1      50.519  22.780  44.146  1.00  0.00    -0.536 OA
HETATM   10  O2  UNL     1      50.835  20.934  42.792  1.00  0.00    -0.536 OA
ENDBRANCH   7   8
ENDBRANCH   1   7
TORSDOF 2
ENDMDL
MODEL 4
REMARK VINA RESULT: -4.820155016      3.063      3.824
REMARK  2 active torsions:
REMARK  status: ('A' for Active; 'I' for Inactive)
REMARK    1  A    between atoms: N1_2  and  C1_4 
REMARK    2  A    between atoms: C1_4  and  C2_5 
ROOT
HETATM    1  C2  UNL     1      50.102  23.907  40.920  1.00  0.00     0.071 C 
HETATM    2  C3  UNL     1      51.339  23.161  41.256  1.00  0.00     0.017 C 
HETATM    3  C4  UNL     1      52.179  22.751  40.090  1.00  0.00     0.002 C 
HETATM    4  C5  UNL     1      52.588  23.854  39.186  1.00  0.00     0.010 C 
HETATM    5  C6  UNL     1      51.386  24.382  38.419  1.00  0.00     0.074 C 
HETATM    6  S1  UNL     1      50.372  25.211  39.683  1.00  0.00    -0.162 SA
ENDROOT
BRANCH   1   7
HETATM    7  C1  UNL     1      48.984  23.020  40.417  1.00  0.00     0.216 C 
BRANCH   7   8
HETATM    8  N1  UNL     1      47.722  23.733  40.354  1.00  0.00    -0.155 N 
HETATM    9  O1  UNL     1      47.054  23.613  39.311  1.00  0.00    -0.536 OA
HETATM   10  O2  UNL     1      47.362  24.478  41.433  1.00  0.00    -0.536 OA
ENDBRANCH   7   8
ENDBRANCH   1   7
TORSDOF 2
ENDMDL
MODEL 5
REMARK VINA RESULT: -4.771409315      2.657      3.380
REMARK  2 active torsions:
REMARK  status: ('A' for Active; 'I' for Inactive)
REMARK    1  A    between atoms: N1_2  and  C1_4 
REMARK    2  A    between atoms: C1_4  and  C2_5 
ROOT
HETATM    1  C2  UNL     1      50.116  23.983  41.286  1.00  0.00     0.071 C 
HETATM    2  C3  UNL     1      50.410  23.194  42.507  1.00  0.00     0.017 C 
HETATM    3  C4  UNL     1      50.812  21.774  42.274  1.00  0.00     0.002 C 
HETATM    4  C5  UNL     1      51.970  21.586  41.366  1.00  0.00     0.010 C 
HETATM    5  C6  UNL     1      51.587  21.945  39.939  1.00  0.00     0.074 C 
HETATM    6  S1  UNL     1      51.353  23.750  39.975  1.00  0.00    -0.162 SA
ENDROOT
BRANCH   1   7
HETATM    7  C1  UNL     1      48.756  23.687  40.693  1.00  0.00     0.216 C 
BRANCH   7   8
HETATM    8  N1  UNL     1      47.884  24.845  40.750  1.00  0.00    -0.155 N 
HETATM    9  O1  UNL     1      47.079  24.904  41.697  1.00  0.00    -0.536 OA
HETATM   10  O2  UNL     1      48.008  25.779  39.769  1.00  0.00    -0.536 OA
ENDBRANCH   7   8
ENDBRANCH   1   7
TORSDOF 2
ENDMDL
