MODEL 1
REMARK VINA RESULT: -5.985821368      0.000      0.000
REMARK  2 active torsions:
REMARK  status: ('A' for Active; 'I' for Inactive)
REMARK    1  A    between atoms: C1_4  and  C2_5 
REMARK    2  A    between atoms: C2_5  and  C3_6 
ROOT
HETATM    1  C3  UNL     1      47.346  25.493  41.325  1.00  0.00    -0.001 C 
HETATM    2  C4  UNL     1      48.663  25.521  42.067  1.00  0.00     0.040 C 
HETATM    3  C5  UNL     1      49.497  24.537  41.238  1.00  0.00     0.161 C 
HETATM    4  C6  UNL     1      49.193  25.100  39.840  1.00  0.00     0.042 C 
HETATM    5  C7  UNL     1      47.660  25.050  39.907  1.00  0.00     0.019 C 
HETATM    6  C8  UNL     1      47.303  23.572  39.829  1.00  0.00     0.215 C 
HETATM    7  O1  UNL     1      48.490  22.872  40.103  1.00  0.00    -0.240 OA
HETATM    8  O2  UNL     1      48.934  23.276  41.276  1.00  0.00    -0.236 OA
ENDROOT
BRANCH   1   9
HETATM    9  C2  UNL     1      46.760  26.890  41.233  1.00  0.00     0.049 C 
BRANCH   9  10
HETATM   10  C1  UNL     1      45.321  26.906  41.557  1.00  0.00     0.053 C 
HETATM   11  N1  UNL     1      44.648  27.996  41.559  1.00  0.00    -0.411 N 
ATOM     12  H12 UNL     1      45.133  28.863  41.329  1.00  0.00     0.155 HD
ATOM     13  H11 UNL     1      43.653  28.007  41.784  1.00  0.00     0.155 HD
ENDBRANCH   9  10
ENDBRANCH   1   9
TORSDOF 2
ENDMDL
MODEL 2
REMARK VINA RESULT: -5.852918693      3.377      4.514
REMARK  2 active torsions:
REMARK  status: ('A' for Active; 'I' for Inactive)
REMARK    1  A    between atoms: C1_4  and  C2_5 
REMARK    2  A    between atoms: C2_5  and  C3_6 
ROOT
HETATM    1  C3  UNL     1      50.090  25.216  39.733  1.00  0.00    -0.001 C 
HETATM    2  C4  UNL     1      50.559  24.036  40.554  1.00  0.00     0.040 C 
HETATM    3  C5  UNL     1      49.247  23.584  41.208  1.00  0.00     0.161 C 
HETATM    4  C6  UNL     1      48.360  23.564  39.953  1.00  0.00     0.042 C 
HETATM    5  C7  UNL     1      48.608  25.003  39.479  1.00  0.00     0.019 C 
HETATM    6  C8  UNL     1      47.870  25.887  40.477  1.00  0.00     0.215 C 
HETATM    7  O1  UNL     1      47.599  25.071  41.589  1.00  0.00    -0.240 OA
HETATM    8  O2  UNL     1      48.744  24.583  42.019  1.00  0.00    -0.236 OA
ENDROOT
BRANCH   1   9
HETATM    9  C2  UNL     1      50.774  25.224  38.378  1.00  0.00     0.049 C 
BRANCH   9  10
HETATM   10  C1  UNL     1      51.981  24.375  38.367  1.00  0.00     0.053 C 
HETATM   11  N1  UNL     1      52.564  24.057  37.271  1.00  0.00    -0.411 N 
ATOM     12  H12 UNL     1      52.172  24.406  36.397  1.00  0.00     0.155 HD
ATOM     13  H11 UNL     1      53.398  23.470  37.263  1.00  0.00     0.155 HD
ENDBRANCH   9  10
ENDBRANCH   1   9
TORSDOF 2
ENDMDL
MODEL 3
REMARK VINA RESULT: -5.838429022      3.470      4.748
REMARK  2 active torsions:
REMARK  status: ('A' for Active; 'I' for Inactive)
REMARK    1  A    between atoms: C1_4  and  C2_5 
REMARK    2  A    between atoms: C2_5  and  C3_6 
ROOT
HETATM    1  C3  UNL     1      49.802  23.739  41.201  1.00  0.00    -0.001 C 
HETATM    2  C4  UNL     1      48.859  22.798  40.486  1.00  0.00     0.040 C 
HETATM    3  C5  UNL     1      47.718  23.748  40.101  1.00  0.00     0.161 C 
HETATM    4  C6  UNL     1      48.559  24.880  39.490  1.00  0.00     0.042 C 
HETATM    5  C7  UNL     1      49.495  25.133  40.680  1.00  0.00     0.019 C 
HETATM    6  C8  UNL     1      48.628  25.804  41.737  1.00  0.00     0.215 C 
HETATM    7  O1  UNL     1      47.296  25.577  41.347  1.00  0.00    -0.240 OA
HETATM    8  O2  UNL     1      47.128  24.275  41.234  1.00  0.00    -0.236 OA
ENDROOT
BRANCH   1   9
HETATM    9  C2  UNL     1      51.240  23.434  40.825  1.00  0.00     0.049 C 
BRANCH   9  10
HETATM   10  C1  UNL     1      51.499  21.983  40.774  1.00  0.00     0.053 C 
HETATM   11  N1  UNL     1      52.082  21.372  41.737  1.00  0.00    -0.411 N 
ATOM     12  H12 UNL     1      52.367  21.917  42.551  1.00  0.00     0.155 HD
ATOM     13  H11 UNL     1      52.262  20.369  41.702  1.00  0.00     0.155 HD
ENDBRANCH   9  10
ENDBRANCH   1   9
TORSDOF 2
ENDMDL
MODEL 4
REMARK VINA RESULT: -5.654553959      3.538      4.866
REMARK  2 active torsions:
REMARK  status: ('A' for Active; 'I' for Inactive)
REMARK    1  A    between atoms: C1_4  and  C2_5 
REMARK    2  A    between atoms: C2_5  and  C3_6 
ROOT
HETATM    1  C3  UNL     1      50.518  24.225  39.456  1.00  0.00    -0.001 C 
HETATM    2  C4  UNL     1      49.743  25.391  38.886  1.00  0.00     0.040 C 
HETATM    3  C5  UNL     1      48.462  25.342  39.730  1.00  0.00     0.161 C 
HETATM    4  C6  UNL     1      49.108  25.232  41.120  1.00  0.00     0.042 C 
HETATM    5  C7  UNL     1      49.989  24.001  40.862  1.00  0.00     0.019 C 
HETATM    6  C8  UNL     1      49.022  22.827  40.775  1.00  0.00     0.215 C 
HETATM    7  O1  UNL     1      47.747  23.389  40.593  1.00  0.00    -0.240 OA
HETATM    8  O2  UNL     1      47.793  24.152  39.520  1.00  0.00    -0.236 OA
ENDROOT
BRANCH   1   9
HETATM    9  C2  UNL     1      51.988  24.581  39.589  1.00  0.00     0.049 C 
BRANCH   9  10
HETATM   10  C1  UNL     1      52.838  23.736  38.729  1.00  0.00     0.053 C 
HETATM   11  N1  UNL     1      52.764  23.792  37.452  1.00  0.00    -0.411 N 
ATOM     12  H12 UNL     1      52.096  24.442  37.035  1.00  0.00     0.155 HD
ATOM     13  H11 UNL     1      53.352  23.208  36.858  1.00  0.00     0.155 HD
ENDBRANCH   9  10
ENDBRANCH   1   9
TORSDOF 2
ENDMDL
MODEL 5
REMARK VINA RESULT: -5.618822895      3.914      5.224
REMARK  2 active torsions:
REMARK  status: ('A' for Active; 'I' for Inactive)
REMARK    1  A    between atoms: C1_4  and  C2_5 
REMARK    2  A    between atoms: C2_5  and  C3_6 
ROOT
HETATM    1  C3  UNL     1      51.657  23.500  40.540  1.00  0.00    -0.001 C 
HETATM    2  C4  UNL     1      51.591  22.290  41.444  1.00  0.00     0.040 C 
HETATM    3  C5  UNL     1      50.131  22.344  41.913  1.00  0.00     0.161 C 
HETATM    4  C6  UNL     1      49.458  22.534  40.545  1.00  0.00     0.042 C 
HETATM    5  C7  UNL     1      50.235  23.774  40.081  1.00  0.00     0.019 C 
HETATM    6  C8  UNL     1      49.718  24.917  40.944  1.00  0.00     0.215 C 
HETATM    7  O1  UNL     1      49.047  24.315  42.023  1.00  0.00    -0.240 OA
HETATM    8  O2  UNL     1      49.896  23.506  42.623  1.00  0.00    -0.236 OA
ENDROOT
BRANCH   1   9
HETATM    9  C2  UNL     1      52.470  23.189  39.297  1.00  0.00     0.049 C 
BRANCH   9  10
HETATM   10  C1  UNL     1      52.254  24.187  38.233  1.00  0.00     0.053 C 
HETATM   11  N1  UNL     1      52.837  24.092  37.097  1.00  0.00    -0.411 N 
ATOM     12  H12 UNL     1      53.462  23.300  36.940  1.00  0.00     0.155 HD
ATOM     13  H11 UNL     1      52.687  24.782  36.361  1.00  0.00     0.155 HD
ENDBRANCH   9  10
ENDBRANCH   1   9
TORSDOF 2
ENDMDL
