MODEL 1
REMARK VINA RESULT: -7.604636652      0.000      0.000
REMARK  3 active torsions:
REMARK  status: ('A' for Active; 'I' for Inactive)
REMARK       I    between atoms: N2_6  and  C4_8 
REMARK    1  A    between atoms: C4_8  and  C5_10 
REMARK    2  A    between atoms: C5_10  and  N3_11 
REMARK    3  A    between atoms: C7_14  and  C8_15 
ROOT
HETATM    1  C1  UNL     1      19.727  -2.867  21.190  1.00  0.00     0.071 C 
HETATM    2  C2  UNL     1      19.454  -2.094  22.429  1.00  0.00     0.045 A 
HETATM    3  N1  UNL     1      20.279  -1.875  23.470  1.00  0.00    -0.194 N 
ATOM      4  H1  UNL     1      21.233  -2.230  23.539  1.00  0.00     0.184 HD
HETATM    5  C3  UNL     1      19.674  -1.131  24.401  1.00  0.00     0.685 A 
HETATM    6  N2  UNL     1      20.187  -0.745  25.517  1.00  0.00    -0.158 N 
ATOM      7  H2  UNL     1      19.621  -0.178  26.147  1.00  0.00     0.187 HD
HETATM    8  C4  UNL     1      21.512  -1.080  25.904  1.00  0.00     0.254 C 
HETATM    9  O1  UNL     1      21.682  -2.008  26.731  1.00  0.00    -0.271 OA
HETATM   10  N4  UNL     1      18.441  -0.873  23.940  1.00  0.00    -0.194 N 
ATOM     11  H4  UNL     1      17.735  -0.324  24.430  1.00  0.00     0.184 HD
HETATM   12  C12 UNL     1      18.274  -1.451  22.727  1.00  0.00     0.045 A 
HETATM   13  C13 UNL     1      17.051  -1.417  21.855  1.00  0.00     0.071 C 
ENDROOT
BRANCH   8  14
HETATM   14  C5  UNL     1      22.682  -0.379  25.371  1.00  0.00     0.238 C 
BRANCH  14  15
HETATM   15  N3  UNL     1      23.721  -1.261  24.893  1.00  0.00    -0.278 N 
HETATM   16  C6  UNL     1      25.116  -1.207  24.687  1.00  0.00     0.240 C 
HETATM   17  O2  UNL     1      25.931  -0.273  24.536  1.00  0.00    -0.272 OA
HETATM   18  C7  UNL     1      25.175  -2.670  24.729  1.00  0.00     0.174 C 
HETATM   19  C11 UNL     1      23.734  -2.594  24.408  1.00  0.00     0.240 C 
HETATM   20  O3  UNL     1      22.876  -3.362  23.919  1.00  0.00    -0.272 OA
BRANCH  18  21
HETATM   21  C8  UNL     1      26.033  -3.326  23.679  1.00  0.00    -0.001 C 
HETATM   22  C9  UNL     1      25.543  -4.755  23.488  1.00  0.00     0.011 C 
HETATM   23  C10 UNL     1      27.488  -3.343  24.014  1.00  0.00     0.011 C 
ENDBRANCH  18  21
ENDBRANCH  14  15
ENDBRANCH   8  14
TORSDOF 3
ENDMDL
MODEL 2
REMARK VINA RESULT: -7.549000448      1.510      2.388
REMARK  3 active torsions:
REMARK  status: ('A' for Active; 'I' for Inactive)
REMARK       I    between atoms: N2_6  and  C4_8 
REMARK    1  A    between atoms: C4_8  and  C5_10 
REMARK    2  A    between atoms: C5_10  and  N3_11 
REMARK    3  A    between atoms: C7_14  and  C8_15 
ROOT
HETATM    1  C1  UNL     1      17.516  -2.852  23.603  1.00  0.00     0.071 C 
HETATM    2  C2  UNL     1      18.815  -2.251  23.202  1.00  0.00     0.045 A 
HETATM    3  N1  UNL     1      19.842  -1.889  23.994  1.00  0.00    -0.194 N 
ATOM      4  H1  UNL     1      19.855  -1.986  25.009  1.00  0.00     0.184 HD
HETATM    5  C3  UNL     1      20.842  -1.383  23.265  1.00  0.00     0.685 A 
HETATM    6  N2  UNL     1      21.965  -0.944  23.717  1.00  0.00    -0.158 N 
ATOM      7  H2  UNL     1      22.651  -0.580  23.056  1.00  0.00     0.187 HD
HETATM    8  C4  UNL     1      22.285  -0.947  25.101  1.00  0.00     0.254 C 
HETATM    9  O1  UNL     1      22.188   0.125  25.744  1.00  0.00    -0.271 OA
HETATM   10  N4  UNL     1      20.439  -1.426  21.986  1.00  0.00    -0.194 N 
ATOM     11  H4  UNL     1      20.989  -1.106  21.188  1.00  0.00     0.184 HD
HETATM   12  C12 UNL     1      19.196  -1.956  21.913  1.00  0.00     0.045 A 
HETATM   13  C13 UNL     1      18.367  -2.187  20.681  1.00  0.00     0.071 C 
ENDROOT
BRANCH   8  14
HETATM   14  C5  UNL     1      22.724  -2.158  25.797  1.00  0.00     0.238 C 
BRANCH  14  15
HETATM   15  N3  UNL     1      23.926  -2.742  25.248  1.00  0.00    -0.278 N 
HETATM   16  C6  UNL     1      24.278  -3.546  24.143  1.00  0.00     0.240 C 
HETATM   17  O2  UNL     1      23.642  -4.323  23.402  1.00  0.00    -0.272 OA
HETATM   18  C7  UNL     1      25.663  -3.079  24.251  1.00  0.00     0.174 C 
HETATM   19  C11 UNL     1      25.288  -2.739  25.640  1.00  0.00     0.240 C 
HETATM   20  O3  UNL     1      25.896  -2.534  26.714  1.00  0.00    -0.272 OA
BRANCH  18  21
HETATM   21  C8  UNL     1      26.728  -4.136  24.113  1.00  0.00    -0.001 C 
HETATM   22  C9  UNL     1      28.049  -3.443  23.808  1.00  0.00     0.011 C 
HETATM   23  C10 UNL     1      26.441  -5.144  23.050  1.00  0.00     0.011 C 
ENDBRANCH  18  21
ENDBRANCH  14  15
ENDBRANCH   8  14
TORSDOF 3
ENDMDL
MODEL 3
REMARK VINA RESULT: -7.495311066      2.222      3.102
REMARK  3 active torsions:
REMARK  status: ('A' for Active; 'I' for Inactive)
REMARK       I    between atoms: N2_6  and  C4_8 
REMARK    1  A    between atoms: C4_8  and  C5_10 
REMARK    2  A    between atoms: C5_10  and  N3_11 
REMARK    3  A    between atoms: C7_14  and  C8_15 
ROOT
HETATM    1  C1  UNL     1      20.666  -4.286  23.376  1.00  0.00     0.071 C 
HETATM    2  C2  UNL     1      21.133  -3.282  24.367  1.00  0.00     0.045 A 
HETATM    3  N1  UNL     1      22.387  -3.070  24.806  1.00  0.00    -0.194 N 
ATOM      4  H1  UNL     1      23.206  -3.596  24.501  1.00  0.00     0.184 HD
HETATM    5  C3  UNL     1      22.411  -2.076  25.699  1.00  0.00     0.685 A 
HETATM    6  N2  UNL     1      23.452  -1.627  26.309  1.00  0.00    -0.158 N 
ATOM      7  H2  UNL     1      23.340  -0.860  26.972  1.00  0.00     0.187 HD
HETATM    8  C4  UNL     1      24.752  -2.158  26.094  1.00  0.00     0.254 C 
HETATM    9  O1  UNL     1      25.225  -2.954  26.940  1.00  0.00    -0.271 OA
HETATM   10  N4  UNL     1      21.145  -1.650  25.828  1.00  0.00    -0.194 N 
ATOM     11  H4  UNL     1      20.841  -0.895  26.443  1.00  0.00     0.184 HD
HETATM   12  C12 UNL     1      20.333  -2.371  25.020  1.00  0.00     0.045 A 
HETATM   13  C13 UNL     1      18.847  -2.230  24.849  1.00  0.00     0.071 C 
ENDROOT
BRANCH   8  14
HETATM   14  C5  UNL     1      25.553  -1.808  24.920  1.00  0.00     0.238 C 
BRANCH  14  15
HETATM   15  N3  UNL     1      26.121  -2.950  24.241  1.00  0.00    -0.278 N 
HETATM   16  C6  UNL     1      27.396  -3.373  23.809  1.00  0.00     0.240 C 
HETATM   17  O2  UNL     1      28.466  -2.779  23.562  1.00  0.00    -0.272 OA
HETATM   18  C7  UNL     1      26.923  -4.760  23.783  1.00  0.00     0.174 C 
HETATM   19  C11 UNL     1      25.579  -4.147  23.708  1.00  0.00     0.240 C 
HETATM   20  O3  UNL     1      24.440  -4.511  23.338  1.00  0.00    -0.272 OA
BRANCH  18  21
HETATM   21  C8  UNL     1      27.326  -5.572  22.579  1.00  0.00    -0.001 C 
HETATM   22  C9  UNL     1      26.594  -6.905  22.638  1.00  0.00     0.011 C 
HETATM   23  C10 UNL     1      28.795  -5.817  22.484  1.00  0.00     0.011 C 
ENDBRANCH  18  21
ENDBRANCH  14  15
ENDBRANCH   8  14
TORSDOF 3
ENDMDL
MODEL 4
REMARK VINA RESULT: -7.437192011      1.474      2.130
REMARK  3 active torsions:
REMARK  status: ('A' for Active; 'I' for Inactive)
REMARK       I    between atoms: N2_6  and  C4_8 
REMARK    1  A    between atoms: C4_8  and  C5_10 
REMARK    2  A    between atoms: C5_10  and  N3_11 
REMARK    3  A    between atoms: C7_14  and  C8_15 
ROOT
HETATM    1  C1  UNL     1      19.538  -1.820  21.389  1.00  0.00     0.071 C 
HETATM    2  C2  UNL     1      19.332  -1.913  22.858  1.00  0.00     0.045 A 
HETATM    3  N1  UNL     1      20.211  -2.314  23.796  1.00  0.00    -0.194 N 
ATOM      4  H1  UNL     1      21.166  -2.616  23.605  1.00  0.00     0.184 HD
HETATM    5  C3  UNL     1      19.658  -2.261  25.012  1.00  0.00     0.685 A 
HETATM    6  N2  UNL     1      20.229  -2.578  26.120  1.00  0.00    -0.158 N 
ATOM      7  H2  UNL     1      19.698  -2.495  26.987  1.00  0.00     0.187 HD
HETATM    8  C4  UNL     1      21.572  -3.038  26.184  1.00  0.00     0.254 C 
HETATM    9  O1  UNL     1      21.782  -4.268  26.312  1.00  0.00    -0.271 OA
HETATM   10  N4  UNL     1      18.403  -1.819  24.840  1.00  0.00    -0.194 N 
ATOM     11  H4  UNL     1      17.725  -1.674  25.588  1.00  0.00     0.184 HD
HETATM   12  C12 UNL     1      18.171  -1.594  23.525  1.00  0.00     0.045 A 
HETATM   13  C13 UNL     1      16.904  -1.097  22.888  1.00  0.00     0.071 C 
ENDROOT
BRANCH   8  14
HETATM   14  C5  UNL     1      22.714  -2.126  26.104  1.00  0.00     0.238 C 
BRANCH  14  15
HETATM   15  N3  UNL     1      23.875  -2.701  25.465  1.00  0.00    -0.278 N 
HETATM   16  C6  UNL     1      24.162  -3.422  24.286  1.00  0.00     0.240 C 
HETATM   17  O2  UNL     1      23.473  -4.115  23.508  1.00  0.00    -0.272 OA
HETATM   18  C7  UNL     1      25.565  -3.011  24.381  1.00  0.00     0.174 C 
HETATM   19  C11 UNL     1      25.249  -2.775  25.806  1.00  0.00     0.240 C 
HETATM   20  O3  UNL     1      25.900  -2.679  26.871  1.00  0.00    -0.272 OA
BRANCH  18  21
HETATM   21  C8  UNL     1      26.587  -4.087  24.119  1.00  0.00    -0.001 C 
HETATM   22  C9  UNL     1      27.902  -3.415  23.751  1.00  0.00     0.011 C 
HETATM   23  C10 UNL     1      26.195  -5.037  23.036  1.00  0.00     0.011 C 
ENDBRANCH  18  21
ENDBRANCH  14  15
ENDBRANCH   8  14
TORSDOF 3
ENDMDL
MODEL 5
REMARK VINA RESULT: -7.328605098      2.855      6.824
REMARK  3 active torsions:
REMARK  status: ('A' for Active; 'I' for Inactive)
REMARK       I    between atoms: N2_6  and  C4_8 
REMARK    1  A    between atoms: C4_8  and  C5_10 
REMARK    2  A    between atoms: C5_10  and  N3_11 
REMARK    3  A    between atoms: C7_14  and  C8_15 
ROOT
HETATM    1  C1  UNL     1      25.192  -6.967  21.916  1.00  0.00     0.071 C 
HETATM    2  C2  UNL     1      26.232  -6.065  22.475  1.00  0.00     0.045 A 
HETATM    3  N1  UNL     1      26.057  -4.934  23.183  1.00  0.00    -0.194 N 
ATOM      4  H1  UNL     1      25.149  -4.540  23.434  1.00  0.00     0.184 HD
HETATM    5  C3  UNL     1      27.236  -4.397  23.513  1.00  0.00     0.685 A 
HETATM    6  N2  UNL     1      27.417  -3.316  24.187  1.00  0.00    -0.158 N 
ATOM      7  H2  UNL     1      28.372  -3.008  24.374  1.00  0.00     0.187 HD
HETATM    8  C4  UNL     1      26.339  -2.535  24.682  1.00  0.00     0.254 C 
HETATM    9  O1  UNL     1      26.016  -1.493  24.065  1.00  0.00    -0.271 OA
HETATM   10  N4  UNL     1      28.177  -5.205  23.001  1.00  0.00    -0.194 N 
ATOM     11  H4  UNL     1      29.183  -5.059  23.085  1.00  0.00     0.184 HD
HETATM   12  C12 UNL     1      27.592  -6.242  22.357  1.00  0.00     0.045 A 
HETATM   13  C13 UNL     1      28.268  -7.377  21.641  1.00  0.00     0.071 C 
ENDROOT
BRANCH   8  14
HETATM   14  C5  UNL     1      25.595  -2.908  25.887  1.00  0.00     0.238 C 
BRANCH  14  15
HETATM   15  N3  UNL     1      24.160  -2.840  25.729  1.00  0.00    -0.278 N 
HETATM   16  C6  UNL     1      23.172  -3.461  24.936  1.00  0.00     0.240 C 
HETATM   17  O2  UNL     1      23.196  -4.072  23.848  1.00  0.00    -0.272 OA
HETATM   18  C7  UNL     1      22.153  -3.085  25.920  1.00  0.00     0.174 C 
HETATM   19  C11 UNL     1      23.139  -2.067  26.339  1.00  0.00     0.240 C 
HETATM   20  O3  UNL     1      23.108  -0.983  26.964  1.00  0.00    -0.272 OA
BRANCH  18  21
HETATM   21  C8  UNL     1      20.865  -2.540  25.360  1.00  0.00    -0.001 C 
HETATM   22  C9  UNL     1      19.975  -2.128  26.525  1.00  0.00     0.011 C 
HETATM   23  C10 UNL     1      20.129  -3.506  24.492  1.00  0.00     0.011 C 
ENDBRANCH  18  21
ENDBRANCH  14  15
ENDBRANCH   8  14
TORSDOF 3
ENDMDL
