MODEL 1
REMARK VINA RESULT: -7.499948720      0.000      0.000
REMARK  3 active torsions:
REMARK  status: ('A' for Active; 'I' for Inactive)
REMARK    1  A    between atoms: C2_2  and  C3_3 
REMARK    2  A    between atoms: C3_3  and  C4_4 
REMARK    3  A    between atoms: C3_3  and  N1_6 
ROOT
HETATM    1  N1  UNL     1      25.724  -3.462  24.610  1.00  0.00     0.103 N 
HETATM    2  C6  UNL     1      25.882  -2.084  24.214  1.00  0.00     0.375 C 
HETATM    3  C7  UNL     1      24.681  -1.293  24.653  1.00  0.00     0.249 C 
HETATM    4  O1  UNL     1      24.716  -0.051  24.800  1.00  0.00    -0.271 OA
HETATM    5  N2  UNL     1      23.505  -2.055  24.890  1.00  0.00    -0.338 N 
HETATM    6  C8  UNL     1      22.576  -1.622  25.916  1.00  0.00     0.186 C 
HETATM    7  C9  UNL     1      21.191  -1.887  25.412  1.00  0.00     0.067 A 
HETATM    8  N3  UNL     1      20.027  -1.222  25.397  1.00  0.00    -0.192 N 
ATOM      9  H3  UNL     1      19.859  -0.292  25.782  1.00  0.00     0.184 HD
HETATM   10  C10 UNL     1      19.107  -2.013  24.775  1.00  0.00     0.678 A 
HETATM   11  N4  UNL     1      17.897  -1.641  24.613  1.00  0.00    -0.230 N 
ATOM     12  H4  UNL     1      17.605  -0.726  24.957  1.00  0.00     0.177 HD
HETATM   13  C11 UNL     1      16.923  -2.497  23.945  1.00  0.00     0.165 C 
HETATM   14  N5  UNL     1      19.699  -3.174  24.401  1.00  0.00    -0.194 N 
ATOM     15  H5  UNL     1      19.252  -3.953  23.917  1.00  0.00     0.184 HD
HETATM   16  C12 UNL     1      20.989  -3.109  24.791  1.00  0.00     0.053 A 
HETATM   17  C13 UNL     1      22.160  -4.012  24.699  1.00  0.00     0.087 C 
HETATM   18  C14 UNL     1      23.306  -3.225  24.074  1.00  0.00     0.121 C 
HETATM   19  C15 UNL     1      24.528  -4.067  24.082  1.00  0.00     0.299 C 
ENDROOT
BRANCH   1  20
HETATM   20  C3  UNL     1      26.864  -4.207  24.054  1.00  0.00     0.223 C 
BRANCH  20  21
HETATM   21  C2  UNL     1      26.437  -5.156  22.994  1.00  0.00     0.031 C 
HETATM   22  C1  UNL     1      27.007  -6.525  23.025  1.00  0.00     0.007 C 
ENDBRANCH  20  21
BRANCH  20  23
HETATM   23  C4  UNL     1      27.993  -3.320  23.695  1.00  0.00     0.031 C 
HETATM   24  C5  UNL     1      29.288  -3.918  23.319  1.00  0.00     0.007 C 
ENDBRANCH  20  23
ENDBRANCH   1  20
TORSDOF 3
ENDMDL
MODEL 2
REMARK VINA RESULT: -7.411655354      2.157      3.725
REMARK  3 active torsions:
REMARK  status: ('A' for Active; 'I' for Inactive)
REMARK    1  A    between atoms: C2_2  and  C3_3 
REMARK    2  A    between atoms: C3_3  and  C4_4 
REMARK    3  A    between atoms: C3_3  and  N1_6 
ROOT
HETATM    1  N1  UNL     1      23.023  -3.080  24.640  1.00  0.00     0.103 N 
HETATM    2  C6  UNL     1      22.520  -3.708  25.837  1.00  0.00     0.375 C 
HETATM    3  C7  UNL     1      21.043  -3.955  25.694  1.00  0.00     0.249 C 
HETATM    4  O1  UNL     1      20.441  -4.813  26.376  1.00  0.00    -0.271 OA
HETATM    5  N2  UNL     1      20.383  -3.147  24.730  1.00  0.00    -0.338 N 
HETATM    6  C8  UNL     1      19.252  -3.692  24.004  1.00  0.00     0.186 C 
HETATM    7  C9  UNL     1      18.249  -2.593  23.839  1.00  0.00     0.067 A 
HETATM    8  N3  UNL     1      16.919  -2.476  23.959  1.00  0.00    -0.192 N 
ATOM      9  H3  UNL     1      16.269  -3.219  24.216  1.00  0.00     0.184 HD
HETATM   10  C10 UNL     1      16.590  -1.183  23.672  1.00  0.00     0.678 A 
HETATM   11  N4  UNL     1      15.383  -0.772  23.703  1.00  0.00    -0.230 N 
ATOM     12  H4  UNL     1      14.639  -1.424  23.949  1.00  0.00     0.177 HD
HETATM   13  C11 UNL     1      15.046   0.614  23.395  1.00  0.00     0.165 C 
HETATM   14  N5  UNL     1      17.719  -0.493  23.373  1.00  0.00    -0.194 N 
ATOM     15  H5  UNL     1      17.775   0.493  23.120  1.00  0.00     0.184 HD
HETATM   16  C12 UNL     1      18.753  -1.355  23.472  1.00  0.00     0.053 A 
HETATM   17  C13 UNL     1      20.219  -1.261  23.283  1.00  0.00     0.087 C 
HETATM   18  C14 UNL     1      20.885  -1.810  24.538  1.00  0.00     0.121 C 
HETATM   19  C15 UNL     1      22.354  -1.842  24.329  1.00  0.00     0.299 C 
ENDROOT
BRANCH   1  20
HETATM   20  C3  UNL     1      24.437  -2.755  24.881  1.00  0.00     0.223 C 
BRANCH  20  21
HETATM   21  C2  UNL     1      25.322  -3.347  23.845  1.00  0.00     0.031 C 
HETATM   22  C1  UNL     1      26.617  -3.920  24.290  1.00  0.00     0.007 C 
ENDBRANCH  20  21
BRANCH  20  23
HETATM   23  C4  UNL     1      24.646  -1.314  25.146  1.00  0.00     0.031 C 
HETATM   24  C5  UNL     1      25.705  -0.594  24.416  1.00  0.00     0.007 C 
ENDBRANCH  20  23
ENDBRANCH   1  20
TORSDOF 3
ENDMDL
MODEL 3
REMARK VINA RESULT: -7.042044549      0.612      1.455
REMARK  3 active torsions:
REMARK  status: ('A' for Active; 'I' for Inactive)
REMARK    1  A    between atoms: C2_2  and  C3_3 
REMARK    2  A    between atoms: C3_3  and  C4_4 
REMARK    3  A    between atoms: C3_3  and  N1_6 
ROOT
HETATM    1  N1  UNL     1      26.051  -3.667  24.154  1.00  0.00     0.103 N 
HETATM    2  C6  UNL     1      26.219  -2.236  24.077  1.00  0.00     0.375 C 
HETATM    3  C7  UNL     1      25.061  -1.555  24.753  1.00  0.00     0.249 C 
HETATM    4  O1  UNL     1      25.133  -0.382  25.179  1.00  0.00    -0.271 OA
HETATM    5  N2  UNL     1      23.882  -2.339  24.874  1.00  0.00    -0.338 N 
HETATM    6  C8  UNL     1      23.019  -2.145  26.023  1.00  0.00     0.186 C 
HETATM    7  C9  UNL     1      21.603  -2.272  25.550  1.00  0.00     0.067 A 
HETATM    8  N3  UNL     1      20.456  -1.610  25.754  1.00  0.00    -0.192 N 
ATOM      9  H3  UNL     1      20.330  -0.792  26.351  1.00  0.00     0.184 HD
HETATM   10  C10 UNL     1      19.486  -2.227  25.020  1.00  0.00     0.678 A 
HETATM   11  N4  UNL     1      18.279  -1.815  25.016  1.00  0.00    -0.230 N 
ATOM     12  H4  UNL     1      18.026  -1.001  25.577  1.00  0.00     0.177 HD
HETATM   13  C11 UNL     1      17.252  -2.484  24.226  1.00  0.00     0.165 C 
HETATM   14  N5  UNL     1      20.031  -3.277  24.357  1.00  0.00    -0.194 N 
ATOM     15  H5  UNL     1      19.541  -3.918  23.733  1.00  0.00     0.184 HD
HETATM   16  C12 UNL     1      21.342  -3.316  24.678  1.00  0.00     0.053 A 
HETATM   17  C13 UNL     1      22.484  -4.186  24.315  1.00  0.00     0.087 C 
HETATM   18  C14 UNL     1      23.614  -3.288  23.824  1.00  0.00     0.121 C 
HETATM   19  C15 UNL     1      24.815  -4.121  23.569  1.00  0.00     0.299 C 
ENDROOT
BRANCH   1  20
HETATM   20  C3  UNL     1      27.143  -4.275  23.378  1.00  0.00     0.223 C 
BRANCH  20  21
HETATM   21  C2  UNL     1      28.475  -3.817  23.852  1.00  0.00     0.031 C 
HETATM   22  C1  UNL     1      29.665  -4.238  23.073  1.00  0.00     0.007 C 
ENDBRANCH  20  21
BRANCH  20  23
HETATM   23  C4  UNL     1      26.987  -5.740  23.242  1.00  0.00     0.031 C 
HETATM   24  C5  UNL     1      26.956  -6.339  21.895  1.00  0.00     0.007 C 
ENDBRANCH  20  23
ENDBRANCH   1  20
TORSDOF 3
ENDMDL
MODEL 4
REMARK VINA RESULT: -7.005924143      2.291      3.953
REMARK  3 active torsions:
REMARK  status: ('A' for Active; 'I' for Inactive)
REMARK    1  A    between atoms: C2_2  and  C3_3 
REMARK    2  A    between atoms: C3_3  and  C4_4 
REMARK    3  A    between atoms: C3_3  and  N1_6 
ROOT
HETATM    1  N1  UNL     1      22.962  -2.757  24.920  1.00  0.00     0.103 N 
HETATM    2  C6  UNL     1      22.421  -3.519  26.019  1.00  0.00     0.375 C 
HETATM    3  C7  UNL     1      20.977  -3.841  25.746  1.00  0.00     0.249 C 
HETATM    4  O1  UNL     1      20.388  -4.791  26.306  1.00  0.00    -0.271 OA
HETATM    5  N2  UNL     1      20.332  -2.990  24.809  1.00  0.00    -0.338 N 
HETATM    6  C8  UNL     1      19.292  -3.535  23.958  1.00  0.00     0.186 C 
HETATM    7  C9  UNL     1      18.232  -2.487  23.813  1.00  0.00     0.067 A 
HETATM    8  N3  UNL     1      16.892  -2.461  23.844  1.00  0.00    -0.192 N 
ATOM      9  H3  UNL     1      16.277  -3.262  23.989  1.00  0.00     0.184 HD
HETATM   10  C10 UNL     1      16.499  -1.170  23.645  1.00  0.00     0.678 A 
HETATM   11  N4  UNL     1      15.268  -0.836  23.622  1.00  0.00    -0.230 N 
ATOM     12  H4  UNL     1      14.553  -1.551  23.755  1.00  0.00     0.177 HD
HETATM   13  C11 UNL     1      14.862   0.549  23.409  1.00  0.00     0.165 C 
HETATM   14  N5  UNL     1      17.597  -0.390  23.490  1.00  0.00    -0.194 N 
ATOM     15  H5  UNL     1      17.605   0.617  23.327  1.00  0.00     0.184 HD
HETATM   16  C12 UNL     1      18.677  -1.194  23.591  1.00  0.00     0.053 A 
HETATM   17  C13 UNL     1      20.143  -0.995  23.519  1.00  0.00     0.087 C 
HETATM   18  C14 UNL     1      20.757  -1.614  24.769  1.00  0.00     0.121 C 
HETATM   19  C15 UNL     1      22.235  -1.539  24.667  1.00  0.00     0.299 C 
ENDROOT
BRANCH   1  20
HETATM   20  C3  UNL     1      24.332  -2.371  25.292  1.00  0.00     0.223 C 
BRANCH  20  21
HETATM   21  C2  UNL     1      24.742  -2.979  26.585  1.00  0.00     0.031 C 
HETATM   22  C1  UNL     1      25.485  -2.123  27.543  1.00  0.00     0.007 C 
ENDBRANCH  20  21
BRANCH  20  23
HETATM   23  C4  UNL     1      25.288  -2.547  24.176  1.00  0.00     0.031 C 
HETATM   24  C5  UNL     1      26.213  -3.696  24.195  1.00  0.00     0.007 C 
ENDBRANCH  20  23
ENDBRANCH   1  20
TORSDOF 3
ENDMDL
MODEL 5
REMARK VINA RESULT: -6.925996611      2.818      4.152
REMARK  3 active torsions:
REMARK  status: ('A' for Active; 'I' for Inactive)
REMARK    1  A    between atoms: C2_2  and  C3_3 
REMARK    2  A    between atoms: C3_3  and  C4_4 
REMARK    3  A    between atoms: C3_3  and  N1_6 
ROOT
HETATM    1  N1  UNL     1      22.920  -2.870  24.728  1.00  0.00     0.103 N 
HETATM    2  C6  UNL     1      22.422  -3.557  25.895  1.00  0.00     0.375 C 
HETATM    3  C7  UNL     1      20.960  -3.859  25.716  1.00  0.00     0.249 C 
HETATM    4  O1  UNL     1      20.381  -4.763  26.358  1.00  0.00    -0.271 OA
HETATM    5  N2  UNL     1      20.283  -3.046  24.767  1.00  0.00    -0.338 N 
HETATM    6  C8  UNL     1      19.188  -3.612  24.003  1.00  0.00     0.186 C 
HETATM    7  C9  UNL     1      18.144  -2.549  23.855  1.00  0.00     0.067 A 
HETATM    8  N3  UNL     1      16.809  -2.489  23.953  1.00  0.00    -0.192 N 
ATOM      9  H3  UNL     1      16.185  -3.266  24.175  1.00  0.00     0.184 HD
HETATM   10  C10 UNL     1      16.433  -1.202  23.703  1.00  0.00     0.678 A 
HETATM   11  N4  UNL     1      15.209  -0.841  23.725  1.00  0.00    -0.230 N 
ATOM     12  H4  UNL     1      14.488  -1.531  23.935  1.00  0.00     0.177 HD
HETATM   13  C11 UNL     1      14.822   0.539  23.456  1.00  0.00     0.165 C 
HETATM   14  N5  UNL     1      17.537  -0.458  23.448  1.00  0.00    -0.194 N 
ATOM     15  H5  UNL     1      17.558   0.538  23.228  1.00  0.00     0.184 HD
HETATM   16  C12 UNL     1      18.603  -1.281  23.538  1.00  0.00     0.053 A 
HETATM   17  C13 UNL     1      20.068  -1.121  23.379  1.00  0.00     0.087 C 
HETATM   18  C14 UNL     1      20.734  -1.685  24.628  1.00  0.00     0.121 C 
HETATM   19  C15 UNL     1      22.206  -1.651  24.445  1.00  0.00     0.299 C 
ENDROOT
BRANCH   1  20
HETATM   20  C3  UNL     1      24.315  -2.497  25.007  1.00  0.00     0.223 C 
BRANCH  20  21
HETATM   21  C2  UNL     1      24.537  -1.037  24.846  1.00  0.00     0.031 C 
HETATM   22  C1  UNL     1      25.843  -0.595  24.297  1.00  0.00     0.007 C 
ENDBRANCH  20  21
BRANCH  20  23
HETATM   23  C4  UNL     1      24.810  -3.078  26.275  1.00  0.00     0.031 C 
HETATM   24  C5  UNL     1      25.248  -2.178  27.357  1.00  0.00     0.007 C 
ENDBRANCH  20  23
ENDBRANCH   1  20
TORSDOF 3
ENDMDL
