MODEL 1
REMARK VINA RESULT: -8.164570705      0.000      0.000
REMARK  9 active torsions:
REMARK  status: ('A' for Active; 'I' for Inactive)
REMARK    1  A    between atoms: C1_4  and  C2_6 
REMARK    2  A    between atoms: C4_8  and  N3_9 
REMARK    3  A    between atoms: N3_9  and  C5_11 
REMARK    4  A    between atoms: C5_11  and  C6_12 
REMARK    5  A    between atoms: C6_12  and  C7_13 
REMARK    6  A    between atoms: C7_13  and  N4_14 
REMARK       I    between atoms: N4_14  and  C8_16 
REMARK    7  A    between atoms: N7_22  and  C10_24 
REMARK    8  A    between atoms: C13_27  and  S1_28 
REMARK    9  A    between atoms: S1_28  and  N8_29 
ROOT
HETATM    1  C2  UNL     1      19.905  30.418  17.148  1.00  0.00     0.123 A 
HETATM    2  C3  UNL     1      21.157  30.018  16.729  1.00  0.00     0.089 A 
HETATM    3  C4  UNL     1      21.785  28.876  17.209  1.00  0.00     0.106 A 
HETATM    4  N6  UNL     1      21.112  28.153  18.120  1.00  0.00    -0.308 N 
ATOM      5  H6  UNL     1      21.525  27.305  18.507  1.00  0.00     0.171 HD
HETATM    6  C9  UNL     1      19.894  28.550  18.520  1.00  0.00     0.231 A 
HETATM    7  N7  UNL     1      19.287  27.817  19.401  1.00  0.00    -0.322 N 
ATOM      8  H7  UNL     1      19.766  26.982  19.740  1.00  0.00     0.169 HD
HETATM    9  O4  UNL     1      19.331  29.626  18.051  1.00  0.00    -0.276 OA
ENDROOT
BRANCH   7  10
HETATM   10  C10 UNL     1      18.009  28.101  19.919  1.00  0.00     0.035 A 
HETATM   11  C11 UNL     1      16.886  27.919  19.154  1.00  0.00     0.031 A 
HETATM   12  C12 UNL     1      15.640  28.197  19.661  1.00  0.00     0.027 A 
HETATM   13  C13 UNL     1      15.510  28.666  20.960  1.00  0.00     0.079 A 
HETATM   14  C14 UNL     1      16.629  28.859  21.758  1.00  0.00     0.027 A 
HETATM   15  C15 UNL     1      17.861  28.568  21.209  1.00  0.00     0.031 A 
BRANCH  13  16
HETATM   16  S1  UNL     1      13.936  29.029  21.635  1.00  0.00     0.256 S 
HETATM   17  O2  UNL     1      12.880  28.100  21.159  1.00  0.00    -0.201 OA
HETATM   18  O3  UNL     1      13.570  30.440  21.237  1.00  0.00    -0.201 OA
BRANCH  16  19
HETATM   19  N8  UNL     1      13.995  28.997  23.358  1.00  0.00    -0.324 N 
ATOM     20  H82 UNL     1      14.786  29.334  23.907  1.00  0.00     0.169 HD
ATOM     21  H81 UNL     1      13.137  28.598  23.738  1.00  0.00     0.169 HD
ENDBRANCH  16  19
ENDBRANCH  13  16
ENDBRANCH   7  10
BRANCH   3  22
HETATM   22  N3  UNL     1      22.957  28.504  16.816  1.00  0.00    -0.376 N 
ATOM     23  H3  UNL     1      23.115  27.544  16.512  1.00  0.00     0.161 HD
BRANCH  22  24
HETATM   24  C5  UNL     1      24.047  29.461  16.809  1.00  0.00     0.123 C 
BRANCH  24  25
HETATM   25  C6  UNL     1      24.113  30.189  18.117  1.00  0.00     0.039 C 
BRANCH  25  26
HETATM   26  C7  UNL     1      25.115  29.624  19.070  1.00  0.00     0.125 C 
BRANCH  26  27
HETATM   27  N4  UNL     1      24.707  28.446  19.771  1.00  0.00    -0.345 N 
HETATM   28  C8  UNL     1      25.555  27.781  20.696  1.00  0.00     0.328 C 
HETATM   29  N5  UNL     1      25.065  26.609  21.355  1.00  0.00    -0.040 NA
HETATM   30  O1  UNL     1      26.720  28.218  20.932  1.00  0.00    -0.251 OA
ATOM     31  H4  UNL     1      23.775  28.069  19.601  1.00  0.00     0.163 HD
ENDBRANCH  26  27
ENDBRANCH  25  26
ENDBRANCH  24  25
ENDBRANCH  22  24
ENDBRANCH   3  22
BRANCH   1  32
HETATM   32  C1  UNL     1      19.223  31.598  16.670  1.00  0.00     0.144 C 
HETATM   33  N1  UNL     1      18.997  32.565  17.466  1.00  0.00    -0.385 N 
ATOM     34  H12 UNL     1      18.515  33.399  17.129  1.00  0.00     0.157 HD
ATOM     35  H11 UNL     1      19.295  32.510  18.439  1.00  0.00     0.157 HD
HETATM   36  N2  UNL     1      18.813  31.674  15.331  1.00  0.00    -0.080 NA
ENDBRANCH   1  32
TORSDOF 9
ENDMDL
MODEL 2
REMARK VINA RESULT: -7.971314115      3.993      9.477
REMARK  9 active torsions:
REMARK  status: ('A' for Active; 'I' for Inactive)
REMARK    1  A    between atoms: C1_4  and  C2_6 
REMARK    2  A    between atoms: C4_8  and  N3_9 
REMARK    3  A    between atoms: N3_9  and  C5_11 
REMARK    4  A    between atoms: C5_11  and  C6_12 
REMARK    5  A    between atoms: C6_12  and  C7_13 
REMARK    6  A    between atoms: C7_13  and  N4_14 
REMARK       I    between atoms: N4_14  and  C8_16 
REMARK    7  A    between atoms: N7_22  and  C10_24 
REMARK    8  A    between atoms: C13_27  and  S1_28 
REMARK    9  A    between atoms: S1_28  and  N8_29 
ROOT
HETATM    1  C2  UNL     1      15.085  31.518  22.823  1.00  0.00     0.123 A 
HETATM    2  C3  UNL     1      13.954  31.405  23.606  1.00  0.00     0.089 A 
HETATM    3  C4  UNL     1      13.348  30.187  23.885  1.00  0.00     0.106 A 
HETATM    4  N6  UNL     1      13.916  29.091  23.351  1.00  0.00    -0.308 N 
ATOM      5  H6  UNL     1      13.513  28.171  23.524  1.00  0.00     0.171 HD
HETATM    6  C9  UNL     1      15.015  29.212  22.591  1.00  0.00     0.231 A 
HETATM    7  N7  UNL     1      15.524  28.125  22.101  1.00  0.00    -0.322 N 
ATOM      8  H7  UNL     1      15.063  27.242  22.318  1.00  0.00     0.169 HD
HETATM    9  O4  UNL     1      15.561  30.369  22.348  1.00  0.00    -0.276 OA
ENDROOT
BRANCH   7  10
HETATM   10  C10 UNL     1      16.672  28.088  21.286  1.00  0.00     0.035 A 
HETATM   11  C11 UNL     1      17.889  27.732  21.806  1.00  0.00     0.031 A 
HETATM   12  C12 UNL     1      19.008  27.697  21.010  1.00  0.00     0.027 A 
HETATM   13  C13 UNL     1      18.911  28.024  19.666  1.00  0.00     0.079 A 
HETATM   14  C14 UNL     1      17.693  28.389  19.111  1.00  0.00     0.027 A 
HETATM   15  C15 UNL     1      16.595  28.411  19.947  1.00  0.00     0.031 A 
BRANCH  13  16
HETATM   16  S1  UNL     1      20.319  27.989  18.625  1.00  0.00     0.256 S 
HETATM   17  O2  UNL     1      20.492  29.244  17.851  1.00  0.00    -0.201 OA
HETATM   18  O3  UNL     1      20.164  26.832  17.665  1.00  0.00    -0.201 OA
BRANCH  16  19
HETATM   19  N8  UNL     1      21.745  27.684  19.548  1.00  0.00    -0.324 N 
ATOM     20  H82 UNL     1      21.740  27.290  20.489  1.00  0.00     0.169 HD
ATOM     21  H81 UNL     1      22.576  27.951  19.020  1.00  0.00     0.169 HD
ENDBRANCH  16  19
ENDBRANCH  13  16
ENDBRANCH   7  10
BRANCH   3  22
HETATM   22  N3  UNL     1      12.291  30.083  24.618  1.00  0.00    -0.376 N 
ATOM     23  H3  UNL     1      12.344  29.638  25.534  1.00  0.00     0.161 HD
BRANCH  22  24
HETATM   24  C5  UNL     1      11.027  30.604  24.131  1.00  0.00     0.123 C 
BRANCH  24  25
HETATM   25  C6  UNL     1      10.173  29.492  23.602  1.00  0.00     0.039 C 
BRANCH  25  26
HETATM   26  C7  UNL     1      10.121  29.433  22.110  1.00  0.00     0.125 C 
BRANCH  26  27
HETATM   27  N4  UNL     1      10.956  28.446  21.499  1.00  0.00    -0.345 N 
HETATM   28  C8  UNL     1      12.076  28.790  20.695  1.00  0.00     0.328 C 
HETATM   29  N5  UNL     1      12.858  27.737  20.124  1.00  0.00    -0.040 NA
HETATM   30  O1  UNL     1      12.373  30.004  20.491  1.00  0.00    -0.251 OA
ATOM     31  H4  UNL     1      10.741  27.460  21.645  1.00  0.00     0.163 HD
ENDBRANCH  26  27
ENDBRANCH  25  26
ENDBRANCH  24  25
ENDBRANCH  22  24
ENDBRANCH   3  22
BRANCH   1  32
HETATM   32  C1  UNL     1      15.741  32.767  22.513  1.00  0.00     0.144 C 
HETATM   33  N1  UNL     1      15.937  33.096  21.300  1.00  0.00    -0.385 N 
ATOM     34  H12 UNL     1      16.400  33.978  21.081  1.00  0.00     0.157 HD
ATOM     35  H11 UNL     1      15.633  32.481  20.545  1.00  0.00     0.157 HD
HETATM   36  N2  UNL     1      16.158  33.612  23.551  1.00  0.00    -0.080 NA
ENDBRANCH   1  32
TORSDOF 9
ENDMDL
MODEL 3
REMARK VINA RESULT: -7.961741946      4.005      9.437
REMARK  9 active torsions:
REMARK  status: ('A' for Active; 'I' for Inactive)
REMARK    1  A    between atoms: C1_4  and  C2_6 
REMARK    2  A    between atoms: C4_8  and  N3_9 
REMARK    3  A    between atoms: N3_9  and  C5_11 
REMARK    4  A    between atoms: C5_11  and  C6_12 
REMARK    5  A    between atoms: C6_12  and  C7_13 
REMARK    6  A    between atoms: C7_13  and  N4_14 
REMARK       I    between atoms: N4_14  and  C8_16 
REMARK    7  A    between atoms: N7_22  and  C10_24 
REMARK    8  A    between atoms: C13_27  and  S1_28 
REMARK    9  A    between atoms: S1_28  and  N8_29 
ROOT
HETATM    1  C2  UNL     1      15.097  31.526  22.858  1.00  0.00     0.123 A 
HETATM    2  C3  UNL     1      13.973  31.419  23.652  1.00  0.00     0.089 A 
HETATM    3  C4  UNL     1      13.348  30.207  23.915  1.00  0.00     0.106 A 
HETATM    4  N6  UNL     1      13.890  29.112  23.354  1.00  0.00    -0.308 N 
ATOM      5  H6  UNL     1      13.472  28.195  23.513  1.00  0.00     0.171 HD
HETATM    6  C9  UNL     1      14.983  29.227  22.584  1.00  0.00     0.231 A 
HETATM    7  N7  UNL     1      15.466  28.140  22.067  1.00  0.00    -0.322 N 
ATOM      8  H7  UNL     1      14.991  27.261  22.273  1.00  0.00     0.169 HD
HETATM    9  O4  UNL     1      15.547  30.378  22.356  1.00  0.00    -0.276 OA
ENDROOT
BRANCH   7  10
HETATM   10  C10 UNL     1      16.605  28.098  21.240  1.00  0.00     0.035 A 
HETATM   11  C11 UNL     1      16.498  28.302  19.889  1.00  0.00     0.031 A 
HETATM   12  C12 UNL     1      17.610  28.261  19.083  1.00  0.00     0.027 A 
HETATM   13  C13 UNL     1      18.856  28.009  19.637  1.00  0.00     0.079 A 
HETATM   14  C14 UNL     1      18.996  27.799  21.001  1.00  0.00     0.027 A 
HETATM   15  C15 UNL     1      17.853  27.849  21.773  1.00  0.00     0.031 A 
BRANCH  13  16
HETATM   16  S1  UNL     1      20.292  27.950  18.637  1.00  0.00     0.256 S 
HETATM   17  O2  UNL     1      20.531  29.217  17.901  1.00  0.00    -0.201 OA
HETATM   18  O3  UNL     1      20.124  26.823  17.643  1.00  0.00    -0.201 OA
BRANCH  16  19
HETATM   19  N8  UNL     1      21.678  27.570  19.591  1.00  0.00    -0.324 N 
ATOM     20  H82 UNL     1      21.688  27.584  20.611  1.00  0.00     0.169 HD
ATOM     21  H81 UNL     1      22.470  27.335  18.993  1.00  0.00     0.169 HD
ENDBRANCH  16  19
ENDBRANCH  13  16
ENDBRANCH   7  10
BRANCH   3  22
HETATM   22  N3  UNL     1      12.298  30.108  24.657  1.00  0.00    -0.376 N 
ATOM     23  H3  UNL     1      12.364  29.696  25.588  1.00  0.00     0.161 HD
BRANCH  22  24
HETATM   24  C5  UNL     1      11.021  30.587  24.160  1.00  0.00     0.123 C 
BRANCH  24  25
HETATM   25  C6  UNL     1      10.190  29.443  23.664  1.00  0.00     0.039 C 
BRANCH  25  26
HETATM   26  C7  UNL     1      10.073  29.386  22.177  1.00  0.00     0.125 C 
BRANCH  26  27
HETATM   27  N4  UNL     1      10.905  28.423  21.525  1.00  0.00    -0.345 N 
HETATM   28  C8  UNL     1      12.014  28.796  20.720  1.00  0.00     0.328 C 
HETATM   29  N5  UNL     1      12.793  27.765  20.107  1.00  0.00    -0.040 NA
HETATM   30  O1  UNL     1      12.304  30.017  20.550  1.00  0.00    -0.251 OA
ATOM     31  H4  UNL     1      10.694  27.432  21.642  1.00  0.00     0.163 HD
ENDBRANCH  26  27
ENDBRANCH  25  26
ENDBRANCH  24  25
ENDBRANCH  22  24
ENDBRANCH   3  22
BRANCH   1  32
HETATM   32  C1  UNL     1      15.773  32.769  22.564  1.00  0.00     0.144 C 
HETATM   33  N1  UNL     1      16.151  33.525  23.514  1.00  0.00    -0.385 N 
ATOM     34  H12 UNL     1      16.628  34.402  23.306  1.00  0.00     0.157 HD
ATOM     35  H11 UNL     1      15.980  33.258  24.483  1.00  0.00     0.157 HD
HETATM   36  N2  UNL     1      16.008  33.136  21.231  1.00  0.00    -0.080 NA
ENDBRANCH   1  32
TORSDOF 9
ENDMDL
MODEL 4
REMARK VINA RESULT: -7.805184360      3.582      6.320
REMARK  9 active torsions:
REMARK  status: ('A' for Active; 'I' for Inactive)
REMARK    1  A    between atoms: C1_4  and  C2_6 
REMARK    2  A    between atoms: C4_8  and  N3_9 
REMARK    3  A    between atoms: N3_9  and  C5_11 
REMARK    4  A    between atoms: C5_11  and  C6_12 
REMARK    5  A    between atoms: C6_12  and  C7_13 
REMARK    6  A    between atoms: C7_13  and  N4_14 
REMARK       I    between atoms: N4_14  and  C8_16 
REMARK    7  A    between atoms: N7_22  and  C10_24 
REMARK    8  A    between atoms: C13_27  and  S1_28 
REMARK    9  A    between atoms: S1_28  and  N8_29 
ROOT
HETATM    1  C2  UNL     1      15.925  29.607  21.638  1.00  0.00     0.123 A 
HETATM    2  C3  UNL     1      17.098  28.920  21.403  1.00  0.00     0.089 A 
HETATM    3  C4  UNL     1      17.233  27.981  20.389  1.00  0.00     0.106 A 
HETATM    4  N6  UNL     1      16.152  27.758  19.623  1.00  0.00    -0.308 N 
ATOM      5  H6  UNL     1      16.195  27.079  18.863  1.00  0.00     0.171 HD
HETATM    6  C9  UNL     1      15.016  28.431  19.859  1.00  0.00     0.231 A 
HETATM    7  N7  UNL     1      14.002  28.179  19.091  1.00  0.00    -0.322 N 
ATOM      8  H7  UNL     1      14.123  27.486  18.353  1.00  0.00     0.169 HD
HETATM    9  O4  UNL     1      14.920  29.307  20.819  1.00  0.00    -0.276 OA
ENDROOT
BRANCH   7  10
HETATM   10  C10 UNL     1      12.744  28.802  19.213  1.00  0.00     0.035 A 
HETATM   11  C11 UNL     1      12.153  28.954  20.440  1.00  0.00     0.031 A 
HETATM   12  C12 UNL     1      10.927  29.562  20.557  1.00  0.00     0.027 A 
HETATM   13  C13 UNL     1      10.276  30.028  19.425  1.00  0.00     0.079 A 
HETATM   14  C14 UNL     1      10.849  29.888  18.170  1.00  0.00     0.027 A 
HETATM   15  C15 UNL     1      12.081  29.272  18.098  1.00  0.00     0.031 A 
BRANCH  13  16
HETATM   16  S1  UNL     1       8.711  30.807  19.541  1.00  0.00     0.256 S 
HETATM   17  O2  UNL     1       8.765  32.253  19.209  1.00  0.00    -0.201 OA
HETATM   18  O3  UNL     1       8.210  30.642  20.957  1.00  0.00    -0.201 OA
BRANCH  16  19
HETATM   19  N8  UNL     1       7.569  30.024  18.513  1.00  0.00    -0.324 N 
ATOM     20  H82 UNL     1       6.709  29.587  18.846  1.00  0.00     0.169 HD
ATOM     21  H81 UNL     1       7.877  30.062  17.542  1.00  0.00     0.169 HD
ENDBRANCH  16  19
ENDBRANCH  13  16
ENDBRANCH   7  10
BRANCH   3  22
HETATM   22  N3  UNL     1      18.332  27.340  20.171  1.00  0.00    -0.376 N 
ATOM     23  H3  UNL     1      18.360  26.590  19.481  1.00  0.00     0.161 HD
BRANCH  22  24
HETATM   24  C5  UNL     1      19.527  27.694  20.914  1.00  0.00     0.123 C 
BRANCH  24  25
HETATM   25  C6  UNL     1      20.723  27.698  20.011  1.00  0.00     0.039 C 
BRANCH  25  26
HETATM   26  C7  UNL     1      20.412  27.311  18.602  1.00  0.00     0.125 C 
BRANCH  26  27
HETATM   27  N4  UNL     1      20.299  28.392  17.672  1.00  0.00    -0.345 N 
HETATM   28  C8  UNL     1      19.119  28.624  16.916  1.00  0.00     0.328 C 
HETATM   29  N5  UNL     1      19.092  29.731  16.010  1.00  0.00    -0.040 NA
HETATM   30  O1  UNL     1      18.112  27.866  17.044  1.00  0.00    -0.251 OA
ATOM     31  H4  UNL     1      21.094  29.019  17.547  1.00  0.00     0.163 HD
ENDBRANCH  26  27
ENDBRANCH  25  26
ENDBRANCH  24  25
ENDBRANCH  22  24
ENDBRANCH   3  22
BRANCH   1  32
HETATM   32  C1  UNL     1      15.749  30.589  22.683  1.00  0.00     0.144 C 
HETATM   33  N1  UNL     1      15.207  30.254  23.784  1.00  0.00    -0.385 N 
ATOM     34  H12 UNL     1      15.083  30.947  24.521  1.00  0.00     0.157 HD
ATOM     35  H11 UNL     1      14.895  29.294  23.932  1.00  0.00     0.157 HD
HETATM   36  N2  UNL     1      16.178  31.909  22.479  1.00  0.00    -0.080 NA
ENDBRANCH   1  32
TORSDOF 9
ENDMDL
MODEL 5
REMARK VINA RESULT: -7.695684187      4.865      8.007
REMARK  9 active torsions:
REMARK  status: ('A' for Active; 'I' for Inactive)
REMARK    1  A    between atoms: C1_4  and  C2_6 
REMARK    2  A    between atoms: C4_8  and  N3_9 
REMARK    3  A    between atoms: N3_9  and  C5_11 
REMARK    4  A    between atoms: C5_11  and  C6_12 
REMARK    5  A    between atoms: C6_12  and  C7_13 
REMARK    6  A    between atoms: C7_13  and  N4_14 
REMARK       I    between atoms: N4_14  and  C8_16 
REMARK    7  A    between atoms: N7_22  and  C10_24 
REMARK    8  A    between atoms: C13_27  and  S1_28 
REMARK    9  A    between atoms: S1_28  and  N8_29 
ROOT
HETATM    1  C2  UNL     1      13.076  29.612  21.745  1.00  0.00     0.123 A 
HETATM    2  C3  UNL     1      14.287  28.958  21.832  1.00  0.00     0.089 A 
HETATM    3  C4  UNL     1      14.919  28.391  20.733  1.00  0.00     0.106 A 
HETATM    4  N6  UNL     1      14.293  28.504  19.549  1.00  0.00    -0.308 N 
ATOM      5  H6  UNL     1      14.712  28.106  18.709  1.00  0.00     0.171 HD
HETATM    6  C9  UNL     1      13.115  29.143  19.475  1.00  0.00     0.231 A 
HETATM    7  N7  UNL     1      12.553  29.224  18.309  1.00  0.00    -0.322 N 
ATOM      8  H7  UNL     1      13.035  28.801  17.516  1.00  0.00     0.169 HD
HETATM    9  O4  UNL     1      12.547  29.665  20.524  1.00  0.00    -0.276 OA
ENDROOT
BRANCH   7  10
HETATM   10  C10 UNL     1      11.319  29.861  18.071  1.00  0.00     0.035 A 
HETATM   11  C11 UNL     1      10.237  29.148  17.626  1.00  0.00     0.031 A 
HETATM   12  C12 UNL     1       9.035  29.770  17.393  1.00  0.00     0.027 A 
HETATM   13  C13 UNL     1       8.909  31.134  17.610  1.00  0.00     0.079 A 
HETATM   14  C14 UNL     1       9.987  31.882  18.060  1.00  0.00     0.027 A 
HETATM   15  C15 UNL     1      11.176  31.217  18.280  1.00  0.00     0.031 A 
BRANCH  13  16
HETATM   16  S1  UNL     1       7.390  31.957  17.323  1.00  0.00     0.256 S 
HETATM   17  O2  UNL     1       7.189  32.308  15.894  1.00  0.00    -0.201 OA
HETATM   18  O3  UNL     1       7.377  33.220  18.151  1.00  0.00    -0.201 OA
BRANCH  16  19
HETATM   19  N8  UNL     1       6.068  30.991  17.866  1.00  0.00    -0.324 N 
ATOM     20  H82 UNL     1       5.251  30.771  17.296  1.00  0.00     0.169 HD
ATOM     21  H81 UNL     1       6.223  30.680  18.825  1.00  0.00     0.169 HD
ENDBRANCH  16  19
ENDBRANCH  13  16
ENDBRANCH   7  10
BRANCH   3  22
HETATM   22  N3  UNL     1      16.053  27.780  20.816  1.00  0.00    -0.376 N 
ATOM     23  H3  UNL     1      16.307  27.074  20.126  1.00  0.00     0.161 HD
BRANCH  22  24
HETATM   24  C5  UNL     1      16.964  28.104  21.899  1.00  0.00     0.123 C 
BRANCH  24  25
HETATM   25  C6  UNL     1      18.185  27.238  21.833  1.00  0.00     0.039 C 
BRANCH  25  26
HETATM   26  C7  UNL     1      19.240  27.758  20.913  1.00  0.00     0.125 C 
BRANCH  26  27
HETATM   27  N4  UNL     1      19.101  27.390  19.538  1.00  0.00    -0.345 N 
HETATM   28  C8  UNL     1      18.510  28.252  18.576  1.00  0.00     0.328 C 
HETATM   29  N5  UNL     1      18.413  27.804  17.221  1.00  0.00    -0.040 NA
HETATM   30  O1  UNL     1      18.079  29.395  18.914  1.00  0.00    -0.251 OA
ATOM     31  H4  UNL     1      19.438  26.476  19.237  1.00  0.00     0.163 HD
ENDBRANCH  26  27
ENDBRANCH  25  26
ENDBRANCH  24  25
ENDBRANCH  22  24
ENDBRANCH   3  22
BRANCH   1  32
HETATM   32  C1  UNL     1      12.390  30.213  22.865  1.00  0.00     0.144 C 
HETATM   33  N1  UNL     1      12.700  29.877  24.053  1.00  0.00    -0.385 N 
ATOM     34  H12 UNL     1      12.216  30.301  24.844  1.00  0.00     0.157 HD
ATOM     35  H11 UNL     1      13.431  29.185  24.216  1.00  0.00     0.157 HD
HETATM   36  N2  UNL     1      11.386  31.165  22.640  1.00  0.00    -0.080 NA
ENDBRANCH   1  32
TORSDOF 9
ENDMDL
