MODEL 1
REMARK VINA RESULT: -9.500067960      0.000      0.000
REMARK  8 active torsions:
REMARK  status: ('A' for Active; 'I' for Inactive)
REMARK    1  A    between atoms: N1_1  and  C1_4 
REMARK    2  A    between atoms: C6_17  and  C7_18 
REMARK    3  A    between atoms: C7_18  and  N5_19 
REMARK    4  A    between atoms: N5_19  and  C8_22 
REMARK    5  A    between atoms: C8_22  and  C9_23 
REMARK    6  A    between atoms: C9_23  and  N6_24 
REMARK    7  A    between atoms: N6_24  and  S1_26 
REMARK    8  A    between atoms: S1_26  and  C10_29 
ROOT
HETATM    1  C1  UNL     1      23.272  29.819  17.739  1.00  0.00     0.677 A 
HETATM    2  N2  UNL     1      22.944  30.708  16.782  1.00  0.00    -0.176 N 
ATOM      3  H2  UNL     1      23.599  31.448  16.530  1.00  0.00     0.186 HD
HETATM    4  C2  UNL     1      21.761  30.624  16.159  1.00  0.00     0.142 A 
HETATM    5  N3  UNL     1      21.384  31.593  15.312  1.00  0.00    -0.293 N 
ATOM      6  H3  UNL     1      22.023  32.348  15.060  1.00  0.00     0.172 HD
HETATM    7  C3  UNL     1      20.120  31.543  14.793  1.00  0.00     0.328 A 
HETATM    8  O1  UNL     1      19.786  32.457  14.000  1.00  0.00    -0.247 OA
HETATM    9  N4  UNL     1      19.265  30.593  15.092  1.00  0.00    -0.275 N 
ATOM     10  H4  UNL     1      18.335  30.603  14.672  1.00  0.00     0.173 HD
HETATM   11  C4  UNL     1      19.603  29.589  15.960  1.00  0.00     0.265 A 
HETATM   12  O2  UNL     1      18.779  28.701  16.210  1.00  0.00    -0.267 OA
HETATM   13  C5  UNL     1      20.888  29.595  16.525  1.00  0.00     0.102 A 
HETATM   14  C6  UNL     1      21.216  28.688  17.500  1.00  0.00     0.071 A 
HETATM   15  N7  UNL     1      22.405  28.855  18.054  1.00  0.00    -0.193 N 
ATOM     16  H7  UNL     1      22.681  28.194  18.780  1.00  0.00     0.184 HD
ENDROOT
BRANCH  14  17
HETATM   17  C7  UNL     1      20.261  27.647  17.815  1.00  0.00     0.290 C 
BRANCH  17  18
HETATM   18  N5  UNL     1      20.509  27.269  19.265  1.00  0.00    -0.068 N 
ATOM     19  H52 UNL     1      20.699  26.276  19.398  1.00  0.00     0.277 HD
ATOM     20  H51 UNL     1      21.396  27.616  19.628  1.00  0.00     0.277 HD
BRANCH  18  21
HETATM   21  C8  UNL     1      19.361  27.738  20.005  1.00  0.00     0.253 C 
BRANCH  21  22
HETATM   22  C9  UNL     1      18.130  28.082  19.335  1.00  0.00     0.159 C 
BRANCH  22  23
HETATM   23  N6  UNL     1      16.948  27.362  19.822  1.00  0.00    -0.314 N 
ATOM     24  H6  UNL     1      16.679  26.403  19.595  1.00  0.00     0.172 HD
BRANCH  23  25
HETATM   25  S1  UNL     1      16.085  28.480  20.875  1.00  0.00     0.258 S 
HETATM   26  O3  UNL     1      16.641  29.863  20.542  1.00  0.00    -0.201 OA
HETATM   27  O4  UNL     1      16.268  28.187  22.290  1.00  0.00    -0.201 OA
BRANCH  25  28
HETATM   28  C10 UNL     1      14.365  28.398  20.422  1.00  0.00     0.079 A 
HETATM   29  C11 UNL     1      14.060  28.332  19.087  1.00  0.00     0.025 A 
HETATM   30  C12 UNL     1      12.754  28.420  18.683  1.00  0.00     0.002 A 
HETATM   31  C13 UNL     1      11.747  28.579  19.641  1.00  0.00     0.000 A 
HETATM   32  C14 UNL     1      12.062  28.643  20.966  1.00  0.00     0.002 A 
HETATM   33  C15 UNL     1      13.405  28.547  21.375  1.00  0.00     0.025 A 
ENDBRANCH  25  28
ENDBRANCH  23  25
ENDBRANCH  22  23
ENDBRANCH  21  22
ENDBRANCH  18  21
ENDBRANCH  17  18
ENDBRANCH  14  17
BRANCH   1  34
HETATM   34  N1  UNL     1      24.452  29.966  18.277  1.00  0.00    -0.234 N 
ATOM     35  H12 UNL     1      24.638  30.463  19.148  1.00  0.00     0.174 HD
ATOM     36  H11 UNL     1      25.228  29.527  17.783  1.00  0.00     0.174 HD
ENDBRANCH   1  34
TORSDOF 8
ENDMDL
MODEL 2
REMARK VINA RESULT: -9.278327462      2.893      7.882
REMARK  8 active torsions:
REMARK  status: ('A' for Active; 'I' for Inactive)
REMARK    1  A    between atoms: N1_1  and  C1_4 
REMARK    2  A    between atoms: C6_17  and  C7_18 
REMARK    3  A    between atoms: C7_18  and  N5_19 
REMARK    4  A    between atoms: N5_19  and  C8_22 
REMARK    5  A    between atoms: C8_22  and  C9_23 
REMARK    6  A    between atoms: C9_23  and  N6_24 
REMARK    7  A    between atoms: N6_24  and  S1_26 
REMARK    8  A    between atoms: S1_26  and  C10_29 
ROOT
HETATM    1  C1  UNL     1      15.242  30.217  23.217  1.00  0.00     0.677 A 
HETATM    2  N2  UNL     1      14.018  29.822  22.820  1.00  0.00    -0.176 N 
ATOM      3  H2  UNL     1      13.205  30.022  23.404  1.00  0.00     0.186 HD
HETATM    4  C2  UNL     1      13.861  29.168  21.662  1.00  0.00     0.142 A 
HETATM    5  N3  UNL     1      12.663  28.654  21.343  1.00  0.00    -0.293 N 
ATOM      6  H3  UNL     1      11.845  28.833  21.924  1.00  0.00     0.172 HD
HETATM    7  C3  UNL     1      12.569  27.883  20.217  1.00  0.00     0.328 A 
HETATM    8  O1  UNL     1      11.440  27.413  19.934  1.00  0.00    -0.247 OA
HETATM    9  N4  UNL     1      13.597  27.625  19.443  1.00  0.00    -0.275 N 
ATOM     10  H4  UNL     1      13.468  27.046  18.612  1.00  0.00     0.173 HD
HETATM   11  C4  UNL     1      14.840  28.121  19.735  1.00  0.00     0.265 A 
HETATM   12  O2  UNL     1      15.785  27.870  18.978  1.00  0.00    -0.267 OA
HETATM   13  C5  UNL     1      14.994  28.914  20.882  1.00  0.00     0.102 A 
HETATM   14  C6  UNL     1      16.244  29.313  21.281  1.00  0.00     0.071 A 
HETATM   15  N7  UNL     1      16.293  29.952  22.439  1.00  0.00    -0.193 N 
ATOM     16  H7  UNL     1      17.208  30.266  22.762  1.00  0.00     0.184 HD
ENDROOT
BRANCH  14  17
HETATM   17  C7  UNL     1      17.364  29.020  20.414  1.00  0.00     0.290 C 
BRANCH  17  18
HETATM   18  N5  UNL     1      18.203  27.984  21.141  1.00  0.00    -0.068 N 
ATOM     19  H52 UNL     1      18.398  28.227  22.112  1.00  0.00     0.277 HD
ATOM     20  H51 UNL     1      17.701  27.115  21.329  1.00  0.00     0.277 HD
BRANCH  18  21
HETATM   21  C8  UNL     1      19.394  27.799  20.345  1.00  0.00     0.253 C 
BRANCH  21  22
HETATM   22  C9  UNL     1      19.338  27.819  18.903  1.00  0.00     0.159 C 
BRANCH  22  23
HETATM   23  N6  UNL     1      20.305  28.723  18.267  1.00  0.00    -0.314 N 
ATOM     24  H6  UNL     1      21.047  29.249  18.730  1.00  0.00     0.172 HD
BRANCH  23  25
HETATM   25  S1  UNL     1      19.928  28.718  16.547  1.00  0.00     0.258 S 
HETATM   26  O3  UNL     1      18.551  28.068  16.433  1.00  0.00    -0.201 OA
HETATM   27  O4  UNL     1      20.903  27.984  15.751  1.00  0.00    -0.201 OA
BRANCH  25  28
HETATM   28  C10 UNL     1      19.835  30.420  16.031  1.00  0.00     0.079 A 
HETATM   29  C11 UNL     1      19.354  31.334  16.933  1.00  0.00     0.025 A 
HETATM   30  C12 UNL     1      19.121  32.624  16.536  1.00  0.00     0.002 A 
HETATM   31  C13 UNL     1      19.375  32.991  15.210  1.00  0.00     0.000 A 
HETATM   32  C14 UNL     1      19.853  32.075  14.321  1.00  0.00     0.002 A 
HETATM   33  C15 UNL     1      20.095  30.751  14.737  1.00  0.00     0.025 A 
ENDBRANCH  25  28
ENDBRANCH  23  25
ENDBRANCH  22  23
ENDBRANCH  21  22
ENDBRANCH  18  21
ENDBRANCH  17  18
ENDBRANCH  14  17
BRANCH   1  34
HETATM   34  N1  UNL     1      15.297  30.865  24.348  1.00  0.00    -0.234 N 
ATOM     35  H12 UNL     1      14.515  31.362  24.774  1.00  0.00     0.174 HD
ATOM     36  H11 UNL     1      16.193  30.843  24.834  1.00  0.00     0.174 HD
ENDBRANCH   1  34
TORSDOF 8
ENDMDL
MODEL 3
REMARK VINA RESULT: -9.212010910      3.034      8.414
REMARK  8 active torsions:
REMARK  status: ('A' for Active; 'I' for Inactive)
REMARK    1  A    between atoms: N1_1  and  C1_4 
REMARK    2  A    between atoms: C6_17  and  C7_18 
REMARK    3  A    between atoms: C7_18  and  N5_19 
REMARK    4  A    between atoms: N5_19  and  C8_22 
REMARK    5  A    between atoms: C8_22  and  C9_23 
REMARK    6  A    between atoms: C9_23  and  N6_24 
REMARK    7  A    between atoms: N6_24  and  S1_26 
REMARK    8  A    between atoms: S1_26  and  C10_29 
ROOT
HETATM    1  C1  UNL     1      13.252  29.644  23.326  1.00  0.00     0.677 A 
HETATM    2  N2  UNL     1      12.248  29.471  22.446  1.00  0.00    -0.176 N 
ATOM      3  H2  UNL     1      11.285  29.648  22.732  1.00  0.00     0.186 HD
HETATM    4  C2  UNL     1      12.506  29.066  21.196  1.00  0.00     0.142 A 
HETATM    5  N3  UNL     1      11.494  28.759  20.371  1.00  0.00    -0.293 N 
ATOM      6  H3  UNL     1      10.525  28.918  20.649  1.00  0.00     0.172 HD
HETATM    7  C3  UNL     1      11.794  28.227  19.147  1.00  0.00     0.328 A 
HETATM    8  O1  UNL     1      10.834  27.948  18.388  1.00  0.00    -0.247 OA
HETATM    9  N4  UNL     1      13.025  28.003  18.751  1.00  0.00    -0.275 N 
ATOM     10  H4  UNL     1      13.192  27.608  17.825  1.00  0.00     0.173 HD
HETATM   11  C4  UNL     1      14.090  28.293  19.564  1.00  0.00     0.265 A 
HETATM   12  O2  UNL     1      15.238  28.082  19.155  1.00  0.00    -0.267 OA
HETATM   13  C5  UNL     1      13.837  28.836  20.832  1.00  0.00     0.102 A 
HETATM   14  C6  UNL     1      14.865  29.010  21.724  1.00  0.00     0.071 A 
HETATM   15  N7  UNL     1      14.506  29.412  22.932  1.00  0.00    -0.193 N 
ATOM     16  H7  UNL     1      15.247  29.555  23.618  1.00  0.00     0.184 HD
ENDROOT
BRANCH  14  17
HETATM   17  C7  UNL     1      16.215  28.759  21.269  1.00  0.00     0.290 C 
BRANCH  17  18
HETATM   18  N5  UNL     1      16.689  27.520  22.009  1.00  0.00    -0.068 N 
ATOM     19  H52 UNL     1      16.794  27.663  23.013  1.00  0.00     0.277 HD
ATOM     20  H51 UNL     1      15.984  26.784  22.060  1.00  0.00     0.277 HD
BRANCH  18  21
HETATM   21  C8  UNL     1      17.909  27.104  21.357  1.00  0.00     0.253 C 
BRANCH  21  22
HETATM   22  C9  UNL     1      18.765  28.060  20.697  1.00  0.00     0.159 C 
BRANCH  22  23
HETATM   23  N6  UNL     1      19.494  27.528  19.539  1.00  0.00    -0.314 N 
ATOM     24  H6  UNL     1      20.157  26.752  19.537  1.00  0.00     0.172 HD
BRANCH  23  25
HETATM   25  S1  UNL     1      18.997  28.496  18.154  1.00  0.00     0.258 S 
HETATM   26  O3  UNL     1      18.163  29.637  18.732  1.00  0.00    -0.201 OA
HETATM   27  O4  UNL     1      18.218  27.742  17.180  1.00  0.00    -0.201 OA
BRANCH  25  28
HETATM   28  C10 UNL     1      20.480  29.149  17.417  1.00  0.00     0.079 A 
HETATM   29  C11 UNL     1      21.681  28.766  17.955  1.00  0.00     0.025 A 
HETATM   30  C12 UNL     1      22.840  29.356  17.524  1.00  0.00     0.002 A 
HETATM   31  C13 UNL     1      22.780  30.348  16.539  1.00  0.00     0.000 A 
HETATM   32  C14 UNL     1      21.581  30.722  16.010  1.00  0.00     0.002 A 
HETATM   33  C15 UNL     1      20.394  30.108  16.454  1.00  0.00     0.025 A 
ENDBRANCH  25  28
ENDBRANCH  23  25
ENDBRANCH  22  23
ENDBRANCH  21  22
ENDBRANCH  18  21
ENDBRANCH  17  18
ENDBRANCH  14  17
BRANCH   1  34
HETATM   34  N1  UNL     1      12.908  30.059  24.514  1.00  0.00    -0.234 N 
ATOM     35  H12 UNL     1      13.342  29.756  25.385  1.00  0.00     0.174 HD
ATOM     36  H11 UNL     1      12.160  30.751  24.548  1.00  0.00     0.174 HD
ENDBRANCH   1  34
TORSDOF 8
ENDMDL
MODEL 4
REMARK VINA RESULT: -9.203732415      1.248      1.698
REMARK  8 active torsions:
REMARK  status: ('A' for Active; 'I' for Inactive)
REMARK    1  A    between atoms: N1_1  and  C1_4 
REMARK    2  A    between atoms: C6_17  and  C7_18 
REMARK    3  A    between atoms: C7_18  and  N5_19 
REMARK    4  A    between atoms: N5_19  and  C8_22 
REMARK    5  A    between atoms: C8_22  and  C9_23 
REMARK    6  A    between atoms: C9_23  and  N6_24 
REMARK    7  A    between atoms: N6_24  and  S1_26 
REMARK    8  A    between atoms: S1_26  and  C10_29 
ROOT
HETATM    1  C1  UNL     1      23.464  29.620  17.016  1.00  0.00     0.677 A 
HETATM    2  N2  UNL     1      23.149  30.842  16.546  1.00  0.00    -0.176 N 
ATOM      3  H2  UNL     1      23.867  31.564  16.487  1.00  0.00     0.186 HD
HETATM    4  C2  UNL     1      21.897  31.114  16.156  1.00  0.00     0.142 A 
HETATM    5  N3  UNL     1      21.559  32.370  15.825  1.00  0.00    -0.293 N 
ATOM      6  H3  UNL     1      22.264  33.105  15.775  1.00  0.00     0.172 HD
HETATM    7  C3  UNL     1      20.246  32.637  15.556  1.00  0.00     0.328 A 
HETATM    8  O1  UNL     1      19.949  33.817  15.246  1.00  0.00    -0.247 OA
HETATM    9  N4  UNL     1      19.307  31.721  15.612  1.00  0.00    -0.275 N 
ATOM     10  H4  UNL     1      18.342  31.976  15.397  1.00  0.00     0.173 HD
HETATM   11  C4  UNL     1      19.604  30.429  15.955  1.00  0.00     0.265 A 
HETATM   12  O2  UNL     1      18.698  29.587  15.985  1.00  0.00    -0.267 OA
HETATM   13  C5  UNL     1      20.937  30.101  16.245  1.00  0.00     0.102 A 
HETATM   14  C6  UNL     1      21.251  28.854  16.724  1.00  0.00     0.071 A 
HETATM   15  N7  UNL     1      22.513  28.686  17.083  1.00  0.00    -0.193 N 
ATOM     16  H7  UNL     1      22.780  27.768  17.439  1.00  0.00     0.184 HD
ENDROOT
BRANCH  14  17
HETATM   17  C7  UNL     1      20.203  27.858  16.777  1.00  0.00     0.290 C 
BRANCH  17  18
HETATM   18  N5  UNL     1      20.423  27.079  18.062  1.00  0.00    -0.068 N 
ATOM     19  H52 UNL     1      20.049  26.131  18.031  1.00  0.00     0.277 HD
ATOM     20  H51 UNL     1      21.398  26.824  18.219  1.00  0.00     0.277 HD
BRANCH  18  21
HETATM   21  C8  UNL     1      19.862  27.884  19.122  1.00  0.00     0.253 C 
BRANCH  21  22
HETATM   22  C9  UNL     1      18.472  28.271  19.108  1.00  0.00     0.159 C 
BRANCH  22  23
HETATM   23  N6  UNL     1      17.559  27.295  19.715  1.00  0.00    -0.314 N 
ATOM     24  H6  UNL     1      17.151  26.476  19.264  1.00  0.00     0.172 HD
BRANCH  23  25
HETATM   25  S1  UNL     1      17.310  27.819  21.379  1.00  0.00     0.258 S 
HETATM   26  O3  UNL     1      18.362  28.898  21.627  1.00  0.00    -0.201 OA
HETATM   27  O4  UNL     1      17.453  26.739  22.345  1.00  0.00    -0.201 OA
BRANCH  25  28
HETATM   28  C10 UNL     1      15.683  28.537  21.459  1.00  0.00     0.079 A 
HETATM   29  C11 UNL     1      15.306  29.135  22.633  1.00  0.00     0.025 A 
HETATM   30  C12 UNL     1      14.016  29.565  22.795  1.00  0.00     0.002 A 
HETATM   31  C13 UNL     1      13.096  29.385  21.757  1.00  0.00     0.000 A 
HETATM   32  C14 UNL     1      13.481  28.789  20.592  1.00  0.00     0.002 A 
HETATM   33  C15 UNL     1      14.810  28.354  20.430  1.00  0.00     0.025 A 
ENDBRANCH  25  28
ENDBRANCH  23  25
ENDBRANCH  22  23
ENDBRANCH  21  22
ENDBRANCH  18  21
ENDBRANCH  17  18
ENDBRANCH  14  17
BRANCH   1  34
HETATM   34  N1  UNL     1      24.711  29.440  17.354  1.00  0.00    -0.234 N 
ATOM     35  H12 UNL     1      25.514  29.691  16.778  1.00  0.00     0.174 HD
ATOM     36  H11 UNL     1      24.871  29.032  18.275  1.00  0.00     0.174 HD
ENDBRANCH   1  34
TORSDOF 8
ENDMDL
MODEL 5
REMARK VINA RESULT: -9.139629577      1.038      1.258
REMARK  8 active torsions:
REMARK  status: ('A' for Active; 'I' for Inactive)
REMARK    1  A    between atoms: N1_1  and  C1_4 
REMARK    2  A    between atoms: C6_17  and  C7_18 
REMARK    3  A    between atoms: C7_18  and  N5_19 
REMARK    4  A    between atoms: N5_19  and  C8_22 
REMARK    5  A    between atoms: C8_22  and  C9_23 
REMARK    6  A    between atoms: C9_23  and  N6_24 
REMARK    7  A    between atoms: N6_24  and  S1_26 
REMARK    8  A    between atoms: S1_26  and  C10_29 
ROOT
HETATM    1  C1  UNL     1      23.192  29.362  18.132  1.00  0.00     0.677 A 
HETATM    2  N2  UNL     1      22.983  30.171  17.077  1.00  0.00    -0.176 N 
ATOM      3  H2  UNL     1      23.731  30.784  16.751  1.00  0.00     0.186 HD
HETATM    4  C2  UNL     1      21.798  30.177  16.453  1.00  0.00     0.142 A 
HETATM    5  N3  UNL     1      21.551  31.085  15.497  1.00  0.00    -0.293 N 
ATOM      6  H3  UNL     1      22.285  31.714  15.170  1.00  0.00     0.172 HD
HETATM    7  C3  UNL     1      20.290  31.146  14.971  1.00  0.00     0.328 A 
HETATM    8  O1  UNL     1      20.079  32.001  14.076  1.00  0.00    -0.247 OA
HETATM    9  N4  UNL     1      19.316  30.359  15.365  1.00  0.00    -0.275 N 
ATOM     10  H4  UNL     1      18.395  30.445  14.935  1.00  0.00     0.173 HD
HETATM   11  C4  UNL     1      19.520  29.423  16.345  1.00  0.00     0.265 A 
HETATM   12  O2  UNL     1      18.585  28.688  16.684  1.00  0.00    -0.267 OA
HETATM   13  C5  UNL     1      20.795  29.322  16.922  1.00  0.00     0.102 A 
HETATM   14  C6  UNL     1      21.001  28.495  17.996  1.00  0.00     0.071 A 
HETATM   15  N7  UNL     1      22.204  28.564  18.542  1.00  0.00    -0.193 N 
ATOM     16  H7  UNL     1      22.391  27.958  19.342  1.00  0.00     0.184 HD
ENDROOT
BRANCH  14  17
HETATM   17  C7  UNL     1      19.917  27.634  18.415  1.00  0.00     0.290 C 
BRANCH  17  18
HETATM   18  N5  UNL     1      20.036  27.504  19.924  1.00  0.00    -0.068 N 
ATOM     19  H52 UNL     1      20.528  26.662  20.221  1.00  0.00     0.277 HD
ATOM     20  H51 UNL     1      20.680  28.178  20.339  1.00  0.00     0.277 HD
BRANCH  18  21
HETATM   21  C8  UNL     1      18.692  27.598  20.444  1.00  0.00     0.253 C 
BRANCH  21  22
HETATM   22  C9  UNL     1      17.721  28.483  19.847  1.00  0.00     0.159 C 
BRANCH  22  23
HETATM   23  N6  UNL     1      16.376  27.911  19.708  1.00  0.00    -0.314 N 
ATOM     24  H6  UNL     1      16.107  27.116  19.126  1.00  0.00     0.172 HD
BRANCH  23  25
HETATM   25  S1  UNL     1      15.321  28.867  20.744  1.00  0.00     0.258 S 
HETATM   26  O3  UNL     1      16.143  30.092  21.143  1.00  0.00    -0.201 OA
HETATM   27  O4  UNL     1      14.879  28.146  21.930  1.00  0.00    -0.201 OA
BRANCH  25  28
HETATM   28  C10 UNL     1      13.935  29.373  19.749  1.00  0.00     0.079 A 
HETATM   29  C11 UNL     1      13.423  30.627  19.958  1.00  0.00     0.025 A 
HETATM   30  C12 UNL     1      12.267  31.005  19.327  1.00  0.00     0.002 A 
HETATM   31  C13 UNL     1      11.621  30.100  18.478  1.00  0.00     0.000 A 
HETATM   32  C14 UNL     1      12.138  28.855  18.277  1.00  0.00     0.002 A 
HETATM   33  C15 UNL     1      13.329  28.475  18.924  1.00  0.00     0.025 A 
ENDBRANCH  25  28
ENDBRANCH  23  25
ENDBRANCH  22  23
ENDBRANCH  21  22
ENDBRANCH  18  21
ENDBRANCH  17  18
ENDBRANCH  14  17
BRANCH   1  34
HETATM   34  N1  UNL     1      24.382  29.409  18.665  1.00  0.00    -0.234 N 
ATOM     35  H12 UNL     1      24.866  28.615  19.082  1.00  0.00     0.174 HD
ATOM     36  H11 UNL     1      24.851  30.314  18.634  1.00  0.00     0.174 HD
ENDBRANCH   1  34
TORSDOF 8
ENDMDL
