MODEL 1
REMARK VINA RESULT: -7.697241069      0.000      0.000
REMARK  10 active torsions:
REMARK  status: ('A' for Active; 'I' for Inactive)
REMARK    1  A    between atoms: C1_4  and  C2_6 
REMARK    2  A    between atoms: C5_9  and  C6_10 
REMARK    3  A    between atoms: C6_10  and  N3_11 
REMARK    4  A    between atoms: C7_13  and  C8_14 
REMARK    5  A    between atoms: C7_13  and  N5_17 
REMARK    6  A    between atoms: C11_20  and  C12_21 
REMARK    7  A    between atoms: C12_21  and  N6_22 
REMARK    8  A    between atoms: C12_21  and  N7_26 
REMARK    9  A    between atoms: N7_26  and  N8_27 
REMARK   10  A    between atoms: C15_32  and  N9_33 
ROOT
HETATM    1  N3  UNL     1      18.197  27.957  18.971  1.00  0.00    -0.347 N 
ATOM      2  H3  UNL     1      17.711  28.382  18.182  1.00  0.00     0.167 HD
HETATM    3  C7  UNL     1      17.710  28.186  20.111  1.00  0.00     0.177 C 
ENDROOT
BRANCH   3   4
HETATM    4  C8  UNL     1      18.163  27.731  21.409  1.00  0.00     0.299 C 
HETATM    5  N4  UNL     1      19.321  28.216  22.069  1.00  0.00    -0.054 NA
HETATM    6  O1  UNL     1      17.480  26.825  22.020  1.00  0.00    -0.268 OA
ENDBRANCH   3   4
BRANCH   3   7
HETATM    7  N5  UNL     1      16.509  29.031  20.190  1.00  0.00    -0.315 N 
HETATM    8  C9  UNL     1      16.576  30.299  20.612  1.00  0.00     0.099 A 
HETATM    9  C10 UNL     1      15.441  31.106  20.689  1.00  0.00     0.028 A 
HETATM   10  C11 UNL     1      14.220  30.589  20.322  1.00  0.00    -0.008 A 
HETATM   11  C13 UNL     1      14.159  29.297  19.892  1.00  0.00     0.028 A 
HETATM   12  C14 UNL     1      15.308  28.550  19.837  1.00  0.00     0.099 A 
BRANCH  10  13
HETATM   13  C12 UNL     1      13.013  31.448  20.404  1.00  0.00     0.328 C 
BRANCH  13  14
HETATM   14  N6  UNL     1      13.318  32.558  21.286  1.00  0.00    -0.056 N 
ATOM     15  H63 UNL     1      14.008  33.198  20.893  1.00  0.00     0.276 HD
ATOM     16  H62 UNL     1      12.548  33.222  21.367  1.00  0.00     0.276 HD
ATOM     17  H61 UNL     1      13.604  32.171  22.186  1.00  0.00     0.276 HD
ENDBRANCH  13  14
BRANCH  13  18
HETATM   18  N7  UNL     1      12.587  31.963  19.145  1.00  0.00    -0.110 NA
BRANCH  18  19
HETATM   19  N8  UNL     1      11.456  31.316  18.634  1.00  0.00    -0.346 N 
ATOM     20  H82 UNL     1      11.488  30.743  17.792  1.00  0.00     0.172 HD
ATOM     21  H81 UNL     1      10.612  31.479  19.185  1.00  0.00     0.172 HD
ENDBRANCH  18  19
ENDBRANCH  13  18
ENDBRANCH  10  13
ENDBRANCH   3   7
BRANCH   1  22
HETATM   22  C6  UNL     1      19.326  27.186  18.656  1.00  0.00     0.103 C 
BRANCH  22  23
HETATM   23  C5  UNL     1      20.543  27.951  18.351  1.00  0.00     0.012 A 
HETATM   24  C4  UNL     1      21.535  28.065  19.333  1.00  0.00     0.016 A 
HETATM   25  C3  UNL     1      22.701  28.769  19.103  1.00  0.00     0.016 A 
HETATM   26  C2  UNL     1      22.938  29.387  17.899  1.00  0.00     0.007 A 
HETATM   27  C16 UNL     1      21.985  29.282  16.941  1.00  0.00     0.051 A 
HETATM   28  C15 UNL     1      20.790  28.571  17.153  1.00  0.00     0.115 A 
BRANCH  26  29
HETATM   29  C1  UNL     1      24.171  30.128  17.663  1.00  0.00     0.120 C 
HETATM   30  N1  UNL     1      24.715  30.080  16.509  1.00  0.00    -0.387 N 
ATOM     31  H12 UNL     1      25.578  30.599  16.343  1.00  0.00     0.157 HD
ATOM     32  H11 UNL     1      24.282  29.528  15.769  1.00  0.00     0.157 HD
HETATM   33  N2  UNL     1      24.769  30.891  18.683  1.00  0.00    -0.082 NA
ENDBRANCH  26  29
BRANCH  28  34
HETATM   34  N9  UNL     1      19.884  28.508  16.080  1.00  0.00    -0.115 N 
HETATM   35  O2  UNL     1      20.344  28.779  14.923  1.00  0.00    -0.532 OA
HETATM   36  O3  UNL     1      18.582  28.181  16.209  1.00  0.00    -0.532 OA
ENDBRANCH  28  34
ENDBRANCH  22  23
ENDBRANCH   1  22
TORSDOF 10
ENDMDL
MODEL 2
REMARK VINA RESULT: -7.549309522      4.667      9.280
REMARK  10 active torsions:
REMARK  status: ('A' for Active; 'I' for Inactive)
REMARK    1  A    between atoms: C1_4  and  C2_6 
REMARK    2  A    between atoms: C5_9  and  C6_10 
REMARK    3  A    between atoms: C6_10  and  N3_11 
REMARK    4  A    between atoms: C7_13  and  C8_14 
REMARK    5  A    between atoms: C7_13  and  N5_17 
REMARK    6  A    between atoms: C11_20  and  C12_21 
REMARK    7  A    between atoms: C12_21  and  N6_22 
REMARK    8  A    between atoms: C12_21  and  N7_26 
REMARK    9  A    between atoms: N7_26  and  N8_27 
REMARK   10  A    between atoms: C15_32  and  N9_33 
ROOT
HETATM    1  N3  UNL     1      12.287  31.076  19.095  1.00  0.00    -0.347 N 
ATOM      2  H3  UNL     1      13.126  31.637  18.953  1.00  0.00     0.167 HD
HETATM    3  C7  UNL     1      12.466  29.919  19.564  1.00  0.00     0.177 C 
ENDROOT
BRANCH   3   4
HETATM    4  C8  UNL     1      11.490  28.895  19.874  1.00  0.00     0.299 C 
HETATM    5  N4  UNL     1      11.023  28.602  21.180  1.00  0.00    -0.054 NA
HETATM    6  O1  UNL     1      11.004  28.191  18.910  1.00  0.00    -0.268 OA
ENDBRANCH   3   4
BRANCH   3   7
HETATM    7  N5  UNL     1      13.844  29.500  19.855  1.00  0.00    -0.315 N 
HETATM    8  C9  UNL     1      14.654  30.248  20.615  1.00  0.00     0.099 A 
HETATM    9  C10 UNL     1      15.963  29.857  20.895  1.00  0.00     0.028 A 
HETATM   10  C11 UNL     1      16.438  28.673  20.380  1.00  0.00    -0.008 A 
HETATM   11  C13 UNL     1      15.608  27.915  19.607  1.00  0.00     0.028 A 
HETATM   12  C14 UNL     1      14.330  28.351  19.365  1.00  0.00     0.099 A 
BRANCH  10  13
HETATM   13  C12 UNL     1      17.830  28.257  20.678  1.00  0.00     0.328 C 
BRANCH  13  14
HETATM   14  N6  UNL     1      17.827  26.824  20.901  1.00  0.00    -0.056 N 
ATOM     15  H63 UNL     1      18.385  26.315  20.215  1.00  0.00     0.276 HD
ATOM     16  H62 UNL     1      18.352  26.552  21.732  1.00  0.00     0.276 HD
ATOM     17  H61 UNL     1      16.855  26.516  20.928  1.00  0.00     0.276 HD
ENDBRANCH  13  14
BRANCH  13  18
HETATM   18  N7  UNL     1      18.757  28.559  19.638  1.00  0.00    -0.110 NA
BRANCH  18  19
HETATM   19  N8  UNL     1      19.150  27.437  18.900  1.00  0.00    -0.346 N 
ATOM     20  H82 UNL     1      18.819  27.263  17.951  1.00  0.00     0.172 HD
ATOM     21  H81 UNL     1      19.791  26.824  19.405  1.00  0.00     0.172 HD
ENDBRANCH  18  19
ENDBRANCH  13  18
ENDBRANCH  10  13
ENDBRANCH   3   7
BRANCH   1  22
HETATM   22  C6  UNL     1      11.072  31.684  18.744  1.00  0.00     0.103 C 
BRANCH  22  23
HETATM   23  C5  UNL     1      11.147  32.648  17.639  1.00  0.00     0.012 A 
HETATM   24  C4  UNL     1      12.116  33.658  17.686  1.00  0.00     0.016 A 
HETATM   25  C3  UNL     1      12.235  34.592  16.675  1.00  0.00     0.016 A 
HETATM   26  C2  UNL     1      11.408  34.569  15.579  1.00  0.00     0.007 A 
HETATM   27  C16 UNL     1      10.467  33.595  15.522  1.00  0.00     0.051 A 
HETATM   28  C15 UNL     1      10.327  32.635  16.540  1.00  0.00     0.115 A 
BRANCH  26  29
HETATM   29  C1  UNL     1      11.540  35.558  14.515  1.00  0.00     0.120 C 
HETATM   30  N1  UNL     1      12.646  36.180  14.376  1.00  0.00    -0.387 N 
ATOM     31  H12 UNL     1      12.738  36.872  13.632  1.00  0.00     0.157 HD
ATOM     32  H11 UNL     1      13.421  35.978  15.006  1.00  0.00     0.157 HD
HETATM   33  N2  UNL     1      10.470  35.837  13.645  1.00  0.00    -0.082 NA
ENDBRANCH  26  29
BRANCH  28  34
HETATM   34  N9  UNL     1       9.332  31.658  16.364  1.00  0.00    -0.115 N 
HETATM   35  O2  UNL     1       8.131  32.010  16.602  1.00  0.00    -0.532 OA
HETATM   36  O3  UNL     1       9.578  30.394  15.961  1.00  0.00    -0.532 OA
ENDBRANCH  28  34
ENDBRANCH  22  23
ENDBRANCH   1  22
TORSDOF 10
ENDMDL
MODEL 3
REMARK VINA RESULT: -7.540182312      4.624      9.337
REMARK  10 active torsions:
REMARK  status: ('A' for Active; 'I' for Inactive)
REMARK    1  A    between atoms: C1_4  and  C2_6 
REMARK    2  A    between atoms: C5_9  and  C6_10 
REMARK    3  A    between atoms: C6_10  and  N3_11 
REMARK    4  A    between atoms: C7_13  and  C8_14 
REMARK    5  A    between atoms: C7_13  and  N5_17 
REMARK    6  A    between atoms: C11_20  and  C12_21 
REMARK    7  A    between atoms: C12_21  and  N6_22 
REMARK    8  A    between atoms: C12_21  and  N7_26 
REMARK    9  A    between atoms: N7_26  and  N8_27 
REMARK   10  A    between atoms: C15_32  and  N9_33 
ROOT
HETATM    1  N3  UNL     1      12.246  31.073  19.102  1.00  0.00    -0.347 N 
ATOM      2  H3  UNL     1      13.083  31.651  19.037  1.00  0.00     0.167 HD
HETATM    3  C7  UNL     1      12.422  29.883  19.482  1.00  0.00     0.177 C 
ENDROOT
BRANCH   3   4
HETATM    4  C8  UNL     1      11.449  28.828  19.673  1.00  0.00     0.299 C 
HETATM    5  N4  UNL     1      10.879  28.063  18.623  1.00  0.00    -0.054 NA
HETATM    6  O1  UNL     1      11.061  28.554  20.871  1.00  0.00    -0.268 OA
ENDBRANCH   3   4
BRANCH   3   7
HETATM    7  N5  UNL     1      13.795  29.454  19.788  1.00  0.00    -0.315 N 
HETATM    8  C9  UNL     1      14.281  28.295  19.329  1.00  0.00     0.099 A 
HETATM    9  C10 UNL     1      15.582  27.882  19.616  1.00  0.00     0.028 A 
HETATM   10  C11 UNL     1      16.390  28.684  20.388  1.00  0.00    -0.008 A 
HETATM   11  C13 UNL     1      15.889  29.864  20.851  1.00  0.00     0.028 A 
HETATM   12  C14 UNL     1      14.601  30.219  20.538  1.00  0.00     0.099 A 
BRANCH  10  13
HETATM   13  C12 UNL     1      17.773  28.245  20.692  1.00  0.00     0.328 C 
BRANCH  13  14
HETATM   14  N6  UNL     1      17.750  26.808  20.887  1.00  0.00    -0.056 N 
ATOM     15  H63 UNL     1      18.683  26.404  20.966  1.00  0.00     0.276 HD
ATOM     16  H62 UNL     1      17.407  26.540  21.809  1.00  0.00     0.276 HD
ATOM     17  H61 UNL     1      17.205  26.400  20.127  1.00  0.00     0.276 HD
ENDBRANCH  13  14
BRANCH  13  18
HETATM   18  N7  UNL     1      18.714  28.556  19.668  1.00  0.00    -0.110 NA
BRANCH  18  19
HETATM   19  N8  UNL     1      19.036  27.461  18.857  1.00  0.00    -0.346 N 
ATOM     20  H82 UNL     1      18.478  27.199  18.045  1.00  0.00     0.172 HD
ATOM     21  H81 UNL     1      19.874  26.964  19.161  1.00  0.00     0.172 HD
ENDBRANCH  18  19
ENDBRANCH  13  18
ENDBRANCH  10  13
ENDBRANCH   3   7
BRANCH   1  22
HETATM   22  C6  UNL     1      11.038  31.696  18.759  1.00  0.00     0.103 C 
BRANCH  22  23
HETATM   23  C5  UNL     1      11.124  32.680  17.671  1.00  0.00     0.012 A 
HETATM   24  C4  UNL     1      12.089  33.692  17.749  1.00  0.00     0.016 A 
HETATM   25  C3  UNL     1      12.218  34.643  16.756  1.00  0.00     0.016 A 
HETATM   26  C2  UNL     1      11.406  34.637  15.649  1.00  0.00     0.007 A 
HETATM   27  C16 UNL     1      10.469  33.661  15.562  1.00  0.00     0.051 A 
HETATM   28  C15 UNL     1      10.318  32.683  16.562  1.00  0.00     0.115 A 
BRANCH  26  29
HETATM   29  C1  UNL     1      11.548  35.644  14.604  1.00  0.00     0.120 C 
HETATM   30  N1  UNL     1      12.576  36.402  14.604  1.00  0.00    -0.387 N 
ATOM     31  H12 UNL     1      12.676  37.106  13.873  1.00  0.00     0.157 HD
ATOM     32  H11 UNL     1      13.283  36.292  15.330  1.00  0.00     0.157 HD
HETATM   33  N2  UNL     1      10.572  35.796  13.601  1.00  0.00    -0.082 NA
ENDBRANCH  26  29
BRANCH  28  34
HETATM   34  N9  UNL     1       9.329  31.706  16.355  1.00  0.00    -0.115 N 
HETATM   35  O2  UNL     1       8.121  32.058  16.558  1.00  0.00    -0.532 OA
HETATM   36  O3  UNL     1       9.587  30.442  15.959  1.00  0.00    -0.532 OA
ENDBRANCH  28  34
ENDBRANCH  22  23
ENDBRANCH   1  22
TORSDOF 10
ENDMDL
MODEL 4
REMARK VINA RESULT: -7.518836572      2.324      2.887
REMARK  10 active torsions:
REMARK  status: ('A' for Active; 'I' for Inactive)
REMARK    1  A    between atoms: C1_4  and  C2_6 
REMARK    2  A    between atoms: C5_9  and  C6_10 
REMARK    3  A    between atoms: C6_10  and  N3_11 
REMARK    4  A    between atoms: C7_13  and  C8_14 
REMARK    5  A    between atoms: C7_13  and  N5_17 
REMARK    6  A    between atoms: C11_20  and  C12_21 
REMARK    7  A    between atoms: C12_21  and  N6_22 
REMARK    8  A    between atoms: C12_21  and  N7_26 
REMARK    9  A    between atoms: N7_26  and  N8_27 
REMARK   10  A    between atoms: C15_32  and  N9_33 
ROOT
HETATM    1  N3  UNL     1      17.904  28.017  18.749  1.00  0.00    -0.347 N 
ATOM      2  H3  UNL     1      17.328  28.231  17.935  1.00  0.00     0.167 HD
HETATM    3  C7  UNL     1      17.345  28.141  19.873  1.00  0.00     0.177 C 
ENDROOT
BRANCH   3   4
HETATM    4  C8  UNL     1      17.888  27.916  21.196  1.00  0.00     0.299 C 
HETATM    5  N4  UNL     1      17.450  26.895  22.079  1.00  0.00    -0.054 NA
HETATM    6  O1  UNL     1      18.831  28.685  21.618  1.00  0.00    -0.268 OA
ENDBRANCH   3   4
BRANCH   3   7
HETATM    7  N5  UNL     1      15.941  28.576  19.898  1.00  0.00    -0.315 N 
HETATM    8  C9  UNL     1      14.986  27.882  19.268  1.00  0.00     0.099 A 
HETATM    9  C10 UNL     1      13.652  28.289  19.288  1.00  0.00     0.028 A 
HETATM   10  C11 UNL     1      13.305  29.431  19.973  1.00  0.00    -0.008 A 
HETATM   11  C13 UNL     1      14.283  30.132  20.613  1.00  0.00     0.028 A 
HETATM   12  C14 UNL     1      15.578  29.685  20.559  1.00  0.00     0.099 A 
BRANCH  10  13
HETATM   13  C12 UNL     1      11.886  29.863  19.994  1.00  0.00     0.328 C 
BRANCH  13  14
HETATM   14  N6  UNL     1      11.549  30.345  18.669  1.00  0.00    -0.056 N 
ATOM     15  H63 UNL     1      12.143  29.947  17.941  1.00  0.00     0.276 HD
ATOM     16  H62 UNL     1      10.658  29.981  18.330  1.00  0.00     0.276 HD
ATOM     17  H61 UNL     1      11.578  31.364  18.691  1.00  0.00     0.276 HD
ENDBRANCH  13  14
BRANCH  13  18
HETATM   18  N7  UNL     1      10.975  28.828  20.354  1.00  0.00    -0.110 NA
BRANCH  18  19
HETATM   19  N8  UNL     1      10.954  28.558  21.728  1.00  0.00    -0.346 N 
ATOM     20  H82 UNL     1      11.760  28.724  22.329  1.00  0.00     0.172 HD
ATOM     21  H81 UNL     1      10.062  28.185  22.054  1.00  0.00     0.172 HD
ENDBRANCH  18  19
ENDBRANCH  13  18
ENDBRANCH  10  13
ENDBRANCH   3   7
BRANCH   1  22
HETATM   22  C6  UNL     1      19.223  27.620  18.484  1.00  0.00     0.103 C 
BRANCH  22  23
HETATM   23  C5  UNL     1      20.055  28.619  17.799  1.00  0.00     0.012 A 
HETATM   24  C4  UNL     1      19.511  29.330  16.723  1.00  0.00     0.016 A 
HETATM   25  C3  UNL     1      20.244  30.282  16.042  1.00  0.00     0.016 A 
HETATM   26  C2  UNL     1      21.540  30.572  16.392  1.00  0.00     0.007 A 
HETATM   27  C16 UNL     1      22.078  29.890  17.433  1.00  0.00     0.051 A 
HETATM   28  C15 UNL     1      21.349  28.915  18.140  1.00  0.00     0.115 A 
BRANCH  26  29
HETATM   29  C1  UNL     1      22.309  31.579  15.669  1.00  0.00     0.120 C 
HETATM   30  N1  UNL     1      21.692  32.513  15.057  1.00  0.00    -0.387 N 
ATOM     31  H12 UNL     1      22.229  33.217  14.551  1.00  0.00     0.157 HD
ATOM     32  H11 UNL     1      20.673  32.546  15.082  1.00  0.00     0.157 HD
HETATM   33  N2  UNL     1      23.715  31.534  15.634  1.00  0.00    -0.082 NA
ENDBRANCH  26  29
BRANCH  28  34
HETATM   34  N9  UNL     1      22.000  28.289  19.217  1.00  0.00    -0.115 N 
HETATM   35  O2  UNL     1      23.219  28.603  19.415  1.00  0.00    -0.532 OA
HETATM   36  O3  UNL     1      21.412  27.392  20.036  1.00  0.00    -0.532 OA
ENDBRANCH  28  34
ENDBRANCH  22  23
ENDBRANCH   1  22
TORSDOF 10
ENDMDL
MODEL 5
REMARK VINA RESULT: -7.459263896      2.363      8.401
REMARK  10 active torsions:
REMARK  status: ('A' for Active; 'I' for Inactive)
REMARK    1  A    between atoms: C1_4  and  C2_6 
REMARK    2  A    between atoms: C5_9  and  C6_10 
REMARK    3  A    between atoms: C6_10  and  N3_11 
REMARK    4  A    between atoms: C7_13  and  C8_14 
REMARK    5  A    between atoms: C7_13  and  N5_17 
REMARK    6  A    between atoms: C11_20  and  C12_21 
REMARK    7  A    between atoms: C12_21  and  N6_22 
REMARK    8  A    between atoms: C12_21  and  N7_26 
REMARK    9  A    between atoms: N7_26  and  N8_27 
REMARK   10  A    between atoms: C15_32  and  N9_33 
ROOT
HETATM    1  N3  UNL     1      16.358  28.009  19.415  1.00  0.00    -0.347 N 
ATOM      2  H3  UNL     1      16.396  28.121  18.403  1.00  0.00     0.167 HD
HETATM    3  C7  UNL     1      17.461  28.083  20.023  1.00  0.00     0.177 C 
ENDROOT
BRANCH   3   4
HETATM    4  C8  UNL     1      17.736  27.967  21.440  1.00  0.00     0.299 C 
HETATM    5  N4  UNL     1      17.567  26.779  22.195  1.00  0.00    -0.054 NA
HETATM    6  O1  UNL     1      18.164  29.005  22.074  1.00  0.00    -0.268 OA
ENDBRANCH   3   4
BRANCH   3   7
HETATM    7  N5  UNL     1      18.672  28.319  19.224  1.00  0.00    -0.315 N 
HETATM    8  C9  UNL     1      19.845  27.766  19.556  1.00  0.00     0.099 A 
HETATM    9  C10 UNL     1      20.998  27.986  18.803  1.00  0.00     0.028 A 
HETATM   10  C11 UNL     1      20.933  28.791  17.689  1.00  0.00    -0.008 A 
HETATM   11  C13 UNL     1      19.735  29.351  17.356  1.00  0.00     0.028 A 
HETATM   12  C14 UNL     1      18.634  29.100  18.135  1.00  0.00     0.099 A 
BRANCH  10  13
HETATM   13  C12 UNL     1      22.159  29.025  16.888  1.00  0.00     0.328 C 
BRANCH  13  14
HETATM   14  N6  UNL     1      21.961  30.237  16.118  1.00  0.00    -0.056 N 
ATOM     15  H63 UNL     1      22.276  30.148  15.152  1.00  0.00     0.276 HD
ATOM     16  H62 UNL     1      20.978  30.426  15.923  1.00  0.00     0.276 HD
ATOM     17  H61 UNL     1      22.420  31.000  16.615  1.00  0.00     0.276 HD
ENDBRANCH  13  14
BRANCH  13  18
HETATM   18  N7  UNL     1      23.341  29.164  17.673  1.00  0.00    -0.110 NA
BRANCH  18  19
HETATM   19  N8  UNL     1      24.484  29.436  16.912  1.00  0.00    -0.346 N 
ATOM     20  H82 UNL     1      24.704  28.929  16.055  1.00  0.00     0.172 HD
ATOM     21  H81 UNL     1      25.062  30.182  17.300  1.00  0.00     0.172 HD
ENDBRANCH  18  19
ENDBRANCH  13  18
ENDBRANCH  10  13
ENDBRANCH   3   7
BRANCH   1  22
HETATM   22  C6  UNL     1      15.086  27.792  19.965  1.00  0.00     0.103 C 
BRANCH  22  23
HETATM   23  C5  UNL     1      14.078  28.809  19.638  1.00  0.00     0.012 A 
HETATM   24  C4  UNL     1      13.053  28.483  18.741  1.00  0.00     0.016 A 
HETATM   25  C3  UNL     1      12.076  29.397  18.397  1.00  0.00     0.016 A 
HETATM   26  C2  UNL     1      12.068  30.666  18.922  1.00  0.00     0.007 A 
HETATM   27  C16 UNL     1      13.054  30.993  19.792  1.00  0.00     0.051 A 
HETATM   28  C15 UNL     1      14.060  30.078  20.156  1.00  0.00     0.115 A 
BRANCH  26  29
HETATM   29  C1  UNL     1      11.033  31.626  18.555  1.00  0.00     0.120 C 
HETATM   30  N1  UNL     1       9.924  31.618  19.187  1.00  0.00    -0.387 N 
ATOM     31  H12 UNL     1       9.200  32.289  18.930  1.00  0.00     0.157 HD
ATOM     32  H11 UNL     1       9.776  30.945  19.938  1.00  0.00     0.157 HD
HETATM   33  N2  UNL     1      11.237  32.555  17.518  1.00  0.00    -0.082 NA
ENDBRANCH  26  29
BRANCH  28  34
HETATM   34  N9  UNL     1      15.018  30.519  21.085  1.00  0.00    -0.115 N 
HETATM   35  O2  UNL     1      16.040  31.119  20.617  1.00  0.00    -0.532 OA
HETATM   36  O3  UNL     1      14.912  30.345  22.419  1.00  0.00    -0.532 OA
ENDBRANCH  28  34
ENDBRANCH  22  23
ENDBRANCH   1  22
TORSDOF 10
ENDMDL
