MODEL 1
REMARK VINA RESULT: -8.123763302      0.000      0.000
REMARK  10 active torsions:
REMARK  status: ('A' for Active; 'I' for Inactive)
REMARK    1  A    between atoms: C5_10  and  C6_11 
REMARK    2  A    between atoms: C6_11  and  N3_12 
REMARK    3  A    between atoms: N3_12  and  C7_14 
REMARK    4  A    between atoms: C9_20  and  N6_21 
REMARK    5  A    between atoms: N6_21  and  C10_23 
REMARK    6  A    between atoms: C10_23  and  C11_24 
REMARK    7  A    between atoms: C11_24  and  O1_25 
REMARK    8  A    between atoms: N8_30  and  C13_31 
REMARK    9  A    between atoms: C13_31  and  C14_32 
REMARK   10  A    between atoms: C14_32  and  N9_33 
ROOT
HETATM    1  C1  UNL     1      24.871  30.231  17.746  1.00  0.00     0.063 C 
HETATM    2  C2  UNL     1      23.622  29.818  17.688  1.00  0.00     0.098 A 
HETATM    3  N1  UNL     1      23.187  28.907  18.684  1.00  0.00    -0.329 N 
ATOM      4  H1  UNL     1      23.827  28.588  19.413  1.00  0.00     0.169 HD
HETATM    5  C3  UNL     1      21.846  28.447  18.649  1.00  0.00     0.115 A 
HETATM    6  N2  UNL     1      21.429  27.681  19.619  1.00  0.00    -0.385 N 
ATOM      7  H21 UNL     1      20.464  27.350  19.594  1.00  0.00     0.157 HD
ATOM      8  H22 UNL     1      22.035  27.337  20.364  1.00  0.00     0.157 HD
HETATM    9  C4  UNL     1      20.980  28.939  17.585  1.00  0.00     0.061 A 
HETATM   10  C5  UNL     1      19.608  28.663  17.394  1.00  0.00    -0.007 A 
HETATM   11  C12 UNL     1      19.260  29.420  16.311  1.00  0.00     0.102 A 
HETATM   12  N8  UNL     1      20.329  30.128  15.822  1.00  0.00    -0.340 N 
HETATM   13  C17 UNL     1      21.380  29.837  16.604  1.00  0.00     0.123 A 
HETATM   14  N10 UNL     1      22.736  30.280  16.659  1.00  0.00    -0.328 N 
ATOM     15  H10 UNL     1      23.079  30.934  15.956  1.00  0.00     0.169 HD
ENDROOT
BRANCH  10  16
HETATM   16  C6  UNL     1      18.919  27.542  18.074  1.00  0.00     0.179 C 
BRANCH  16  17
HETATM   17  N3  UNL     1      17.526  27.784  18.381  1.00  0.00    -0.221 N 
ATOM     18  H3  UNL     1      16.803  27.838  17.663  1.00  0.00     0.178 HD
BRANCH  17  19
HETATM   19  C7  UNL     1      17.265  27.930  19.674  1.00  0.00     0.693 A 
HETATM   20  N4  UNL     1      17.722  27.021  20.550  1.00  0.00    -0.187 N 
HETATM   21  C8  UNL     1      17.702  27.270  21.878  1.00  0.00     0.215 A 
ATOM     22  H4  UNL     1      18.089  26.132  20.209  1.00  0.00     0.185 HD
HETATM   23  N5  UNL     1      17.203  28.473  22.279  1.00  0.00    -0.187 N 
HETATM   24  C9  UNL     1      16.750  29.393  21.447  1.00  0.00     0.693 A 
ATOM     25  H5  UNL     1      17.178  28.674  23.278  1.00  0.00     0.185 HD
HETATM   26  N7  UNL     1      16.765  29.131  20.115  1.00  0.00    -0.022 N 
ATOM     27  H7  UNL     1      16.410  29.817  19.449  1.00  0.00     0.203 HD
BRANCH  24  28
HETATM   28  N6  UNL     1      16.387  30.555  21.963  1.00  0.00    -0.224 N 
ATOM     29  H6  UNL     1      16.644  31.422  21.491  1.00  0.00     0.177 HD
BRANCH  28  30
HETATM   30  C10 UNL     1      15.625  30.601  23.198  1.00  0.00     0.164 C 
BRANCH  30  31
HETATM   31  C11 UNL     1      14.204  30.173  23.091  1.00  0.00     0.184 C 
BRANCH  31  32
HETATM   32  O1  UNL     1      14.097  28.817  23.515  1.00  0.00    -0.399 OA
ATOM     33  H1  UNL     1      13.767  28.294  22.794  1.00  0.00     0.209 HD
ENDBRANCH  31  32
ENDBRANCH  30  31
ENDBRANCH  28  30
ENDBRANCH  24  28
ENDBRANCH  17  19
ENDBRANCH  16  17
ENDBRANCH  10  16
BRANCH  12  34
HETATM   34  C13 UNL     1      20.318  30.951  14.637  1.00  0.00     0.160 C 
BRANCH  34  35
HETATM   35  C14 UNL     1      20.119  32.394  14.723  1.00  0.00     0.291 C 
BRANCH  35  36
HETATM   36  N9  UNL     1      19.813  33.012  15.970  1.00  0.00     0.081 N 
HETATM   37  C15 UNL     1      18.486  33.667  15.758  1.00  0.00     0.309 C 
HETATM   38  C16 UNL     1      20.701  34.195  16.123  1.00  0.00     0.309 C 
ENDBRANCH  35  36
ENDBRANCH  34  35
ENDBRANCH  12  34
TORSDOF 10
ENDMDL
MODEL 2
REMARK VINA RESULT: -8.067887692      1.333      1.402
REMARK  10 active torsions:
REMARK  status: ('A' for Active; 'I' for Inactive)
REMARK    1  A    between atoms: C5_10  and  C6_11 
REMARK    2  A    between atoms: C6_11  and  N3_12 
REMARK    3  A    between atoms: N3_12  and  C7_14 
REMARK    4  A    between atoms: C9_20  and  N6_21 
REMARK    5  A    between atoms: N6_21  and  C10_23 
REMARK    6  A    between atoms: C10_23  and  C11_24 
REMARK    7  A    between atoms: C11_24  and  O1_25 
REMARK    8  A    between atoms: N8_30  and  C13_31 
REMARK    9  A    between atoms: C13_31  and  C14_32 
REMARK   10  A    between atoms: C14_32  and  N9_33 
ROOT
HETATM    1  C1  UNL     1      25.125  30.247  18.257  1.00  0.00     0.063 C 
HETATM    2  C2  UNL     1      23.880  29.843  18.114  1.00  0.00     0.098 A 
HETATM    3  N1  UNL     1      23.394  28.880  19.034  1.00  0.00    -0.329 N 
ATOM      4  H1  UNL     1      23.996  28.517  19.774  1.00  0.00     0.169 HD
HETATM    5  C3  UNL     1      22.056  28.428  18.905  1.00  0.00     0.115 A 
HETATM    6  N2  UNL     1      21.589  27.611  19.808  1.00  0.00    -0.385 N 
ATOM      7  H21 UNL     1      20.627  27.286  19.716  1.00  0.00     0.157 HD
ATOM      8  H22 UNL     1      22.156  27.222  20.562  1.00  0.00     0.157 HD
HETATM    9  C4  UNL     1      21.245  28.984  17.828  1.00  0.00     0.061 A 
HETATM   10  C5  UNL     1      19.884  28.725  17.554  1.00  0.00    -0.007 A 
HETATM   11  C12 UNL     1      19.593  29.543  16.500  1.00  0.00     0.102 A 
HETATM   12  N8  UNL     1      20.685  30.273  16.106  1.00  0.00    -0.340 N 
HETATM   13  C17 UNL     1      21.695  29.933  16.921  1.00  0.00     0.123 A 
HETATM   14  N10 UNL     1      23.047  30.367  17.069  1.00  0.00    -0.328 N 
ATOM     15  H10 UNL     1      23.427  31.058  16.422  1.00  0.00     0.169 HD
ENDROOT
BRANCH  10  16
HETATM   16  C6  UNL     1      19.160  27.571  18.135  1.00  0.00     0.179 C 
BRANCH  16  17
HETATM   17  N3  UNL     1      17.732  27.760  18.276  1.00  0.00    -0.221 N 
ATOM     18  H3  UNL     1      17.118  27.939  17.481  1.00  0.00     0.178 HD
BRANCH  17  19
HETATM   19  C7  UNL     1      17.288  27.681  19.524  1.00  0.00     0.693 A 
HETATM   20  N4  UNL     1      18.091  27.196  20.484  1.00  0.00    -0.187 N 
HETATM   21  C8  UNL     1      17.773  27.341  21.789  1.00  0.00     0.215 A 
ATOM     22  H4  UNL     1      18.952  26.712  20.226  1.00  0.00     0.185 HD
HETATM   23  N5  UNL     1      16.613  27.997  22.079  1.00  0.00    -0.187 N 
HETATM   24  C9  UNL     1      15.802  28.491  21.162  1.00  0.00     0.693 A 
ATOM     25  H5  UNL     1      16.358  28.112  23.059  1.00  0.00     0.185 HD
HETATM   26  N7  UNL     1      16.124  28.332  19.852  1.00  0.00    -0.022 N 
ATOM     27  H7  UNL     1      15.511  28.692  19.121  1.00  0.00     0.203 HD
BRANCH  24  28
HETATM   28  N6  UNL     1      14.762  29.191  21.582  1.00  0.00    -0.224 N 
ATOM     29  H6  UNL     1      14.797  29.658  22.488  1.00  0.00     0.177 HD
BRANCH  28  30
HETATM   30  C10 UNL     1      13.571  29.297  20.759  1.00  0.00     0.164 C 
BRANCH  30  31
HETATM   31  C11 UNL     1      12.737  28.068  20.675  1.00  0.00     0.184 C 
BRANCH  31  32
HETATM   32  O1  UNL     1      13.248  27.233  19.640  1.00  0.00    -0.399 OA
ATOM     33  H1  UNL     1      12.636  27.233  18.913  1.00  0.00     0.209 HD
ENDBRANCH  31  32
ENDBRANCH  30  31
ENDBRANCH  28  30
ENDBRANCH  24  28
ENDBRANCH  17  19
ENDBRANCH  16  17
ENDBRANCH  10  16
BRANCH  12  34
HETATM   34  C13 UNL     1      20.736  31.161  14.970  1.00  0.00     0.160 C 
BRANCH  34  35
HETATM   35  C14 UNL     1      20.915  32.598  15.145  1.00  0.00     0.291 C 
BRANCH  35  36
HETATM   36  N9  UNL     1      20.214  33.298  16.169  1.00  0.00     0.081 N 
HETATM   37  C15 UNL     1      18.813  33.419  15.661  1.00  0.00     0.309 C 
HETATM   38  C16 UNL     1      20.658  34.718  16.138  1.00  0.00     0.309 C 
ENDBRANCH  35  36
ENDBRANCH  34  35
ENDBRANCH  12  34
TORSDOF 10
ENDMDL
MODEL 3
REMARK VINA RESULT: -7.626134816      3.933      8.481
REMARK  10 active torsions:
REMARK  status: ('A' for Active; 'I' for Inactive)
REMARK    1  A    between atoms: C5_10  and  C6_11 
REMARK    2  A    between atoms: C6_11  and  N3_12 
REMARK    3  A    between atoms: N3_12  and  C7_14 
REMARK    4  A    between atoms: C9_20  and  N6_21 
REMARK    5  A    between atoms: N6_21  and  C10_23 
REMARK    6  A    between atoms: C10_23  and  C11_24 
REMARK    7  A    between atoms: C11_24  and  O1_25 
REMARK    8  A    between atoms: N8_30  and  C13_31 
REMARK    9  A    between atoms: C13_31  and  C14_32 
REMARK   10  A    between atoms: C14_32  and  N9_33 
ROOT
HETATM    1  C1  UNL     1      11.048  30.032  24.007  1.00  0.00     0.063 C 
HETATM    2  C2  UNL     1      11.971  29.681  23.136  1.00  0.00     0.098 A 
HETATM    3  N1  UNL     1      13.326  29.803  23.533  1.00  0.00    -0.329 N 
ATOM      4  H1  UNL     1      13.567  30.154  24.460  1.00  0.00     0.169 HD
HETATM    5  C3  UNL     1      14.342  29.429  22.615  1.00  0.00     0.115 A 
HETATM    6  N2  UNL     1      15.582  29.459  23.019  1.00  0.00    -0.385 N 
ATOM      7  H21 UNL     1      16.312  29.191  22.360  1.00  0.00     0.157 HD
ATOM      8  H22 UNL     1      15.866  29.806  23.935  1.00  0.00     0.157 HD
HETATM    9  C4  UNL     1      13.934  28.935  21.306  1.00  0.00     0.061 A 
HETATM   10  C5  UNL     1      14.766  28.455  20.270  1.00  0.00    -0.007 A 
HETATM   11  C12 UNL     1      13.894  28.050  19.300  1.00  0.00     0.102 A 
HETATM   12  N8  UNL     1      12.590  28.260  19.668  1.00  0.00    -0.340 N 
HETATM   13  C17 UNL     1      12.615  28.798  20.898  1.00  0.00     0.123 A 
HETATM   14  N10 UNL     1      11.612  29.187  21.837  1.00  0.00    -0.328 N 
ATOM     15  H10 UNL     1      10.628  29.111  21.581  1.00  0.00     0.169 HD
ENDROOT
BRANCH  10  16
HETATM   16  C6  UNL     1      16.226  28.704  20.241  1.00  0.00     0.179 C 
BRANCH  16  17
HETATM   17  N3  UNL     1      17.045  27.511  20.240  1.00  0.00    -0.221 N 
ATOM     18  H3  UNL     1      16.700  26.605  20.559  1.00  0.00     0.178 HD
BRANCH  17  19
HETATM   19  C7  UNL     1      18.280  27.692  19.792  1.00  0.00     0.693 A 
HETATM   20  N4  UNL     1      19.320  27.506  20.620  1.00  0.00    -0.187 N 
HETATM   21  C8  UNL     1      20.581  27.427  20.139  1.00  0.00     0.215 A 
ATOM     22  H4  UNL     1      19.157  27.424  21.624  1.00  0.00     0.185 HD
HETATM   23  N5  UNL     1      20.741  27.541  18.790  1.00  0.00    -0.187 N 
HETATM   24  C9  UNL     1      19.743  27.720  17.945  1.00  0.00     0.693 A 
ATOM     25  H5  UNL     1      21.687  27.486  18.413  1.00  0.00     0.185 HD
HETATM   26  N7  UNL     1      18.480  27.808  18.438  1.00  0.00    -0.022 N 
ATOM     27  H7  UNL     1      17.690  27.958  17.811  1.00  0.00     0.203 HD
BRANCH  24  28
HETATM   28  N6  UNL     1      20.028  27.714  16.654  1.00  0.00    -0.224 N 
ATOM     29  H6  UNL     1      19.617  27.006  16.046  1.00  0.00     0.177 HD
BRANCH  28  30
HETATM   30  C10 UNL     1      20.926  28.711  16.100  1.00  0.00     0.164 C 
BRANCH  30  31
HETATM   31  C11 UNL     1      20.309  29.670  15.145  1.00  0.00     0.184 C 
BRANCH  31  32
HETATM   32  O1  UNL     1      19.046  30.085  15.658  1.00  0.00    -0.399 OA
ATOM     33  H1  UNL     1      18.414  29.388  15.522  1.00  0.00     0.209 HD
ENDBRANCH  31  32
ENDBRANCH  30  31
ENDBRANCH  28  30
ENDBRANCH  24  28
ENDBRANCH  17  19
ENDBRANCH  16  17
ENDBRANCH  10  16
BRANCH  12  34
HETATM   34  C13 UNL     1      11.434  28.024  18.838  1.00  0.00     0.160 C 
BRANCH  34  35
HETATM   35  C14 UNL     1      11.081  28.941  17.760  1.00  0.00     0.291 C 
BRANCH  35  36
HETATM   36  N9  UNL     1      10.293  30.100  18.021  1.00  0.00     0.081 N 
HETATM   37  C15 UNL     1       9.609  30.399  16.726  1.00  0.00     0.309 C 
HETATM   38  C16 UNL     1      11.216  31.261  18.139  1.00  0.00     0.309 C 
ENDBRANCH  35  36
ENDBRANCH  34  35
ENDBRANCH  12  34
TORSDOF 10
ENDMDL
MODEL 4
REMARK VINA RESULT: -7.611999067      3.113      8.355
REMARK  10 active torsions:
REMARK  status: ('A' for Active; 'I' for Inactive)
REMARK    1  A    between atoms: C5_10  and  C6_11 
REMARK    2  A    between atoms: C6_11  and  N3_12 
REMARK    3  A    between atoms: N3_12  and  C7_14 
REMARK    4  A    between atoms: C9_20  and  N6_21 
REMARK    5  A    between atoms: N6_21  and  C10_23 
REMARK    6  A    between atoms: C10_23  and  C11_24 
REMARK    7  A    between atoms: C11_24  and  O1_25 
REMARK    8  A    between atoms: N8_30  and  C13_31 
REMARK    9  A    between atoms: C13_31  and  C14_32 
REMARK   10  A    between atoms: C14_32  and  N9_33 
ROOT
HETATM    1  C1  UNL     1      10.144  29.030  22.433  1.00  0.00     0.063 C 
HETATM    2  C2  UNL     1      11.406  28.992  22.056  1.00  0.00     0.098 A 
HETATM    3  N1  UNL     1      11.735  28.158  20.958  1.00  0.00    -0.329 N 
ATOM      4  H1  UNL     1      11.016  27.610  20.486  1.00  0.00     0.169 HD
HETATM    5  C3  UNL     1      13.086  28.100  20.528  1.00  0.00     0.115 A 
HETATM    6  N2  UNL     1      13.366  27.401  19.463  1.00  0.00    -0.385 N 
ATOM      7  H21 UNL     1      14.337  27.359  19.153  1.00  0.00     0.157 HD
ATOM      8  H22 UNL     1      12.679  26.836  18.964  1.00  0.00     0.157 HD
HETATM    9  C4  UNL     1      14.068  28.907  21.241  1.00  0.00     0.061 A 
HETATM   10  C5  UNL     1      15.443  29.047  20.948  1.00  0.00    -0.007 A 
HETATM   11  C12 UNL     1      15.888  29.963  21.859  1.00  0.00     0.102 A 
HETATM   12  N8  UNL     1      14.883  30.380  22.693  1.00  0.00    -0.340 N 
HETATM   13  C17 UNL     1      13.768  29.738  22.312  1.00  0.00     0.123 A 
HETATM   14  N10 UNL     1      12.403  29.774  22.729  1.00  0.00    -0.328 N 
ATOM     15  H10 UNL     1      12.134  30.363  23.516  1.00  0.00     0.169 HD
ENDROOT
BRANCH  10  16
HETATM   16  C6  UNL     1      16.167  28.112  20.058  1.00  0.00     0.179 C 
BRANCH  16  17
HETATM   17  N3  UNL     1      17.299  27.448  20.668  1.00  0.00    -0.221 N 
ATOM     18  H3  UNL     1      17.213  26.861  21.498  1.00  0.00     0.178 HD
BRANCH  17  19
HETATM   19  C7  UNL     1      18.458  27.666  20.059  1.00  0.00     0.693 A 
HETATM   20  N4  UNL     1      19.604  27.512  20.741  1.00  0.00    -0.187 N 
HETATM   21  C8  UNL     1      20.791  27.470  20.097  1.00  0.00     0.215 A 
ATOM     22  H4  UNL     1      19.579  27.427  21.758  1.00  0.00     0.185 HD
HETATM   23  N5  UNL     1      20.767  27.588  18.739  1.00  0.00    -0.187 N 
HETATM   24  C9  UNL     1      19.660  27.734  18.034  1.00  0.00     0.693 A 
ATOM     25  H5  UNL     1      21.655  27.561  18.238  1.00  0.00     0.185 HD
HETATM   26  N7  UNL     1      18.472  27.785  18.691  1.00  0.00    -0.022 N 
ATOM     27  H7  UNL     1      17.601  27.910  18.175  1.00  0.00     0.203 HD
BRANCH  24  28
HETATM   28  N6  UNL     1      19.771  27.735  16.717  1.00  0.00    -0.224 N 
ATOM     29  H6  UNL     1      19.118  27.192  16.152  1.00  0.00     0.177 HD
BRANCH  28  30
HETATM   30  C10 UNL     1      20.819  28.505  16.072  1.00  0.00     0.164 C 
BRANCH  30  31
HETATM   31  C11 UNL     1      20.355  29.621  15.205  1.00  0.00     0.184 C 
BRANCH  31  32
HETATM   32  O1  UNL     1      19.063  30.035  15.637  1.00  0.00    -0.399 OA
ATOM     33  H1  UNL     1      18.653  29.322  16.112  1.00  0.00     0.209 HD
ENDBRANCH  31  32
ENDBRANCH  30  31
ENDBRANCH  28  30
ENDBRANCH  24  28
ENDBRANCH  17  19
ENDBRANCH  16  17
ENDBRANCH  10  16
BRANCH  12  34
HETATM   34  C13 UNL     1      15.040  31.273  23.816  1.00  0.00     0.160 C 
BRANCH  34  35
HETATM   35  C14 UNL     1      15.044  32.720  23.634  1.00  0.00     0.291 C 
BRANCH  35  36
HETATM   36  N9  UNL     1      16.206  33.388  23.149  1.00  0.00     0.081 N 
HETATM   37  C15 UNL     1      16.237  34.688  23.886  1.00  0.00     0.309 C 
HETATM   38  C16 UNL     1      15.924  33.846  21.762  1.00  0.00     0.309 C 
ENDBRANCH  35  36
ENDBRANCH  34  35
ENDBRANCH  12  34
TORSDOF 10
ENDMDL
MODEL 5
REMARK VINA RESULT: -7.590080408      4.682      8.916
REMARK  10 active torsions:
REMARK  status: ('A' for Active; 'I' for Inactive)
REMARK    1  A    between atoms: C5_10  and  C6_11 
REMARK    2  A    between atoms: C6_11  and  N3_12 
REMARK    3  A    between atoms: N3_12  and  C7_14 
REMARK    4  A    between atoms: C9_20  and  N6_21 
REMARK    5  A    between atoms: N6_21  and  C10_23 
REMARK    6  A    between atoms: C10_23  and  C11_24 
REMARK    7  A    between atoms: C11_24  and  O1_25 
REMARK    8  A    between atoms: N8_30  and  C13_31 
REMARK    9  A    between atoms: C13_31  and  C14_32 
REMARK   10  A    between atoms: C14_32  and  N9_33 
ROOT
HETATM    1  C1  UNL     1       9.249  29.743  22.871  1.00  0.00     0.063 C 
HETATM    2  C2  UNL     1      10.327  29.518  22.150  1.00  0.00     0.098 A 
HETATM    3  N1  UNL     1      11.569  29.459  22.832  1.00  0.00    -0.329 N 
ATOM      4  H1  UNL     1      11.615  29.590  23.842  1.00  0.00     0.169 HD
HETATM    5  C3  UNL     1      12.748  29.214  22.081  1.00  0.00     0.115 A 
HETATM    6  N2  UNL     1      13.873  29.072  22.725  1.00  0.00    -0.385 N 
ATOM      7  H21 UNL     1      14.721  28.896  22.185  1.00  0.00     0.157 HD
ATOM      8  H22 UNL     1      13.964  29.199  23.733  1.00  0.00     0.157 HD
HETATM    9  C4  UNL     1      12.618  29.033  20.640  1.00  0.00     0.061 A 
HETATM   10  C5  UNL     1      13.640  28.723  19.716  1.00  0.00    -0.007 A 
HETATM   11  C12 UNL     1      12.985  28.591  18.524  1.00  0.00     0.102 A 
HETATM   12  N8  UNL     1      11.638  28.811  18.657  1.00  0.00    -0.340 N 
HETATM   13  C17 UNL     1      11.413  29.077  19.952  1.00  0.00     0.123 A 
HETATM   14  N10 UNL     1      10.243  29.331  20.730  1.00  0.00    -0.328 N 
ATOM     15  H10 UNL     1       9.334  29.380  20.269  1.00  0.00     0.169 HD
ENDROOT
BRANCH  10  16
HETATM   16  C6  UNL     1      15.078  28.870  20.039  1.00  0.00     0.179 C 
BRANCH  16  17
HETATM   17  N3  UNL     1      15.927  27.825  19.511  1.00  0.00    -0.221 N 
ATOM     18  H3  UNL     1      15.578  27.083  18.904  1.00  0.00     0.178 HD
BRANCH  17  19
HETATM   19  C7  UNL     1      17.199  27.911  19.880  1.00  0.00     0.693 A 
HETATM   20  N4  UNL     1      17.520  27.811  21.180  1.00  0.00    -0.187 N 
HETATM   21  C8  UNL     1      18.804  27.633  21.563  1.00  0.00     0.215 A 
ATOM     22  H4  UNL     1      16.786  27.869  21.887  1.00  0.00     0.185 HD
HETATM   23  N5  UNL     1      19.743  27.561  20.578  1.00  0.00    -0.187 N 
HETATM   24  C9  UNL     1      19.465  27.649  19.290  1.00  0.00     0.693 A 
ATOM     25  H5  UNL     1      20.717  27.430  20.851  1.00  0.00     0.185 HD
HETATM   26  N7  UNL     1      18.173  27.837  18.915  1.00  0.00    -0.022 N 
ATOM     27  H7  UNL     1      17.929  27.922  17.928  1.00  0.00     0.203 HD
BRANCH  24  28
HETATM   28  N6  UNL     1      20.457  27.462  18.437  1.00  0.00    -0.224 N 
ATOM     29  H6  UNL     1      20.620  26.535  18.044  1.00  0.00     0.177 HD
BRANCH  28  30
HETATM   30  C10 UNL     1      21.317  28.569  18.061  1.00  0.00     0.164 C 
BRANCH  30  31
HETATM   31  C11 UNL     1      21.554  28.730  16.601  1.00  0.00     0.184 C 
BRANCH  31  32
HETATM   32  O1  UNL     1      20.865  27.696  15.904  1.00  0.00    -0.399 OA
ATOM     33  H1  UNL     1      20.730  27.968  15.004  1.00  0.00     0.209 HD
ENDBRANCH  31  32
ENDBRANCH  30  31
ENDBRANCH  28  30
ENDBRANCH  24  28
ENDBRANCH  17  19
ENDBRANCH  16  17
ENDBRANCH  10  16
BRANCH  12  34
HETATM   34  C13 UNL     1      10.681  28.835  17.577  1.00  0.00     0.160 C 
BRANCH  34  35
HETATM   35  C14 UNL     1       9.730  29.932  17.437  1.00  0.00     0.291 C 
BRANCH  35  36
HETATM   36  N9  UNL     1      10.170  31.229  17.044  1.00  0.00     0.081 N 
HETATM   37  C15 UNL     1       9.883  32.105  18.221  1.00  0.00     0.309 C 
HETATM   38  C16 UNL     1       9.200  31.757  16.046  1.00  0.00     0.309 C 
ENDBRANCH  35  36
ENDBRANCH  34  35
ENDBRANCH  12  34
TORSDOF 10
ENDMDL
