MODEL 1
REMARK VINA RESULT: -8.911649761      0.000      0.000
REMARK  10 active torsions:
REMARK  status: ('A' for Active; 'I' for Inactive)
REMARK    1  A    between atoms: C2_2  and  N2_6 
REMARK    2  A    between atoms: N2_6  and  C3_8 
REMARK    3  A    between atoms: C3_8  and  C4_9 
REMARK    4  A    between atoms: C4_9  and  N3_10 
REMARK       I    between atoms: N3_10  and  C5_12 
REMARK    5  A    between atoms: C5_12  and  C6_14 
REMARK    6  A    between atoms: C6_14  and  C7_15 
REMARK    7  A    between atoms: C6_14  and  N4_22 
REMARK    8  A    between atoms: C7_15  and  C8_16 
REMARK       I    between atoms: N4_22  and  C14_24 
REMARK    9  A    between atoms: C14_24  and  C15_26 
REMARK   10  A    between atoms: C15_26  and  C16_27 
ROOT
HETATM    1  C6  UNL     1      30.512  43.657  34.829  1.00  0.00     0.177 C 
ENDROOT
BRANCH   1   2
HETATM    2  C5  UNL     1      30.956  45.084  34.915  1.00  0.00     0.240 C 
HETATM    3  N3  UNL     1      31.951  45.615  34.064  1.00  0.00    -0.358 N 
ATOM      4  H3  UNL     1      32.361  44.976  33.382  1.00  0.00     0.162 HD
HETATM    5  O1  UNL     1      30.427  45.827  35.768  1.00  0.00    -0.271 OA
BRANCH   3   6
HETATM    6  C4  UNL     1      32.442  46.966  34.062  1.00  0.00     0.142 C 
BRANCH   6   7
HETATM    7  C3  UNL     1      33.893  46.985  34.402  1.00  0.00     0.140 C 
BRANCH   7   8
HETATM    8  N2  UNL     1      34.139  46.505  35.753  1.00  0.00    -0.379 N 
ATOM      9  H2  UNL     1      34.620  45.614  35.876  1.00  0.00     0.160 HD
BRANCH   8  10
HETATM   10  C2  UNL     1      33.738  47.226  36.901  1.00  0.00     0.066 C 
HETATM   11  C1  UNL     1      34.493  48.401  37.395  1.00  0.00     0.088 C 
HETATM   12  N1  UNL     1      32.683  46.842  37.533  1.00  0.00    -0.389 N 
ATOM     13  H12 UNL     1      32.394  47.362  38.361  1.00  0.00     0.157 HD
ATOM     14  H11 UNL     1      32.163  46.033  37.192  1.00  0.00     0.157 HD
ENDBRANCH   8  10
ENDBRANCH   7   8
ENDBRANCH   6   7
ENDBRANCH   3   6
ENDBRANCH   1   2
BRANCH   1  15
HETATM   15  C7  UNL     1      30.059  43.169  36.189  1.00  0.00     0.039 C 
BRANCH  15  16
HETATM   16  C8  UNL     1      29.632  41.747  36.219  1.00  0.00    -0.012 C 
HETATM   17  C9  UNL     1      28.228  41.706  36.810  1.00  0.00     0.005 C 
HETATM   18  C10 UNL     1      27.654  40.329  36.695  1.00  0.00     0.000 C 
HETATM   19  C11 UNL     1      28.550  39.256  37.227  1.00  0.00     0.000 C 
HETATM   20  C12 UNL     1      29.996  39.444  36.908  1.00  0.00     0.000 C 
HETATM   21  C13 UNL     1      30.478  40.866  37.103  1.00  0.00     0.005 C 
ENDBRANCH  15  16
ENDBRANCH   1  15
BRANCH   1  22
HETATM   22  N4  UNL     1      29.371  43.588  33.943  1.00  0.00    -0.348 N 
HETATM   23  C14 UNL     1      29.565  43.464  32.553  1.00  0.00     0.220 C 
HETATM   24  O2  UNL     1      30.723  43.415  32.089  1.00  0.00    -0.274 OA
ATOM     25  H4  UNL     1      28.426  43.628  34.325  1.00  0.00     0.163 HD
BRANCH  23  26
HETATM   26  C15 UNL     1      28.419  43.391  31.613  1.00  0.00     0.128 C 
BRANCH  26  27
HETATM   27  C16 UNL     1      28.878  42.890  30.262  1.00  0.00     0.093 C 
HETATM   28  C17 UNL     1      28.040  43.381  29.127  1.00  0.00     0.026 C 
HETATM   29  C18 UNL     1      26.602  42.967  29.172  1.00  0.00     0.002 C 
HETATM   30  C19 UNL     1      26.385  41.621  28.525  1.00  0.00     0.001 C 
HETATM   31  C20 UNL     1      25.704  40.646  29.461  1.00  0.00     0.009 C 
HETATM   32  C21 UNL     1      26.569  40.323  30.657  1.00  0.00     0.103 C 
HETATM   33  C22 UNL     1      27.997  40.416  30.331  1.00  0.00     0.217 C 
HETATM   34  O3  UNL     1      28.533  39.297  30.041  1.00  0.00    -0.274 OA
HETATM   35  N5  UNL     1      28.987  41.430  30.243  1.00  0.00    -0.356 N 
ATOM     36  H5  UNL     1      29.941  41.080  30.151  1.00  0.00     0.162 HD
ENDBRANCH  26  27
ENDBRANCH  23  26
ENDBRANCH   1  22
TORSDOF 10
ENDMDL
MODEL 2
REMARK VINA RESULT: -8.623607922      1.181      1.654
REMARK  10 active torsions:
REMARK  status: ('A' for Active; 'I' for Inactive)
REMARK    1  A    between atoms: C2_2  and  N2_6 
REMARK    2  A    between atoms: N2_6  and  C3_8 
REMARK    3  A    between atoms: C3_8  and  C4_9 
REMARK    4  A    between atoms: C4_9  and  N3_10 
REMARK       I    between atoms: N3_10  and  C5_12 
REMARK    5  A    between atoms: C5_12  and  C6_14 
REMARK    6  A    between atoms: C6_14  and  C7_15 
REMARK    7  A    between atoms: C6_14  and  N4_22 
REMARK    8  A    between atoms: C7_15  and  C8_16 
REMARK       I    between atoms: N4_22  and  C14_24 
REMARK    9  A    between atoms: C14_24  and  C15_26 
REMARK   10  A    between atoms: C15_26  and  C16_27 
ROOT
HETATM    1  C6  UNL     1      30.416  44.137  34.756  1.00  0.00     0.177 C 
ENDROOT
BRANCH   1   2
HETATM    2  C5  UNL     1      31.335  45.311  34.614  1.00  0.00     0.240 C 
HETATM    3  N3  UNL     1      32.223  45.700  35.640  1.00  0.00    -0.358 N 
ATOM      4  H3  UNL     1      32.210  45.143  36.495  1.00  0.00     0.162 HD
HETATM    5  O1  UNL     1      31.312  45.964  33.549  1.00  0.00    -0.271 OA
BRANCH   3   6
HETATM    6  C4  UNL     1      33.144  46.803  35.601  1.00  0.00     0.142 C 
BRANCH   6   7
HETATM    7  C3  UNL     1      33.644  47.104  36.972  1.00  0.00     0.140 C 
BRANCH   7   8
HETATM    8  N2  UNL     1      35.072  47.380  36.980  1.00  0.00    -0.379 N 
ATOM      9  H2  UNL     1      35.676  46.858  36.345  1.00  0.00     0.160 HD
BRANCH   8  10
HETATM   10  C2  UNL     1      35.655  48.345  37.833  1.00  0.00     0.066 C 
HETATM   11  C1  UNL     1      35.160  49.739  37.900  1.00  0.00     0.088 C 
HETATM   12  N1  UNL     1      36.650  47.992  38.573  1.00  0.00    -0.389 N 
ATOM     13  H12 UNL     1      37.071  48.688  39.188  1.00  0.00     0.157 HD
ATOM     14  H11 UNL     1      36.991  47.032  38.526  1.00  0.00     0.157 HD
ENDBRANCH   8  10
ENDBRANCH   7   8
ENDBRANCH   6   7
ENDBRANCH   3   6
ENDBRANCH   1   2
BRANCH   1  15
HETATM   15  C7  UNL     1      29.735  44.169  36.109  1.00  0.00     0.039 C 
BRANCH  15  16
HETATM   16  C8  UNL     1      29.654  42.849  36.784  1.00  0.00    -0.012 C 
HETATM   17  C9  UNL     1      30.619  41.911  36.067  1.00  0.00     0.005 C 
HETATM   18  C10 UNL     1      30.737  40.617  36.809  1.00  0.00     0.000 C 
HETATM   19  C11 UNL     1      29.419  39.981  37.123  1.00  0.00     0.000 C 
HETATM   20  C12 UNL     1      28.355  40.939  37.545  1.00  0.00     0.000 C 
HETATM   21  C13 UNL     1      28.300  42.193  36.696  1.00  0.00     0.005 C 
ENDBRANCH  15  16
ENDBRANCH   1  15
BRANCH   1  22
HETATM   22  N4  UNL     1      29.383  44.242  33.750  1.00  0.00    -0.348 N 
HETATM   23  C14 UNL     1      29.593  43.699  32.467  1.00  0.00     0.220 C 
HETATM   24  O2  UNL     1      30.671  43.130  32.201  1.00  0.00    -0.274 OA
ATOM     25  H4  UNL     1      28.503  44.709  33.969  1.00  0.00     0.163 HD
BRANCH  23  26
HETATM   26  C15 UNL     1      28.557  43.788  31.407  1.00  0.00     0.128 C 
BRANCH  26  27
HETATM   27  C16 UNL     1      29.004  43.044  30.170  1.00  0.00     0.093 C 
HETATM   28  C17 UNL     1      28.278  43.455  28.931  1.00  0.00     0.026 C 
HETATM   29  C18 UNL     1      26.800  43.221  28.952  1.00  0.00     0.002 C 
HETATM   30  C19 UNL     1      26.445  41.829  28.492  1.00  0.00     0.001 C 
HETATM   31  C20 UNL     1      25.613  41.088  29.516  1.00  0.00     0.009 C 
HETATM   32  C21 UNL     1      26.383  40.848  30.793  1.00  0.00     0.103 C 
HETATM   33  C22 UNL     1      27.824  40.725  30.539  1.00  0.00     0.217 C 
HETATM   34  O3  UNL     1      28.230  39.522  30.442  1.00  0.00    -0.274 OA
HETATM   35  N5  UNL     1      28.934  41.594  30.365  1.00  0.00    -0.356 N 
ATOM     36  H5  UNL     1      29.840  41.127  30.378  1.00  0.00     0.162 HD
ENDBRANCH  26  27
ENDBRANCH  23  26
ENDBRANCH   1  22
TORSDOF 10
ENDMDL
MODEL 3
REMARK VINA RESULT: -8.619941868      1.006      1.268
REMARK  10 active torsions:
REMARK  status: ('A' for Active; 'I' for Inactive)
REMARK    1  A    between atoms: C2_2  and  N2_6 
REMARK    2  A    between atoms: N2_6  and  C3_8 
REMARK    3  A    between atoms: C3_8  and  C4_9 
REMARK    4  A    between atoms: C4_9  and  N3_10 
REMARK       I    between atoms: N3_10  and  C5_12 
REMARK    5  A    between atoms: C5_12  and  C6_14 
REMARK    6  A    between atoms: C6_14  and  C7_15 
REMARK    7  A    between atoms: C6_14  and  N4_22 
REMARK    8  A    between atoms: C7_15  and  C8_16 
REMARK       I    between atoms: N4_22  and  C14_24 
REMARK    9  A    between atoms: C14_24  and  C15_26 
REMARK   10  A    between atoms: C15_26  and  C16_27 
ROOT
HETATM    1  C6  UNL     1      30.502  43.540  34.707  1.00  0.00     0.177 C 
ENDROOT
BRANCH   1   2
HETATM    2  C5  UNL     1      31.178  44.863  34.894  1.00  0.00     0.240 C 
HETATM    3  N3  UNL     1      30.880  45.714  35.982  1.00  0.00    -0.358 N 
ATOM      4  H3  UNL     1      30.174  45.386  36.641  1.00  0.00     0.162 HD
HETATM    5  O1  UNL     1      32.035  45.222  34.059  1.00  0.00    -0.271 OA
BRANCH   3   6
HETATM    6  C4  UNL     1      31.474  46.995  36.252  1.00  0.00     0.142 C 
BRANCH   6   7
HETATM    7  C3  UNL     1      32.672  46.831  37.122  1.00  0.00     0.140 C 
BRANCH   7   8
HETATM    8  N2  UNL     1      33.718  46.063  36.466  1.00  0.00    -0.379 N 
ATOM      9  H2  UNL     1      33.645  45.045  36.454  1.00  0.00     0.160 HD
BRANCH   8  10
HETATM   10  C2  UNL     1      34.831  46.672  35.841  1.00  0.00     0.066 C 
HETATM   11  C1  UNL     1      35.975  47.203  36.617  1.00  0.00     0.088 C 
HETATM   12  N1  UNL     1      34.842  46.764  34.556  1.00  0.00    -0.389 N 
ATOM     13  H12 UNL     1      35.645  47.203  34.106  1.00  0.00     0.157 HD
ATOM     14  H11 UNL     1      34.054  46.398  34.022  1.00  0.00     0.157 HD
ENDBRANCH   8  10
ENDBRANCH   7   8
ENDBRANCH   6   7
ENDBRANCH   3   6
ENDBRANCH   1   2
BRANCH   1  15
HETATM   15  C7  UNL     1      29.922  43.061  36.022  1.00  0.00     0.039 C 
BRANCH  15  16
HETATM   16  C8  UNL     1      29.676  41.598  36.085  1.00  0.00    -0.012 C 
HETATM   17  C9  UNL     1      28.197  41.399  36.395  1.00  0.00     0.005 C 
HETATM   18  C10 UNL     1      27.831  39.952  36.285  1.00  0.00     0.000 C 
HETATM   19  C11 UNL     1      28.725  39.043  37.067  1.00  0.00     0.000 C 
HETATM   20  C12 UNL     1      30.172  39.408  37.019  1.00  0.00     0.000 C 
HETATM   21  C13 UNL     1      30.426  40.892  37.185  1.00  0.00     0.005 C 
ENDBRANCH  15  16
ENDBRANCH   1  15
BRANCH   1  22
HETATM   22  N4  UNL     1      29.401  43.717  33.788  1.00  0.00    -0.348 N 
HETATM   23  C14 UNL     1      29.585  43.469  32.413  1.00  0.00     0.220 C 
HETATM   24  O2  UNL     1      30.700  43.098  31.992  1.00  0.00    -0.274 OA
ATOM     25  H4  UNL     1      28.491  44.021  34.134  1.00  0.00     0.163 HD
BRANCH  23  26
HETATM   26  C15 UNL     1      28.479  43.640  31.438  1.00  0.00     0.128 C 
BRANCH  26  27
HETATM   27  C16 UNL     1      28.859  43.044  30.102  1.00  0.00     0.093 C 
HETATM   28  C17 UNL     1      27.951  43.451  28.987  1.00  0.00     0.026 C 
HETATM   29  C18 UNL     1      26.521  43.039  29.148  1.00  0.00     0.002 C 
HETATM   30  C19 UNL     1      26.273  41.651  28.614  1.00  0.00     0.001 C 
HETATM   31  C20 UNL     1      25.654  40.744  29.657  1.00  0.00     0.009 C 
HETATM   32  C21 UNL     1      26.591  40.509  30.819  1.00  0.00     0.103 C 
HETATM   33  C22 UNL     1      27.997  40.580  30.401  1.00  0.00     0.217 C 
HETATM   34  O3  UNL     1      28.521  39.444  30.160  1.00  0.00    -0.274 OA
HETATM   35  N5  UNL     1      28.974  41.586  30.181  1.00  0.00    -0.356 N 
ATOM     36  H5  UNL     1      29.923  41.232  30.056  1.00  0.00     0.162 HD
ENDBRANCH  26  27
ENDBRANCH  23  26
ENDBRANCH   1  22
TORSDOF 10
ENDMDL
MODEL 4
REMARK VINA RESULT: -8.390886134      2.347      7.907
REMARK  10 active torsions:
REMARK  status: ('A' for Active; 'I' for Inactive)
REMARK    1  A    between atoms: C2_2  and  N2_6 
REMARK    2  A    between atoms: N2_6  and  C3_8 
REMARK    3  A    between atoms: C3_8  and  C4_9 
REMARK    4  A    between atoms: C4_9  and  N3_10 
REMARK       I    between atoms: N3_10  and  C5_12 
REMARK    5  A    between atoms: C5_12  and  C6_14 
REMARK    6  A    between atoms: C6_14  and  C7_15 
REMARK    7  A    between atoms: C6_14  and  N4_22 
REMARK    8  A    between atoms: C7_15  and  C8_16 
REMARK       I    between atoms: N4_22  and  C14_24 
REMARK    9  A    between atoms: C14_24  and  C15_26 
REMARK   10  A    between atoms: C15_26  and  C16_27 
ROOT
HETATM    1  C6  UNL     1      27.250  41.829  31.563  1.00  0.00     0.177 C 
ENDROOT
BRANCH   1   2
HETATM    2  C5  UNL     1      26.431  41.009  32.512  1.00  0.00     0.240 C 
HETATM    3  N3  UNL     1      27.020  40.153  33.467  1.00  0.00    -0.358 N 
ATOM      4  H3  UNL     1      28.040  40.112  33.482  1.00  0.00     0.162 HD
HETATM    5  O1  UNL     1      25.187  41.091  32.453  1.00  0.00    -0.271 OA
BRANCH   3   6
HETATM    6  C4  UNL     1      26.327  39.332  34.422  1.00  0.00     0.142 C 
BRANCH   6   7
HETATM    7  C3  UNL     1      26.723  39.710  35.807  1.00  0.00     0.140 C 
BRANCH   7   8
HETATM    8  N2  UNL     1      28.065  40.271  35.853  1.00  0.00    -0.379 N 
ATOM      9  H2  UNL     1      28.262  41.113  35.313  1.00  0.00     0.160 HD
BRANCH   8  10
HETATM   10  C2  UNL     1      29.106  39.693  36.617  1.00  0.00     0.066 C 
HETATM   11  C1  UNL     1      30.257  40.485  37.105  1.00  0.00     0.088 C 
HETATM   12  N1  UNL     1      29.042  38.435  36.892  1.00  0.00    -0.389 N 
ATOM     13  H12 UNL     1      29.793  38.018  37.442  1.00  0.00     0.157 HD
ATOM     14  H11 UNL     1      28.249  37.889  36.555  1.00  0.00     0.157 HD
ENDBRANCH   8  10
ENDBRANCH   7   8
ENDBRANCH   6   7
ENDBRANCH   3   6
ENDBRANCH   1   2
BRANCH   1  15
HETATM   15  C7  UNL     1      26.384  42.333  30.427  1.00  0.00     0.039 C 
BRANCH  15  16
HETATM   16  C8  UNL     1      26.938  42.076  29.074  1.00  0.00    -0.012 C 
HETATM   17  C9  UNL     1      27.839  40.851  29.176  1.00  0.00     0.005 C 
HETATM   18  C10 UNL     1      28.283  40.415  27.816  1.00  0.00     0.000 C 
HETATM   19  C11 UNL     1      28.875  41.516  26.993  1.00  0.00     0.000 C 
HETATM   20  C12 UNL     1      28.171  42.827  27.117  1.00  0.00     0.000 C 
HETATM   21  C13 UNL     1      27.809  43.186  28.543  1.00  0.00     0.005 C 
ENDBRANCH  15  16
ENDBRANCH   1  15
BRANCH   1  22
HETATM   22  N4  UNL     1      27.749  42.986  32.272  1.00  0.00    -0.348 N 
HETATM   23  C14 UNL     1      29.097  43.372  32.130  1.00  0.00     0.220 C 
HETATM   24  O2  UNL     1      29.857  42.714  31.392  1.00  0.00    -0.274 OA
ATOM     25  H4  UNL     1      27.125  43.522  32.876  1.00  0.00     0.163 HD
BRANCH  23  26
HETATM   26  C15 UNL     1      29.645  44.553  32.843  1.00  0.00     0.128 C 
BRANCH  26  27
HETATM   27  C16 UNL     1      30.903  44.178  33.592  1.00  0.00     0.093 C 
HETATM   28  C17 UNL     1      30.642  43.437  34.863  1.00  0.00     0.026 C 
HETATM   29  C18 UNL     1      29.849  44.187  35.886  1.00  0.00     0.002 C 
HETATM   30  C19 UNL     1      30.731  45.040  36.765  1.00  0.00     0.001 C 
HETATM   31  C20 UNL     1      30.302  46.491  36.760  1.00  0.00     0.009 C 
HETATM   32  C21 UNL     1      30.462  47.117  35.394  1.00  0.00     0.103 C 
HETATM   33  C22 UNL     1      31.559  46.495  34.642  1.00  0.00     0.217 C 
HETATM   34  O3  UNL     1      32.659  47.134  34.713  1.00  0.00    -0.274 OA
HETATM   35  N5  UNL     1      31.752  45.347  33.829  1.00  0.00    -0.356 N 
ATOM     36  H5  UNL     1      32.636  45.334  33.321  1.00  0.00     0.162 HD
ENDBRANCH  26  27
ENDBRANCH  23  26
ENDBRANCH   1  22
TORSDOF 10
ENDMDL
MODEL 5
REMARK VINA RESULT: -8.288738824      1.391      2.067
REMARK  10 active torsions:
REMARK  status: ('A' for Active; 'I' for Inactive)
REMARK    1  A    between atoms: C2_2  and  N2_6 
REMARK    2  A    between atoms: N2_6  and  C3_8 
REMARK    3  A    between atoms: C3_8  and  C4_9 
REMARK    4  A    between atoms: C4_9  and  N3_10 
REMARK       I    between atoms: N3_10  and  C5_12 
REMARK    5  A    between atoms: C5_12  and  C6_14 
REMARK    6  A    between atoms: C6_14  and  C7_15 
REMARK    7  A    between atoms: C6_14  and  N4_22 
REMARK    8  A    between atoms: C7_15  and  C8_16 
REMARK       I    between atoms: N4_22  and  C14_24 
REMARK    9  A    between atoms: C14_24  and  C15_26 
REMARK   10  A    between atoms: C15_26  and  C16_27 
ROOT
HETATM    1  C6  UNL     1      30.137  44.257  34.725  1.00  0.00     0.177 C 
ENDROOT
BRANCH   1   2
HETATM    2  C5  UNL     1      30.880  45.548  34.880  1.00  0.00     0.240 C 
HETATM    3  N3  UNL     1      31.998  45.872  34.081  1.00  0.00    -0.358 N 
ATOM      4  H3  UNL     1      32.284  45.180  33.387  1.00  0.00     0.162 HD
HETATM    5  O1  UNL     1      30.494  46.362  35.744  1.00  0.00    -0.271 OA
BRANCH   3   6
HETATM    6  C4  UNL     1      32.774  47.081  34.146  1.00  0.00     0.142 C 
BRANCH   6   7
HETATM    7  C3  UNL     1      34.169  46.773  34.568  1.00  0.00     0.140 C 
BRANCH   7   8
HETATM    8  N2  UNL     1      34.238  46.384  35.968  1.00  0.00    -0.379 N 
ATOM      9  H2  UNL     1      34.624  45.469  36.204  1.00  0.00     0.160 HD
BRANCH   8  10
HETATM   10  C2  UNL     1      33.792  47.224  37.014  1.00  0.00     0.066 C 
HETATM   11  C1  UNL     1      34.519  48.455  37.399  1.00  0.00     0.088 C 
HETATM   12  N1  UNL     1      32.719  46.900  37.649  1.00  0.00    -0.389 N 
ATOM     13  H12 UNL     1      32.397  47.506  38.404  1.00  0.00     0.157 HD
ATOM     14  H11 UNL     1      32.218  46.052  37.384  1.00  0.00     0.157 HD
ENDBRANCH   8  10
ENDBRANCH   7   8
ENDBRANCH   6   7
ENDBRANCH   3   6
ENDBRANCH   1   2
BRANCH   1  15
HETATM   15  C7  UNL     1      29.164  44.075  35.872  1.00  0.00     0.039 C 
BRANCH  15  16
HETATM   16  C8  UNL     1      29.381  42.841  36.668  1.00  0.00    -0.012 C 
HETATM   17  C9  UNL     1      30.370  41.972  35.900  1.00  0.00     0.005 C 
HETATM   18  C10 UNL     1      30.787  40.798  36.729  1.00  0.00     0.000 C 
HETATM   19  C11 UNL     1      29.640  40.024  37.297  1.00  0.00     0.000 C 
HETATM   20  C12 UNL     1      28.509  40.866  37.788  1.00  0.00     0.000 C 
HETATM   21  C13 UNL     1      28.145  41.997  36.848  1.00  0.00     0.005 C 
ENDBRANCH  15  16
ENDBRANCH   1  15
BRANCH   1  22
HETATM   22  N4  UNL     1      29.361  44.321  33.507  1.00  0.00    -0.348 N 
HETATM   23  C14 UNL     1      29.885  43.791  32.310  1.00  0.00     0.220 C 
HETATM   24  O2  UNL     1      31.017  43.268  32.306  1.00  0.00    -0.274 OA
ATOM     25  H4  UNL     1      28.436  44.750  33.513  1.00  0.00     0.163 HD
BRANCH  23  26
HETATM   26  C15 UNL     1      29.119  43.839  31.040  1.00  0.00     0.128 C 
BRANCH  26  27
HETATM   27  C16 UNL     1      27.824  43.071  31.178  1.00  0.00     0.093 C 
HETATM   28  C17 UNL     1      28.019  41.603  31.377  1.00  0.00     0.026 C 
HETATM   29  C18 UNL     1      28.715  40.895  30.256  1.00  0.00     0.002 C 
HETATM   30  C19 UNL     1      27.749  40.449  29.188  1.00  0.00     0.001 C 
HETATM   31  C20 UNL     1      28.132  40.975  27.821  1.00  0.00     0.009 C 
HETATM   32  C21 UNL     1      28.048  42.482  27.759  1.00  0.00     0.103 C 
HETATM   33  C22 UNL     1      27.025  43.003  28.675  1.00  0.00     0.217 C 
HETATM   34  O3  UNL     1      25.904  43.235  28.117  1.00  0.00    -0.274 OA
HETATM   35  N5  UNL     1      26.925  43.335  30.052  1.00  0.00    -0.356 N 
ATOM     36  H5  UNL     1      26.078  43.847  30.301  1.00  0.00     0.162 HD
ENDBRANCH  26  27
ENDBRANCH  23  26
ENDBRANCH   1  22
TORSDOF 10
ENDMDL
