MODEL 1
REMARK VINA RESULT: -7.989416942      0.000      0.000
REMARK  15 active torsions:
REMARK  status: ('A' for Active; 'I' for Inactive)
REMARK    1  A    between atoms: C2_2  and  N1_5 
REMARK    2  A    between atoms: N1_5  and  C5_7 
REMARK    3  A    between atoms: C5_7  and  N2_9 
REMARK    4  A    between atoms: N2_9  and  C6_11 
REMARK    5  A    between atoms: C6_11  and  C7_12 
REMARK    6  A    between atoms: C7_12  and  C8_13 
REMARK    7  A    between atoms: C8_13  and  C9_14 
REMARK    8  A    between atoms: C9_14  and  N3_15 
REMARK    9  A    between atoms: N3_15  and  C10_17 
REMARK   10  A    between atoms: C10_17  and  O1_18 
REMARK   11  A    between atoms: C10_17  and  N4_20 
REMARK   12  A    between atoms: C14_24  and  C15_25 
REMARK   13  A    between atoms: C15_25  and  C16_26 
REMARK   14  A    between atoms: C16_26  and  C17_27 
REMARK   15  A    between atoms: C17_27  and  N5_28 
REMARK       I    between atoms: N5_28  and  C18_30 
ROOT
HETATM    1  N5  UNL     1      30.474  41.409  36.121  1.00  0.00    -0.344 N 
ATOM      2  H5  UNL     1      31.320  41.013  35.712  1.00  0.00     0.167 HD
HETATM    3  C18 UNL     1      29.763  40.570  37.019  1.00  0.00     0.201 C 
HETATM    4  N6  UNL     1      30.493  39.773  37.928  1.00  0.00    -0.062 NA
HETATM    5  N7  UNL     1      28.486  40.518  37.023  1.00  0.00    -0.267 N 
ATOM      6  H7  UNL     1      27.950  41.088  36.368  1.00  0.00     0.180 HD
HETATM    7  C19 UNL     1      27.821  39.680  37.922  1.00  0.00     0.184 C 
HETATM    8  N8  UNL     1      27.269  38.959  38.670  1.00  0.00    -0.172 NA
ENDROOT
BRANCH   1   9
HETATM    9  C17 UNL     1      30.152  42.717  35.727  1.00  0.00     0.063 C 
BRANCH   9  10
HETATM   10  C16 UNL     1      29.597  43.708  36.653  1.00  0.00     0.046 C 
BRANCH  10  11
HETATM   11  C15 UNL     1      30.332  44.996  36.861  1.00  0.00     0.030 C 
BRANCH  11  12
HETATM   12  C14 UNL     1      31.291  45.310  35.803  1.00  0.00     0.088 C 
HETATM   13  N4  UNL     1      30.757  45.771  34.533  1.00  0.00    -0.343 N 
HETATM   14  C11 UNL     1      32.033  46.029  33.793  1.00  0.00     0.127 C 
HETATM   15  C12 UNL     1      32.807  46.820  34.826  1.00  0.00     0.022 C 
HETATM   16  C13 UNL     1      32.126  46.557  36.147  1.00  0.00     0.027 C 
BRANCH  13  17
HETATM   17  C10 UNL     1      29.518  45.975  33.956  1.00  0.00     0.215 C 
BRANCH  17  18
HETATM   18  N3  UNL     1      28.889  45.297  32.897  1.00  0.00    -0.356 N 
ATOM     19  H3  UNL     1      27.990  45.633  32.553  1.00  0.00     0.163 HD
BRANCH  18  20
HETATM   20  C9  UNL     1      29.500  44.115  32.276  1.00  0.00     0.123 C 
BRANCH  20  21
HETATM   21  C8  UNL     1      28.567  42.934  32.350  1.00  0.00     0.021 C 
BRANCH  21  22
HETATM   22  C7  UNL     1      28.364  42.238  31.043  1.00  0.00     0.021 C 
BRANCH  22  23
HETATM   23  C6  UNL     1      28.586  43.179  29.906  1.00  0.00     0.122 C 
BRANCH  23  24
HETATM   24  N2  UNL     1      28.749  42.542  28.639  1.00  0.00    -0.367 N 
ATOM     25  H2  UNL     1      29.600  41.999  28.492  1.00  0.00     0.161 HD
BRANCH  24  26
HETATM   26  C5  UNL     1      27.821  42.604  27.569  1.00  0.00     0.168 C 
HETATM   27  S1  UNL     1      26.236  42.500  27.904  1.00  0.00    -0.041 SA
BRANCH  26  28
HETATM   28  N1  UNL     1      28.230  42.762  26.224  1.00  0.00    -0.359 N 
ATOM     29  H1  UNL     1      28.277  43.693  25.809  1.00  0.00     0.162 HD
BRANCH  28  30
HETATM   30  C2  UNL     1      28.583  41.598  25.440  1.00  0.00     0.021 C 
HETATM   31  C1  UNL     1      27.305  40.962  24.953  1.00  0.00     0.037 C 
HETATM   32  C3  UNL     1      29.374  42.049  24.219  1.00  0.00     0.037 C 
HETATM   33  C4  UNL     1      29.355  40.578  26.239  1.00  0.00     0.037 C 
ENDBRANCH  28  30
ENDBRANCH  26  28
ENDBRANCH  24  26
ENDBRANCH  23  24
ENDBRANCH  22  23
ENDBRANCH  21  22
ENDBRANCH  20  21
ENDBRANCH  18  20
ENDBRANCH  17  18
BRANCH  17  34
HETATM   34  O1  UNL     1      28.819  46.950  34.476  1.00  0.00    -0.333 OA
ATOM     35  H1  UNL     1      29.324  47.716  34.724  1.00  0.00     0.220 HD
ENDBRANCH  17  34
ENDBRANCH  13  17
ENDBRANCH  11  12
ENDBRANCH  10  11
ENDBRANCH   9  10
ENDBRANCH   1   9
TORSDOF 15
ENDMDL
MODEL 2
REMARK VINA RESULT: -7.835682687      2.770      5.072
REMARK  15 active torsions:
REMARK  status: ('A' for Active; 'I' for Inactive)
REMARK    1  A    between atoms: C2_2  and  N1_5 
REMARK    2  A    between atoms: N1_5  and  C5_7 
REMARK    3  A    between atoms: C5_7  and  N2_9 
REMARK    4  A    between atoms: N2_9  and  C6_11 
REMARK    5  A    between atoms: C6_11  and  C7_12 
REMARK    6  A    between atoms: C7_12  and  C8_13 
REMARK    7  A    between atoms: C8_13  and  C9_14 
REMARK    8  A    between atoms: C9_14  and  N3_15 
REMARK    9  A    between atoms: N3_15  and  C10_17 
REMARK   10  A    between atoms: C10_17  and  O1_18 
REMARK   11  A    between atoms: C10_17  and  N4_20 
REMARK   12  A    between atoms: C14_24  and  C15_25 
REMARK   13  A    between atoms: C15_25  and  C16_26 
REMARK   14  A    between atoms: C16_26  and  C17_27 
REMARK   15  A    between atoms: C17_27  and  N5_28 
REMARK       I    between atoms: N5_28  and  C18_30 
ROOT
HETATM    1  N5  UNL     1      33.845  47.734  35.281  1.00  0.00    -0.344 N 
ATOM      2  H5  UNL     1      33.604  48.659  35.637  1.00  0.00     0.167 HD
HETATM    3  C18 UNL     1      34.845  47.030  36.003  1.00  0.00     0.201 C 
HETATM    4  N6  UNL     1      34.838  47.094  37.414  1.00  0.00    -0.062 NA
HETATM    5  N7  UNL     1      35.746  46.344  35.410  1.00  0.00    -0.267 N 
ATOM      6  H7  UNL     1      35.760  46.294  34.391  1.00  0.00     0.180 HD
HETATM    7  C19 UNL     1      36.713  45.664  36.155  1.00  0.00     0.184 C 
HETATM    8  N8  UNL     1      37.534  45.109  36.788  1.00  0.00    -0.172 NA
ENDROOT
BRANCH   1   9
HETATM    9  C17 UNL     1      33.150  47.312  34.138  1.00  0.00     0.063 C 
BRANCH   9  10
HETATM   10  C16 UNL     1      32.264  46.144  34.138  1.00  0.00     0.046 C 
BRANCH  10  11
HETATM   11  C15 UNL     1      30.819  46.332  34.482  1.00  0.00     0.030 C 
BRANCH  11  12
HETATM   12  C14 UNL     1      30.154  45.113  34.941  1.00  0.00     0.088 C 
HETATM   13  N4  UNL     1      29.870  44.093  33.947  1.00  0.00    -0.343 N 
HETATM   14  C11 UNL     1      29.273  43.036  34.823  1.00  0.00     0.127 C 
HETATM   15  C12 UNL     1      30.286  42.992  35.948  1.00  0.00     0.022 C 
HETATM   16  C13 UNL     1      31.073  44.275  35.849  1.00  0.00     0.027 C 
BRANCH  13  17
HETATM   17  C10 UNL     1      30.005  43.927  32.581  1.00  0.00     0.215 C 
BRANCH  17  18
HETATM   18  N3  UNL     1      29.199  44.396  31.529  1.00  0.00    -0.356 N 
ATOM     19  H3  UNL     1      28.833  45.347  31.567  1.00  0.00     0.163 HD
BRANCH  18  20
HETATM   20  C9  UNL     1      28.873  43.547  30.377  1.00  0.00     0.123 C 
BRANCH  20  21
HETATM   21  C8  UNL     1      27.921  42.450  30.777  1.00  0.00     0.021 C 
BRANCH  21  22
HETATM   22  C7  UNL     1      28.091  41.186  29.998  1.00  0.00     0.021 C 
BRANCH  22  23
HETATM   23  C6  UNL     1      26.766  40.644  29.578  1.00  0.00     0.122 C 
BRANCH  23  24
HETATM   24  N2  UNL     1      26.695  40.266  28.202  1.00  0.00    -0.367 N 
ATOM     25  H2  UNL     1      26.957  39.310  27.964  1.00  0.00     0.161 HD
BRANCH  24  26
HETATM   26  C5  UNL     1      26.288  41.116  27.143  1.00  0.00     0.168 C 
HETATM   27  S1  UNL     1      24.979  42.053  27.353  1.00  0.00    -0.041 SA
BRANCH  26  28
HETATM   28  N1  UNL     1      26.989  41.180  25.916  1.00  0.00    -0.359 N 
ATOM     29  H1  UNL     1      26.554  40.837  25.060  1.00  0.00     0.162 HD
BRANCH  28  30
HETATM   30  C2  UNL     1      28.326  41.733  25.881  1.00  0.00     0.021 C 
HETATM   31  C1  UNL     1      29.281  40.668  26.359  1.00  0.00     0.037 C 
HETATM   32  C3  UNL     1      28.683  42.065  24.437  1.00  0.00     0.037 C 
HETATM   33  C4  UNL     1      28.472  42.945  26.768  1.00  0.00     0.037 C 
ENDBRANCH  28  30
ENDBRANCH  26  28
ENDBRANCH  24  26
ENDBRANCH  23  24
ENDBRANCH  22  23
ENDBRANCH  21  22
ENDBRANCH  20  21
ENDBRANCH  18  20
ENDBRANCH  17  18
BRANCH  17  34
HETATM   34  O1  UNL     1      31.044  43.226  32.208  1.00  0.00    -0.333 OA
ATOM     35  H1  UNL     1      31.739  43.169  32.852  1.00  0.00     0.220 HD
ENDBRANCH  17  34
ENDBRANCH  13  17
ENDBRANCH  11  12
ENDBRANCH  10  11
ENDBRANCH   9  10
ENDBRANCH   1   9
TORSDOF 15
ENDMDL
MODEL 3
REMARK VINA RESULT: -7.730564026      1.586      2.233
REMARK  15 active torsions:
REMARK  status: ('A' for Active; 'I' for Inactive)
REMARK    1  A    between atoms: C2_2  and  N1_5 
REMARK    2  A    between atoms: N1_5  and  C5_7 
REMARK    3  A    between atoms: C5_7  and  N2_9 
REMARK    4  A    between atoms: N2_9  and  C6_11 
REMARK    5  A    between atoms: C6_11  and  C7_12 
REMARK    6  A    between atoms: C7_12  and  C8_13 
REMARK    7  A    between atoms: C8_13  and  C9_14 
REMARK    8  A    between atoms: C9_14  and  N3_15 
REMARK    9  A    between atoms: N3_15  and  C10_17 
REMARK   10  A    between atoms: C10_17  and  O1_18 
REMARK   11  A    between atoms: C10_17  and  N4_20 
REMARK   12  A    between atoms: C14_24  and  C15_25 
REMARK   13  A    between atoms: C15_25  and  C16_26 
REMARK   14  A    between atoms: C16_26  and  C17_27 
REMARK   15  A    between atoms: C17_27  and  N5_28 
REMARK       I    between atoms: N5_28  and  C18_30 
ROOT
HETATM    1  N5  UNL     1      28.744  41.371  37.716  1.00  0.00    -0.344 N 
ATOM      2  H5  UNL     1      29.048  41.625  38.656  1.00  0.00     0.167 HD
HETATM    3  C18 UNL     1      28.286  40.038  37.547  1.00  0.00     0.201 C 
HETATM    4  N6  UNL     1      27.490  39.458  38.559  1.00  0.00    -0.062 NA
HETATM    5  N7  UNL     1      28.578  39.354  36.507  1.00  0.00    -0.267 N 
ATOM      6  H7  UNL     1      29.154  39.764  35.772  1.00  0.00     0.180 HD
HETATM    7  C19 UNL     1      28.108  38.044  36.375  1.00  0.00     0.184 C 
HETATM    8  N8  UNL     1      27.724  36.937  36.280  1.00  0.00    -0.172 NA
ENDROOT
BRANCH   1   9
HETATM    9  C17 UNL     1      28.829  42.382  36.747  1.00  0.00     0.063 C 
BRANCH   9  10
HETATM   10  C16 UNL     1      30.104  42.978  36.335  1.00  0.00     0.046 C 
BRANCH  10  11
HETATM   11  C15 UNL     1      30.349  44.429  36.618  1.00  0.00     0.030 C 
BRANCH  11  12
HETATM   12  C14 UNL     1      31.310  45.056  35.710  1.00  0.00     0.088 C 
HETATM   13  N4  UNL     1      30.787  45.657  34.496  1.00  0.00    -0.343 N 
HETATM   14  C11 UNL     1      32.050  46.217  33.919  1.00  0.00     0.127 C 
HETATM   15  C12 UNL     1      32.635  46.911  35.131  1.00  0.00     0.022 C 
HETATM   16  C13 UNL     1      31.926  46.325  36.328  1.00  0.00     0.027 C 
BRANCH  13  17
HETATM   17  C10 UNL     1      29.566  45.788  33.861  1.00  0.00     0.215 C 
BRANCH  17  18
HETATM   18  N3  UNL     1      28.980  44.997  32.856  1.00  0.00    -0.356 N 
ATOM     19  H3  UNL     1      28.149  45.339  32.375  1.00  0.00     0.163 HD
BRANCH  18  20
HETATM   20  C9  UNL     1      29.539  43.692  32.485  1.00  0.00     0.123 C 
BRANCH  20  21
HETATM   21  C8  UNL     1      28.680  43.022  31.444  1.00  0.00     0.021 C 
BRANCH  21  22
HETATM   22  C7  UNL     1      28.791  43.632  30.083  1.00  0.00     0.021 C 
BRANCH  22  23
HETATM   23  C6  UNL     1      27.613  43.263  29.244  1.00  0.00     0.122 C 
BRANCH  23  24
HETATM   24  N2  UNL     1      27.913  43.073  27.861  1.00  0.00    -0.367 N 
ATOM     25  H2  UNL     1      27.616  43.801  27.211  1.00  0.00     0.161 HD
BRANCH  24  26
HETATM   26  C5  UNL     1      28.593  41.952  27.321  1.00  0.00     0.168 C 
HETATM   27  S1  UNL     1      28.785  41.857  25.712  1.00  0.00    -0.041 SA
BRANCH  26  28
HETATM   28  N1  UNL     1      29.112  40.920  28.138  1.00  0.00    -0.359 N 
ATOM     29  H1  UNL     1      30.044  41.009  28.543  1.00  0.00     0.162 HD
BRANCH  28  30
HETATM   30  C2  UNL     1      28.317  39.739  28.395  1.00  0.00     0.021 C 
HETATM   31  C1  UNL     1      28.978  38.575  27.700  1.00  0.00     0.037 C 
HETATM   32  C3  UNL     1      28.327  39.455  29.892  1.00  0.00     0.037 C 
HETATM   33  C4  UNL     1      26.906  39.871  27.878  1.00  0.00     0.037 C 
ENDBRANCH  28  30
ENDBRANCH  26  28
ENDBRANCH  24  26
ENDBRANCH  23  24
ENDBRANCH  22  23
ENDBRANCH  21  22
ENDBRANCH  20  21
ENDBRANCH  18  20
ENDBRANCH  17  18
BRANCH  17  34
HETATM   34  O1  UNL     1      28.843  46.803  34.255  1.00  0.00    -0.333 OA
ATOM     35  H1  UNL     1      28.732  46.873  35.196  1.00  0.00     0.220 HD
ENDBRANCH  17  34
ENDBRANCH  13  17
ENDBRANCH  11  12
ENDBRANCH  10  11
ENDBRANCH   9  10
ENDBRANCH   1   9
TORSDOF 15
ENDMDL
MODEL 4
REMARK VINA RESULT: -7.714828188      0.842      1.472
REMARK  15 active torsions:
REMARK  status: ('A' for Active; 'I' for Inactive)
REMARK    1  A    between atoms: C2_2  and  N1_5 
REMARK    2  A    between atoms: N1_5  and  C5_7 
REMARK    3  A    between atoms: C5_7  and  N2_9 
REMARK    4  A    between atoms: N2_9  and  C6_11 
REMARK    5  A    between atoms: C6_11  and  C7_12 
REMARK    6  A    between atoms: C7_12  and  C8_13 
REMARK    7  A    between atoms: C8_13  and  C9_14 
REMARK    8  A    between atoms: C9_14  and  N3_15 
REMARK    9  A    between atoms: N3_15  and  C10_17 
REMARK   10  A    between atoms: C10_17  and  O1_18 
REMARK   11  A    between atoms: C10_17  and  N4_20 
REMARK   12  A    between atoms: C14_24  and  C15_25 
REMARK   13  A    between atoms: C15_25  and  C16_26 
REMARK   14  A    between atoms: C16_26  and  C17_27 
REMARK   15  A    between atoms: C17_27  and  N5_28 
REMARK       I    between atoms: N5_28  and  C18_30 
ROOT
HETATM    1  N5  UNL     1      28.615  41.018  36.837  1.00  0.00    -0.344 N 
ATOM      2  H5  UNL     1      27.661  40.690  36.986  1.00  0.00     0.167 HD
HETATM    3  C18 UNL     1      29.645  40.071  37.074  1.00  0.00     0.201 C 
HETATM    4  N6  UNL     1      29.451  38.735  36.658  1.00  0.00    -0.062 NA
HETATM    5  N7  UNL     1      30.738  40.396  37.652  1.00  0.00    -0.267 N 
ATOM      6  H7  UNL     1      30.886  41.358  37.958  1.00  0.00     0.180 HD
HETATM    7  C19 UNL     1      31.730  39.436  37.868  1.00  0.00     0.184 C 
HETATM    8  N8  UNL     1      32.552  38.618  38.062  1.00  0.00    -0.172 NA
ENDROOT
BRANCH   1   9
HETATM    9  C17 UNL     1      28.750  42.352  36.422  1.00  0.00     0.063 C 
BRANCH   9  10
HETATM   10  C16 UNL     1      30.020  42.908  35.947  1.00  0.00     0.046 C 
BRANCH  10  11
HETATM   11  C15 UNL     1      30.479  44.227  36.488  1.00  0.00     0.030 C 
BRANCH  11  12
HETATM   12  C14 UNL     1      31.401  44.942  35.605  1.00  0.00     0.088 C 
HETATM   13  N4  UNL     1      30.822  45.697  34.506  1.00  0.00    -0.343 N 
HETATM   14  C11 UNL     1      32.063  46.299  33.924  1.00  0.00     0.127 C 
HETATM   15  C12 UNL     1      32.736  46.829  35.172  1.00  0.00     0.022 C 
HETATM   16  C13 UNL     1      32.084  46.115  36.331  1.00  0.00     0.027 C 
BRANCH  13  17
HETATM   17  C10 UNL     1      29.570  45.927  33.969  1.00  0.00     0.215 C 
BRANCH  17  18
HETATM   18  N3  UNL     1      28.930  45.320  32.873  1.00  0.00    -0.356 N 
ATOM     19  H3  UNL     1      28.053  45.709  32.530  1.00  0.00     0.163 HD
BRANCH  18  20
HETATM   20  C9  UNL     1      29.499  44.138  32.213  1.00  0.00     0.123 C 
BRANCH  20  21
HETATM   21  C8  UNL     1      28.597  42.943  32.393  1.00  0.00     0.021 C 
BRANCH  21  22
HETATM   22  C7  UNL     1      28.187  42.296  31.110  1.00  0.00     0.021 C 
BRANCH  22  23
HETATM   23  C6  UNL     1      28.598  43.131  29.944  1.00  0.00     0.122 C 
BRANCH  23  24
HETATM   24  N2  UNL     1      28.689  42.414  28.712  1.00  0.00    -0.367 N 
ATOM     25  H2  UNL     1      29.466  41.763  28.603  1.00  0.00     0.161 HD
BRANCH  24  26
HETATM   26  C5  UNL     1      27.783  42.538  27.627  1.00  0.00     0.168 C 
HETATM   27  S1  UNL     1      26.190  42.456  27.929  1.00  0.00    -0.041 SA
BRANCH  26  28
HETATM   28  N1  UNL     1      28.222  42.737  26.298  1.00  0.00    -0.359 N 
ATOM     29  H1  UNL     1      28.298  43.681  25.920  1.00  0.00     0.162 HD
BRANCH  28  30
HETATM   30  C2  UNL     1      28.564  41.596  25.476  1.00  0.00     0.021 C 
HETATM   31  C1  UNL     1      27.278  40.972  24.992  1.00  0.00     0.037 C 
HETATM   32  C3  UNL     1      29.335  42.081  24.255  1.00  0.00     0.037 C 
HETATM   33  C4  UNL     1      29.349  40.554  26.234  1.00  0.00     0.037 C 
ENDBRANCH  28  30
ENDBRANCH  26  28
ENDBRANCH  24  26
ENDBRANCH  23  24
ENDBRANCH  22  23
ENDBRANCH  21  22
ENDBRANCH  20  21
ENDBRANCH  18  20
ENDBRANCH  17  18
BRANCH  17  34
HETATM   34  O1  UNL     1      28.869  46.851  34.572  1.00  0.00    -0.333 OA
ATOM     35  H1  UNL     1      28.951  47.721  34.200  1.00  0.00     0.220 HD
ENDBRANCH  17  34
ENDBRANCH  13  17
ENDBRANCH  11  12
ENDBRANCH  10  11
ENDBRANCH   9  10
ENDBRANCH   1   9
TORSDOF 15
ENDMDL
MODEL 5
REMARK VINA RESULT: -7.709552774      1.508      1.904
REMARK  15 active torsions:
REMARK  status: ('A' for Active; 'I' for Inactive)
REMARK    1  A    between atoms: C2_2  and  N1_5 
REMARK    2  A    between atoms: N1_5  and  C5_7 
REMARK    3  A    between atoms: C5_7  and  N2_9 
REMARK    4  A    between atoms: N2_9  and  C6_11 
REMARK    5  A    between atoms: C6_11  and  C7_12 
REMARK    6  A    between atoms: C7_12  and  C8_13 
REMARK    7  A    between atoms: C8_13  and  C9_14 
REMARK    8  A    between atoms: C9_14  and  N3_15 
REMARK    9  A    between atoms: N3_15  and  C10_17 
REMARK   10  A    between atoms: C10_17  and  O1_18 
REMARK   11  A    between atoms: C10_17  and  N4_20 
REMARK   12  A    between atoms: C14_24  and  C15_25 
REMARK   13  A    between atoms: C15_25  and  C16_26 
REMARK   14  A    between atoms: C16_26  and  C17_27 
REMARK   15  A    between atoms: C17_27  and  N5_28 
REMARK       I    between atoms: N5_28  and  C18_30 
ROOT
HETATM    1  N5  UNL     1      29.717  40.716  37.286  1.00  0.00    -0.344 N 
ATOM      2  H5  UNL     1      30.340  40.277  37.964  1.00  0.00     0.167 HD
HETATM    3  C18 UNL     1      28.349  40.347  37.366  1.00  0.00     0.201 C 
HETATM    4  N6  UNL     1      27.758  40.195  38.640  1.00  0.00    -0.062 NA
HETATM    5  N7  UNL     1      27.643  40.148  36.319  1.00  0.00    -0.267 N 
ATOM      6  H7  UNL     1      28.061  40.253  35.395  1.00  0.00     0.180 HD
HETATM    7  C19 UNL     1      26.298  39.786  36.438  1.00  0.00     0.184 C 
HETATM    8  N8  UNL     1      25.172  39.465  36.546  1.00  0.00    -0.172 NA
ENDROOT
BRANCH   1   9
HETATM    9  C17 UNL     1      30.316  41.611  36.386  1.00  0.00     0.063 C 
BRANCH   9  10
HETATM   10  C16 UNL     1      29.682  42.869  35.982  1.00  0.00     0.046 C 
BRANCH  10  11
HETATM   11  C15 UNL     1      30.117  44.143  36.639  1.00  0.00     0.030 C 
BRANCH  11  12
HETATM   12  C14 UNL     1      31.146  44.872  35.898  1.00  0.00     0.088 C 
HETATM   13  N4  UNL     1      30.730  45.582  34.701  1.00  0.00    -0.343 N 
HETATM   14  C11 UNL     1      32.029  46.216  34.312  1.00  0.00     0.127 C 
HETATM   15  C12 UNL     1      32.473  46.796  35.638  1.00  0.00     0.022 C 
HETATM   16  C13 UNL     1      31.665  46.083  36.694  1.00  0.00     0.027 C 
BRANCH  13  17
HETATM   17  C10 UNL     1      29.575  45.756  33.962  1.00  0.00     0.215 C 
BRANCH  17  18
HETATM   18  N3  UNL     1      29.144  45.105  32.792  1.00  0.00    -0.356 N 
ATOM     19  H3  UNL     1      28.327  45.460  32.297  1.00  0.00     0.163 HD
BRANCH  18  20
HETATM   20  C9  UNL     1      29.844  43.926  32.269  1.00  0.00     0.123 C 
BRANCH  20  21
HETATM   21  C8  UNL     1      29.046  43.280  31.165  1.00  0.00     0.021 C 
BRANCH  21  22
HETATM   22  C7  UNL     1      27.840  42.538  31.642  1.00  0.00     0.021 C 
BRANCH  22  23
HETATM   23  C6  UNL     1      27.573  41.354  30.774  1.00  0.00     0.122 C 
BRANCH  23  24
HETATM   24  N2  UNL     1      28.688  40.945  29.980  1.00  0.00    -0.367 N 
ATOM     25  H2  UNL     1      29.620  41.166  30.330  1.00  0.00     0.161 HD
BRANCH  24  26
HETATM   26  C5  UNL     1      28.599  40.254  28.745  1.00  0.00     0.168 C 
HETATM   27  S1  UNL     1      27.923  38.778  28.723  1.00  0.00    -0.041 SA
BRANCH  26  28
HETATM   28  N1  UNL     1      29.072  40.811  27.534  1.00  0.00    -0.359 N 
ATOM     29  H1  UNL     1      29.975  40.525  27.158  1.00  0.00     0.162 HD
BRANCH  28  30
HETATM   30  C2  UNL     1      28.268  41.789  26.832  1.00  0.00     0.021 C 
HETATM   31  C1  UNL     1      28.893  42.016  25.478  1.00  0.00     0.037 C 
HETATM   32  C3  UNL     1      26.875  41.214  26.612  1.00  0.00     0.037 C 
HETATM   33  C4  UNL     1      28.201  43.109  27.559  1.00  0.00     0.037 C 
ENDBRANCH  28  30
ENDBRANCH  26  28
ENDBRANCH  24  26
ENDBRANCH  23  24
ENDBRANCH  22  23
ENDBRANCH  21  22
ENDBRANCH  20  21
ENDBRANCH  18  20
ENDBRANCH  17  18
BRANCH  17  34
HETATM   34  O1  UNL     1      28.755  46.665  34.420  1.00  0.00    -0.333 OA
ATOM     35  H1  UNL     1      28.138  46.353  35.072  1.00  0.00     0.220 HD
ENDBRANCH  17  34
ENDBRANCH  13  17
ENDBRANCH  11  12
ENDBRANCH  10  11
ENDBRANCH   9  10
ENDBRANCH   1   9
TORSDOF 15
ENDMDL
