MODEL 1
REMARK VINA RESULT: -7.903814895      0.000      0.000
REMARK  10 active torsions:
REMARK  status: ('A' for Active; 'I' for Inactive)
REMARK    1  A    between atoms: C2_2  and  O1_3 
REMARK    2  A    between atoms: C2_2  and  C3_5 
REMARK       I    between atoms: C3_5  and  N1_7 
REMARK       I    between atoms: C4_9  and  N2_10 
REMARK       I    between atoms: C4_9  and  N5_28 
REMARK    3  A    between atoms: N2_10  and  C5_12 
REMARK    4  A    between atoms: C5_12  and  C6_13 
REMARK    5  A    between atoms: C6_13  and  C7_14 
REMARK    6  A    between atoms: C7_14  and  C8_15 
REMARK    7  A    between atoms: C8_15  and  C9_16 
REMARK    8  A    between atoms: C10_18  and  C11_19 
REMARK    9  A    between atoms: C12_25  and  C13_26 
REMARK   10  A    between atoms: N5_28  and  C15_30 
ROOT
HETATM    1  C3  UNL     1      30.473  43.991  33.504  1.00  0.00     0.291 C 
HETATM    2  O2  UNL     1      31.546  44.687  33.615  1.00  0.00    -0.265 OA
HETATM    3  N1  UNL     1      30.209  42.915  34.317  1.00  0.00    -0.154 N 
ATOM      4  H1  UNL     1      30.257  42.043  33.791  1.00  0.00     0.187 HD
HETATM    5  C4  UNL     1      29.929  42.699  35.504  1.00  0.00     0.677 C 
HETATM    6  N2  UNL     1      29.776  43.661  36.513  1.00  0.00    -0.226 N 
ATOM      7  H2  UNL     1      30.110  43.409  37.443  1.00  0.00     0.177 HD
HETATM    8  N5  UNL     1      29.807  41.308  35.881  1.00  0.00    -0.222 N 
ATOM      9  H5  UNL     1      30.604  40.698  35.699  1.00  0.00     0.178 HD
ENDROOT
BRANCH   6  10
HETATM   10  C5  UNL     1      29.193  44.970  36.366  1.00  0.00     0.138 C 
BRANCH  10  11
HETATM   11  C6  UNL     1      30.206  46.031  36.687  1.00  0.00     0.020 C 
BRANCH  11  12
HETATM   12  C7  UNL     1      31.567  45.487  37.060  1.00  0.00     0.003 C 
BRANCH  12  13
HETATM   13  C8  UNL     1      32.382  46.561  37.688  1.00  0.00     0.017 C 
BRANCH  13  14
HETATM   14  C9  UNL     1      33.075  47.442  36.671  1.00  0.00     0.080 C 
HETATM   15  S1  UNL     1      34.549  48.245  37.392  1.00  0.00    -0.120 SA
HETATM   16  C10 UNL     1      35.800  47.262  36.463  1.00  0.00     0.336 C 
HETATM   17  N4  UNL     1      34.978  46.145  36.075  1.00  0.00    -0.049 N 
HETATM   18  C12 UNL     1      33.723  46.643  35.573  1.00  0.00     0.201 C 
ATOM     19  H42 UNL     1      35.446  45.529  35.409  1.00  0.00     0.279 HD
ATOM     20  H41 UNL     1      34.855  45.470  36.830  1.00  0.00     0.279 HD
BRANCH  16  21
HETATM   21  C11 UNL     1      36.895  46.845  37.328  1.00  0.00     0.272 C 
HETATM   22  N3  UNL     1      37.688  45.725  36.995  1.00  0.00    -0.059 NA
HETATM   23  O3  UNL     1      37.143  47.480  38.377  1.00  0.00    -0.274 OA
ENDBRANCH  16  21
BRANCH  18  24
HETATM   24  C13 UNL     1      33.840  47.389  34.285  1.00  0.00     0.030 C 
HETATM   25  C14 UNL     1      32.477  47.416  33.625  1.00  0.00     0.007 C 
ENDBRANCH  18  24
ENDBRANCH  13  14
ENDBRANCH  12  13
ENDBRANCH  11  12
ENDBRANCH  10  11
ENDBRANCH   6  10
BRANCH   8  26
HETATM   26  C15 UNL     1      28.671  40.731  36.482  1.00  0.00     0.099 C 
HETATM   27  C16 UNL     1      29.021  39.503  37.325  1.00  0.00     0.026 C 
HETATM   28  C17 UNL     1      27.815  39.289  38.228  1.00  0.00     0.002 C 
HETATM   29  C18 UNL     1      26.577  38.991  37.408  1.00  0.00     0.000 C 
HETATM   30  C19 UNL     1      26.325  40.027  36.349  1.00  0.00     0.002 C 
HETATM   31  C20 UNL     1      27.567  40.355  35.546  1.00  0.00     0.026 C 
ENDBRANCH   8  26
BRANCH   1  32
HETATM   32  C2  UNL     1      29.526  44.386  32.464  1.00  0.00     0.125 C 
HETATM   33  C1  UNL     1      29.408  43.715  31.331  1.00  0.00     0.056 C 
BRANCH  32  34
HETATM   34  O1  UNL     1      28.726  45.499  32.670  1.00  0.00    -0.356 OA
ATOM     35  H1  UNL     1      28.059  45.710  32.027  1.00  0.00     0.218 HD
ENDBRANCH  32  34
ENDBRANCH   1  32
TORSDOF 10
ENDMDL
MODEL 2
REMARK VINA RESULT: -7.815015898      4.111      8.054
REMARK  10 active torsions:
REMARK  status: ('A' for Active; 'I' for Inactive)
REMARK    1  A    between atoms: C2_2  and  O1_3 
REMARK    2  A    between atoms: C2_2  and  C3_5 
REMARK       I    between atoms: C3_5  and  N1_7 
REMARK       I    between atoms: C4_9  and  N2_10 
REMARK       I    between atoms: C4_9  and  N5_28 
REMARK    3  A    between atoms: N2_10  and  C5_12 
REMARK    4  A    between atoms: C5_12  and  C6_13 
REMARK    5  A    between atoms: C6_13  and  C7_14 
REMARK    6  A    between atoms: C7_14  and  C8_15 
REMARK    7  A    between atoms: C8_15  and  C9_16 
REMARK    8  A    between atoms: C10_18  and  C11_19 
REMARK    9  A    between atoms: C12_25  and  C13_26 
REMARK   10  A    between atoms: N5_28  and  C15_30 
ROOT
HETATM    1  C3  UNL     1      30.875  46.124  36.018  1.00  0.00     0.291 C 
HETATM    2  O2  UNL     1      30.377  47.060  35.292  1.00  0.00    -0.265 OA
HETATM    3  N1  UNL     1      30.128  45.055  36.450  1.00  0.00    -0.154 N 
ATOM      4  H1  UNL     1      29.978  45.100  37.457  1.00  0.00     0.187 HD
HETATM    5  C4  UNL     1      29.584  44.051  35.968  1.00  0.00     0.677 C 
HETATM    6  N2  UNL     1      29.589  43.667  34.619  1.00  0.00    -0.226 N 
ATOM      7  H2  UNL     1      28.735  43.240  34.260  1.00  0.00     0.177 HD
HETATM    8  N5  UNL     1      28.829  43.236  36.894  1.00  0.00    -0.222 N 
ATOM      9  H5  UNL     1      28.086  43.691  37.424  1.00  0.00     0.178 HD
ENDROOT
BRANCH   6  10
HETATM   10  C5  UNL     1      30.679  43.815  33.690  1.00  0.00     0.138 C 
BRANCH  10  11
HETATM   11  C6  UNL     1      30.158  44.168  32.327  1.00  0.00     0.020 C 
BRANCH  11  12
HETATM   12  C7  UNL     1      28.940  43.375  31.911  1.00  0.00     0.003 C 
BRANCH  12  13
HETATM   13  C8  UNL     1      28.802  43.406  30.430  1.00  0.00     0.017 C 
BRANCH  13  14
HETATM   14  C9  UNL     1      27.774  42.422  29.916  1.00  0.00     0.080 C 
HETATM   15  S1  UNL     1      27.329  42.783  28.181  1.00  0.00    -0.120 SA
HETATM   16  C10 UNL     1      28.175  41.324  27.440  1.00  0.00     0.336 C 
HETATM   17  N4  UNL     1      29.071  41.000  28.520  1.00  0.00    -0.049 N 
HETATM   18  C12 UNL     1      28.339  41.037  29.759  1.00  0.00     0.201 C 
ATOM     19  H42 UNL     1      29.548  40.109  28.377  1.00  0.00     0.279 HD
ATOM     20  H41 UNL     1      29.896  41.601  28.536  1.00  0.00     0.279 HD
BRANCH  16  21
HETATM   21  C11 UNL     1      28.902  41.690  26.232  1.00  0.00     0.272 C 
HETATM   22  N3  UNL     1      29.796  40.779  25.627  1.00  0.00    -0.059 NA
HETATM   23  O3  UNL     1      28.739  42.819  25.719  1.00  0.00    -0.274 OA
ENDBRANCH  16  21
BRANCH  18  24
HETATM   24  C13 UNL     1      27.314  39.959  29.889  1.00  0.00     0.030 C 
HETATM   25  C14 UNL     1      26.329  40.367  30.964  1.00  0.00     0.007 C 
ENDBRANCH  18  24
ENDBRANCH  13  14
ENDBRANCH  12  13
ENDBRANCH  11  12
ENDBRANCH  10  11
ENDBRANCH   6  10
BRANCH   8  26
HETATM   26  C15 UNL     1      29.041  41.862  37.120  1.00  0.00     0.099 C 
HETATM   27  C16 UNL     1      30.370  41.377  36.538  1.00  0.00     0.026 C 
HETATM   28  C17 UNL     1      30.645  40.052  37.234  1.00  0.00     0.002 C 
HETATM   29  C18 UNL     1      29.564  39.042  36.911  1.00  0.00     0.000 C 
HETATM   30  C19 UNL     1      28.184  39.565  37.194  1.00  0.00     0.002 C 
HETATM   31  C20 UNL     1      27.959  40.954  36.631  1.00  0.00     0.026 C 
ENDBRANCH   8  26
BRANCH   1  32
HETATM   32  C2  UNL     1      32.286  46.239  36.378  1.00  0.00     0.125 C 
HETATM   33  C1  UNL     1      32.680  46.841  37.487  1.00  0.00     0.056 C 
BRANCH  32  34
HETATM   34  O1  UNL     1      33.242  45.699  35.532  1.00  0.00    -0.356 OA
ATOM     35  H1  UNL     1      33.124  44.812  35.211  1.00  0.00     0.218 HD
ENDBRANCH  32  34
ENDBRANCH   1  32
TORSDOF 10
ENDMDL
MODEL 3
REMARK VINA RESULT: -7.793428817      3.107      8.347
REMARK  10 active torsions:
REMARK  status: ('A' for Active; 'I' for Inactive)
REMARK    1  A    between atoms: C2_2  and  O1_3 
REMARK    2  A    between atoms: C2_2  and  C3_5 
REMARK       I    between atoms: C3_5  and  N1_7 
REMARK       I    between atoms: C4_9  and  N2_10 
REMARK       I    between atoms: C4_9  and  N5_28 
REMARK    3  A    between atoms: N2_10  and  C5_12 
REMARK    4  A    between atoms: C5_12  and  C6_13 
REMARK    5  A    between atoms: C6_13  and  C7_14 
REMARK    6  A    between atoms: C7_14  and  C8_15 
REMARK    7  A    between atoms: C8_15  and  C9_16 
REMARK    8  A    between atoms: C10_18  and  C11_19 
REMARK    9  A    between atoms: C12_25  and  C13_26 
REMARK   10  A    between atoms: N5_28  and  C15_30 
ROOT
HETATM    1  C3  UNL     1      30.094  45.609  33.353  1.00  0.00     0.291 C 
HETATM    2  O2  UNL     1      28.911  46.104  33.283  1.00  0.00    -0.265 OA
HETATM    3  N1  UNL     1      31.151  46.304  33.889  1.00  0.00    -0.154 N 
ATOM      4  H1  UNL     1      31.821  46.562  33.165  1.00  0.00     0.187 HD
HETATM    5  C4  UNL     1      31.524  46.708  35.000  1.00  0.00     0.677 C 
HETATM    6  N2  UNL     1      30.856  46.530  36.219  1.00  0.00    -0.226 N 
ATOM      7  H2  UNL     1      30.899  47.303  36.884  1.00  0.00     0.177 HD
HETATM    8  N5  UNL     1      32.744  47.486  35.011  1.00  0.00    -0.222 N 
ATOM      9  H5  UNL     1      32.780  48.315  34.419  1.00  0.00     0.178 HD
ENDROOT
BRANCH   6  10
HETATM   10  C5  UNL     1      30.116  45.364  36.629  1.00  0.00     0.138 C 
BRANCH  10  11
HETATM   11  C6  UNL     1      30.965  44.133  36.490  1.00  0.00     0.020 C 
BRANCH  11  12
HETATM   12  C7  UNL     1      30.194  42.900  36.077  1.00  0.00     0.003 C 
BRANCH  12  13
HETATM   13  C8  UNL     1      29.203  42.550  37.130  1.00  0.00     0.017 C 
BRANCH  13  14
HETATM   14  C9  UNL     1      29.432  41.174  37.716  1.00  0.00     0.080 C 
HETATM   15  S1  UNL     1      27.876  40.471  38.367  1.00  0.00    -0.120 SA
HETATM   16  C10 UNL     1      27.662  39.191  37.060  1.00  0.00     0.336 C 
HETATM   17  N4  UNL     1      28.524  39.744  36.047  1.00  0.00    -0.049 N 
HETATM   18  C12 UNL     1      29.760  40.153  36.662  1.00  0.00     0.201 C 
ATOM     19  H42 UNL     1      28.671  39.102  35.268  1.00  0.00     0.279 HD
ATOM     20  H41 UNL     1      28.078  40.500  35.527  1.00  0.00     0.279 HD
BRANCH  16  21
HETATM   21  C11 UNL     1      26.279  39.122  36.607  1.00  0.00     0.272 C 
HETATM   22  N3  UNL     1      25.784  37.956  35.983  1.00  0.00    -0.059 NA
HETATM   23  O3  UNL     1      25.517  40.101  36.768  1.00  0.00    -0.274 OA
ENDBRANCH  16  21
BRANCH  18  24
HETATM   24  C13 UNL     1      30.588  39.019  37.171  1.00  0.00     0.030 C 
HETATM   25  C14 UNL     1      31.896  39.579  37.689  1.00  0.00     0.007 C 
ENDBRANCH  18  24
ENDBRANCH  13  14
ENDBRANCH  12  13
ENDBRANCH  11  12
ENDBRANCH  10  11
ENDBRANCH   6  10
BRANCH   8  26
HETATM   26  C15 UNL     1      33.887  47.184  35.777  1.00  0.00     0.099 C 
HETATM   27  C16 UNL     1      34.322  48.357  36.658  1.00  0.00     0.026 C 
HETATM   28  C17 UNL     1      35.238  47.744  37.706  1.00  0.00     0.002 C 
HETATM   29  C18 UNL     1      36.462  47.131  37.057  1.00  0.00     0.000 C 
HETATM   30  C19 UNL     1      36.108  46.161  35.964  1.00  0.00     0.002 C 
HETATM   31  C20 UNL     1      35.077  46.716  35.003  1.00  0.00     0.026 C 
ENDBRANCH   8  26
BRANCH   1  32
HETATM   32  C2  UNL     1      30.283  44.258  32.830  1.00  0.00     0.125 C 
HETATM   33  C1  UNL     1      29.325  43.615  32.185  1.00  0.00     0.056 C 
BRANCH  32  34
HETATM   34  O1  UNL     1      31.505  43.629  33.015  1.00  0.00    -0.356 OA
ATOM     35  H1  UNL     1      32.280  44.163  33.153  1.00  0.00     0.218 HD
ENDBRANCH  32  34
ENDBRANCH   1  32
TORSDOF 10
ENDMDL
MODEL 4
REMARK VINA RESULT: -7.791857525      4.299      8.228
REMARK  10 active torsions:
REMARK  status: ('A' for Active; 'I' for Inactive)
REMARK    1  A    between atoms: C2_2  and  O1_3 
REMARK    2  A    between atoms: C2_2  and  C3_5 
REMARK       I    between atoms: C3_5  and  N1_7 
REMARK       I    between atoms: C4_9  and  N2_10 
REMARK       I    between atoms: C4_9  and  N5_28 
REMARK    3  A    between atoms: N2_10  and  C5_12 
REMARK    4  A    between atoms: C5_12  and  C6_13 
REMARK    5  A    between atoms: C6_13  and  C7_14 
REMARK    6  A    between atoms: C7_14  and  C8_15 
REMARK    7  A    between atoms: C8_15  and  C9_16 
REMARK    8  A    between atoms: C10_18  and  C11_19 
REMARK    9  A    between atoms: C12_25  and  C13_26 
REMARK   10  A    between atoms: N5_28  and  C15_30 
ROOT
HETATM    1  C3  UNL     1      30.971  46.021  35.212  1.00  0.00     0.291 C 
HETATM    2  O2  UNL     1      30.367  47.027  34.691  1.00  0.00    -0.265 OA
HETATM    3  N1  UNL     1      30.292  44.936  35.712  1.00  0.00    -0.154 N 
ATOM      4  H1  UNL     1      30.368  44.897  36.728  1.00  0.00     0.187 HD
HETATM    5  C4  UNL     1      29.614  43.991  35.285  1.00  0.00     0.677 C 
HETATM    6  N2  UNL     1      29.307  43.726  33.943  1.00  0.00    -0.226 N 
ATOM      7  H2  UNL     1      28.377  43.352  33.749  1.00  0.00     0.177 HD
HETATM    8  N5  UNL     1      29.045  43.118  36.287  1.00  0.00    -0.222 N 
ATOM      9  H5  UNL     1      28.456  43.542  37.004  1.00  0.00     0.178 HD
ENDROOT
BRANCH   6  10
HETATM   10  C5  UNL     1      30.173  43.927  32.810  1.00  0.00     0.138 C 
BRANCH  10  11
HETATM   11  C6  UNL     1      29.409  43.743  31.530  1.00  0.00     0.020 C 
BRANCH  11  12
HETATM   12  C7  UNL     1      28.264  42.761  31.634  1.00  0.00     0.003 C 
BRANCH  12  13
HETATM   13  C8  UNL     1      27.413  42.850  30.418  1.00  0.00     0.017 C 
BRANCH  13  14
HETATM   14  C9  UNL     1      27.147  41.500  29.788  1.00  0.00     0.080 C 
HETATM   15  S1  UNL     1      26.763  41.669  28.009  1.00  0.00    -0.120 SA
HETATM   16  C10 UNL     1      28.340  40.951  27.384  1.00  0.00     0.336 C 
HETATM   17  N4  UNL     1      29.149  41.097  28.567  1.00  0.00    -0.049 N 
HETATM   18  C12 UNL     1      28.389  40.655  29.708  1.00  0.00     0.201 C 
ATOM     19  H42 UNL     1      30.046  40.618  28.488  1.00  0.00     0.279 HD
ATOM     20  H41 UNL     1      29.505  42.047  28.680  1.00  0.00     0.279 HD
BRANCH  16  21
HETATM   21  C11 UNL     1      28.872  41.726  26.272  1.00  0.00     0.272 C 
HETATM   22  N3  UNL     1      29.684  41.115  25.292  1.00  0.00    -0.059 NA
HETATM   23  O3  UNL     1      28.613  42.946  26.178  1.00  0.00    -0.274 OA
ENDBRANCH  16  21
BRANCH  18  24
HETATM   24  C13 UNL     1      28.111  39.188  29.718  1.00  0.00     0.030 C 
HETATM   25  C14 UNL     1      27.093  38.904  30.802  1.00  0.00     0.007 C 
ENDBRANCH  18  24
ENDBRANCH  13  14
ENDBRANCH  12  13
ENDBRANCH  11  12
ENDBRANCH  10  11
ENDBRANCH   6  10
BRANCH   8  26
HETATM   26  C15 UNL     1      29.242  41.724  36.351  1.00  0.00     0.099 C 
HETATM   27  C16 UNL     1      27.943  40.966  36.633  1.00  0.00     0.026 C 
HETATM   28  C17 UNL     1      28.231  39.528  36.229  1.00  0.00     0.002 C 
HETATM   29  C18 UNL     1      29.341  38.944  37.079  1.00  0.00     0.000 C 
HETATM   30  C19 UNL     1      30.577  39.799  37.079  1.00  0.00     0.002 C 
HETATM   31  C20 UNL     1      30.273  41.262  37.329  1.00  0.00     0.026 C 
ENDBRANCH   8  26
BRANCH   1  32
HETATM   32  C2  UNL     1      32.430  46.069  35.259  1.00  0.00     0.125 C 
HETATM   33  C1  UNL     1      33.089  46.287  36.383  1.00  0.00     0.056 C 
BRANCH  32  34
HETATM   34  O1  UNL     1      33.148  45.881  34.087  1.00  0.00    -0.356 OA
ATOM     35  H1  UNL     1      34.091  45.775  34.138  1.00  0.00     0.218 HD
ENDBRANCH  32  34
ENDBRANCH   1  32
TORSDOF 10
ENDMDL
MODEL 5
REMARK VINA RESULT: -7.712472165      4.461      8.692
REMARK  10 active torsions:
REMARK  status: ('A' for Active; 'I' for Inactive)
REMARK    1  A    between atoms: C2_2  and  O1_3 
REMARK    2  A    between atoms: C2_2  and  C3_5 
REMARK       I    between atoms: C3_5  and  N1_7 
REMARK       I    between atoms: C4_9  and  N2_10 
REMARK       I    between atoms: C4_9  and  N5_28 
REMARK    3  A    between atoms: N2_10  and  C5_12 
REMARK    4  A    between atoms: C5_12  and  C6_13 
REMARK    5  A    between atoms: C6_13  and  C7_14 
REMARK    6  A    between atoms: C7_14  and  C8_15 
REMARK    7  A    between atoms: C8_15  and  C9_16 
REMARK    8  A    between atoms: C10_18  and  C11_19 
REMARK    9  A    between atoms: C12_25  and  C13_26 
REMARK   10  A    between atoms: N5_28  and  C15_30 
ROOT
HETATM    1  C3  UNL     1      31.038  46.082  35.152  1.00  0.00     0.291 C 
HETATM    2  O2  UNL     1      30.476  46.985  34.432  1.00  0.00    -0.265 OA
HETATM    3  N1  UNL     1      30.318  45.114  35.809  1.00  0.00    -0.154 N 
ATOM      4  H1  UNL     1      30.352  45.259  36.818  1.00  0.00     0.187 HD
HETATM    5  C4  UNL     1      29.639  44.116  35.530  1.00  0.00     0.677 C 
HETATM    6  N2  UNL     1      29.382  43.615  34.246  1.00  0.00    -0.226 N 
ATOM      7  H2  UNL     1      28.454  43.224  34.082  1.00  0.00     0.177 HD
HETATM    8  N5  UNL     1      29.013  43.445  36.648  1.00  0.00    -0.222 N 
ATOM      9  H5  UNL     1      28.404  43.999  37.249  1.00  0.00     0.178 HD
ENDROOT
BRANCH   6  10
HETATM   10  C5  UNL     1      30.297  43.598  33.134  1.00  0.00     0.138 C 
BRANCH  10  11
HETATM   11  C6  UNL     1      29.593  44.006  31.872  1.00  0.00     0.020 C 
BRANCH  11  12
HETATM   12  C7  UNL     1      28.855  42.877  31.188  1.00  0.00     0.003 C 
BRANCH  12  13
HETATM   13  C8  UNL     1      28.496  43.278  29.802  1.00  0.00     0.017 C 
BRANCH  13  14
HETATM   14  C9  UNL     1      28.522  42.119  28.830  1.00  0.00     0.080 C 
HETATM   15  S1  UNL     1      27.088  41.016  29.084  1.00  0.00    -0.120 SA
HETATM   16  C10 UNL     1      26.194  41.474  27.541  1.00  0.00     0.336 C 
HETATM   17  N4  UNL     1      26.846  42.726  27.255  1.00  0.00    -0.049 N 
HETATM   18  C12 UNL     1      28.267  42.557  27.414  1.00  0.00     0.201 C 
ATOM     19  H42 UNL     1      26.598  43.095  26.337  1.00  0.00     0.279 HD
ATOM     20  H41 UNL     1      26.479  43.494  27.820  1.00  0.00     0.279 HD
BRANCH  16  21
HETATM   21  C11 UNL     1      24.769  41.656  27.787  1.00  0.00     0.272 C 
HETATM   22  N3  UNL     1      24.115  40.924  28.802  1.00  0.00    -0.059 NA
HETATM   23  O3  UNL     1      24.113  42.467  27.097  1.00  0.00    -0.274 OA
ENDBRANCH  16  21
BRANCH  18  24
HETATM   24  C13 UNL     1      28.887  41.659  26.394  1.00  0.00     0.030 C 
HETATM   25  C14 UNL     1      28.871  42.374  25.059  1.00  0.00     0.007 C 
ENDBRANCH  18  24
ENDBRANCH  13  14
ENDBRANCH  12  13
ENDBRANCH  11  12
ENDBRANCH  10  11
ENDBRANCH   6  10
BRANCH   8  26
HETATM   26  C15 UNL     1      29.180  42.084  36.970  1.00  0.00     0.099 C 
HETATM   27  C16 UNL     1      30.457  41.497  36.365  1.00  0.00     0.026 C 
HETATM   28  C17 UNL     1      30.713  40.218  37.149  1.00  0.00     0.002 C 
HETATM   29  C18 UNL     1      29.576  39.235  36.958  1.00  0.00     0.000 C 
HETATM   30  C19 UNL     1      28.235  39.840  37.265  1.00  0.00     0.002 C 
HETATM   31  C20 UNL     1      28.039  41.190  36.606  1.00  0.00     0.026 C 
ENDBRANCH   8  26
BRANCH   1  32
HETATM   32  C2  UNL     1      32.495  46.120  35.252  1.00  0.00     0.125 C 
HETATM   33  C1  UNL     1      33.116  46.188  36.417  1.00  0.00     0.056 C 
BRANCH  32  34
HETATM   34  O1  UNL     1      33.251  46.084  34.091  1.00  0.00    -0.356 OA
ATOM     35  H1  UNL     1      32.899  46.480  33.301  1.00  0.00     0.218 HD
ENDBRANCH  32  34
ENDBRANCH   1  32
TORSDOF 10
ENDMDL
