MODEL 1
REMARK VINA RESULT: -8.745249697      0.000      0.000
REMARK  9 active torsions:
REMARK  status: ('A' for Active; 'I' for Inactive)
REMARK       I    between atoms: N1_2  and  C2_4 
REMARK    1  A    between atoms: C2_4  and  C3_6 
REMARK       I    between atoms: N2_10  and  C7_11 
REMARK    2  A    between atoms: C7_11  and  C8_13 
REMARK    3  A    between atoms: C8_13  and  C9_14 
REMARK    4  A    between atoms: C8_13  and  N6_25 
REMARK    5  A    between atoms: C9_14  and  C10_15 
REMARK    6  A    between atoms: C10_15  and  C11_16 
REMARK    7  A    between atoms: C11_16  and  C12_17 
REMARK    8  A    between atoms: C12_17  and  N3_18 
REMARK       I    between atoms: N3_18  and  C13_20 
REMARK       I    between atoms: N6_25  and  C14_27 
REMARK    9  A    between atoms: C14_27  and  C15_29 
ROOT
HETATM    1  C8  UNL     1      30.236  44.102  33.303  1.00  0.00     0.176 C 
ENDROOT
BRANCH   1   2
HETATM    2  C7  UNL     1      29.912  45.404  33.897  1.00  0.00     0.243 C 
HETATM    3  N2  UNL     1      30.617  45.944  34.995  1.00  0.00    -0.337 N 
HETATM    4  C3  UNL     1      31.747  45.450  35.741  1.00  0.00     0.179 C 
HETATM    5  C6  UNL     1      30.284  47.232  35.632  1.00  0.00     0.127 C 
HETATM    6  C4  UNL     1      31.430  45.778  37.168  1.00  0.00     0.037 C 
HETATM    7  C5  UNL     1      30.423  46.878  37.072  1.00  0.00     0.022 C 
HETATM    8  O2  UNL     1      28.966  46.076  33.404  1.00  0.00    -0.271 OA
BRANCH   4   9
HETATM    9  C2  UNL     1      33.014  46.149  35.365  1.00  0.00     0.240 C 
HETATM   10  N1  UNL     1      33.846  46.693  36.374  1.00  0.00    -0.364 N 
HETATM   11  C1  UNL     1      35.091  47.384  36.062  1.00  0.00     0.149 C 
ATOM     12  H1  UNL     1      33.565  46.598  37.350  1.00  0.00     0.161 HD
HETATM   13  O1  UNL     1      33.375  46.279  34.169  1.00  0.00    -0.271 OA
ENDBRANCH   4   9
ENDBRANCH   1   2
BRANCH   1  14
HETATM   14  C9  UNL     1      30.564  43.046  34.376  1.00  0.00     0.035 C 
BRANCH  14  15
HETATM   15  C10 UNL     1      29.304  42.567  35.035  1.00  0.00     0.004 C 
BRANCH  15  16
HETATM   16  C11 UNL     1      29.448  42.631  36.524  1.00  0.00     0.020 C 
BRANCH  16  17
HETATM   17  C12 UNL     1      28.591  41.631  37.239  1.00  0.00     0.122 C 
BRANCH  17  18
HETATM   18  N3  UNL     1      28.507  40.348  36.602  1.00  0.00    -0.365 N 
HETATM   19  C13 UNL     1      29.293  39.225  36.943  1.00  0.00     0.181 C 
HETATM   20  N4  UNL     1      28.832  38.049  36.677  1.00  0.00    -0.374 N 
HETATM   21  N5  UNL     1      30.559  39.305  37.560  1.00  0.00    -0.064 NA
ATOM     22  H42 UNL     1      27.917  37.992  36.231  1.00  0.00     0.158 HD
ATOM     23  H41 UNL     1      29.399  37.238  36.923  1.00  0.00     0.158 HD
ATOM     24  H3  UNL     1      27.829  40.239  35.848  1.00  0.00     0.162 HD
ENDBRANCH  17  18
ENDBRANCH  16  17
ENDBRANCH  15  16
ENDBRANCH  14  15
ENDBRANCH   1  14
BRANCH   1  25
HETATM   25  N6  UNL     1      29.044  43.529  32.653  1.00  0.00    -0.347 N 
HETATM   26  C14 UNL     1      28.888  43.374  31.274  1.00  0.00     0.222 C 
HETATM   27  O3  UNL     1      29.808  43.736  30.505  1.00  0.00    -0.273 OA
ATOM     28  H6  UNL     1      28.278  43.224  33.254  1.00  0.00     0.163 HD
BRANCH  26  29
HETATM   29  C15 UNL     1      27.651  42.788  30.717  1.00  0.00     0.078 C 
HETATM   30  C16 UNL     1      27.780  41.283  30.739  1.00  0.00     0.014 C 
HETATM   31  C17 UNL     1      26.650  40.562  30.081  1.00  0.00     0.001 C 
HETATM   32  C18 UNL     1      25.549  41.445  29.584  1.00  0.00     0.000 C 
HETATM   33  C19 UNL     1      25.907  41.882  28.158  1.00  0.00     0.000 C 
HETATM   34  C20 UNL     1      27.345  42.385  28.249  1.00  0.00     0.001 C 
HETATM   35  C21 UNL     1      27.396  43.368  29.368  1.00  0.00     0.014 C 
ENDBRANCH  26  29
ENDBRANCH   1  25
TORSDOF 9
ENDMDL
MODEL 2
REMARK VINA RESULT: -8.348808378      1.182      1.578
REMARK  9 active torsions:
REMARK  status: ('A' for Active; 'I' for Inactive)
REMARK       I    between atoms: N1_2  and  C2_4 
REMARK    1  A    between atoms: C2_4  and  C3_6 
REMARK       I    between atoms: N2_10  and  C7_11 
REMARK    2  A    between atoms: C7_11  and  C8_13 
REMARK    3  A    between atoms: C8_13  and  C9_14 
REMARK    4  A    between atoms: C8_13  and  N6_25 
REMARK    5  A    between atoms: C9_14  and  C10_15 
REMARK    6  A    between atoms: C10_15  and  C11_16 
REMARK    7  A    between atoms: C11_16  and  C12_17 
REMARK    8  A    between atoms: C12_17  and  N3_18 
REMARK       I    between atoms: N3_18  and  C13_20 
REMARK       I    between atoms: N6_25  and  C14_27 
REMARK    9  A    between atoms: C14_27  and  C15_29 
ROOT
HETATM    1  C8  UNL     1      30.240  43.713  33.996  1.00  0.00     0.176 C 
ENDROOT
BRANCH   1   2
HETATM    2  C7  UNL     1      29.979  45.121  34.313  1.00  0.00     0.243 C 
HETATM    3  N2  UNL     1      30.737  45.850  35.256  1.00  0.00    -0.337 N 
HETATM    4  C3  UNL     1      31.876  45.479  36.058  1.00  0.00     0.179 C 
HETATM    5  C6  UNL     1      30.466  47.254  35.618  1.00  0.00     0.127 C 
HETATM    6  C4  UNL     1      31.618  46.107  37.393  1.00  0.00     0.037 C 
HETATM    7  C5  UNL     1      30.643  47.201  37.097  1.00  0.00     0.022 C 
HETATM    8  O2  UNL     1      29.038  45.712  33.717  1.00  0.00    -0.271 OA
BRANCH   4   9
HETATM    9  C2  UNL     1      33.151  46.036  35.510  1.00  0.00     0.240 C 
HETATM   10  N1  UNL     1      34.126  46.563  36.392  1.00  0.00    -0.364 N 
HETATM   11  C1  UNL     1      35.385  47.118  35.911  1.00  0.00     0.149 C 
ATOM     12  H1  UNL     1      33.941  46.554  37.395  1.00  0.00     0.161 HD
HETATM   13  O1  UNL     1      33.394  46.060  34.279  1.00  0.00    -0.271 OA
ENDBRANCH   4   9
ENDBRANCH   1   2
BRANCH   1  14
HETATM   14  C9  UNL     1      30.237  42.828  35.257  1.00  0.00     0.035 C 
BRANCH  14  15
HETATM   15  C10 UNL     1      28.921  42.120  35.391  1.00  0.00     0.004 C 
BRANCH  15  16
HETATM   16  C11 UNL     1      29.053  40.965  36.334  1.00  0.00     0.020 C 
BRANCH  16  17
HETATM   17  C12 UNL     1      30.417  40.864  36.947  1.00  0.00     0.122 C 
BRANCH  17  18
HETATM   18  N3  UNL     1      30.914  39.526  37.088  1.00  0.00    -0.365 N 
HETATM   19  C13 UNL     1      32.125  39.179  37.727  1.00  0.00     0.181 C 
HETATM   20  N4  UNL     1      32.242  37.991  38.219  1.00  0.00    -0.374 N 
HETATM   21  N5  UNL     1      33.225  40.053  37.865  1.00  0.00    -0.064 NA
ATOM     22  H42 UNL     1      31.447  37.360  38.119  1.00  0.00     0.158 HD
ATOM     23  H41 UNL     1      33.116  37.741  38.680  1.00  0.00     0.158 HD
ATOM     24  H3  UNL     1      30.352  38.770  36.698  1.00  0.00     0.162 HD
ENDBRANCH  17  18
ENDBRANCH  16  17
ENDBRANCH  15  16
ENDBRANCH  14  15
ENDBRANCH   1  14
BRANCH   1  25
HETATM   25  N6  UNL     1      29.125  43.151  33.215  1.00  0.00    -0.347 N 
HETATM   26  C14 UNL     1      29.052  43.149  31.821  1.00  0.00     0.222 C 
HETATM   27  O3  UNL     1      29.985  43.652  31.154  1.00  0.00    -0.273 OA
ATOM     28  H6  UNL     1      28.349  42.734  33.731  1.00  0.00     0.163 HD
BRANCH  26  29
HETATM   29  C15 UNL     1      27.887  42.561  31.128  1.00  0.00     0.078 C 
HETATM   30  C16 UNL     1      26.979  41.936  32.161  1.00  0.00     0.014 C 
HETATM   31  C17 UNL     1      25.822  41.187  31.586  1.00  0.00     0.001 C 
HETATM   32  C18 UNL     1      25.714  41.250  30.095  1.00  0.00     0.000 C 
HETATM   33  C19 UNL     1      26.554  40.105  29.516  1.00  0.00     0.000 C 
HETATM   34  C20 UNL     1      27.905  40.212  30.217  1.00  0.00     0.001 C 
HETATM   35  C21 UNL     1      28.363  41.623  30.072  1.00  0.00     0.014 C 
ENDBRANCH  26  29
ENDBRANCH   1  25
TORSDOF 9
ENDMDL
MODEL 3
REMARK VINA RESULT: -8.100723948      3.345      8.855
REMARK  9 active torsions:
REMARK  status: ('A' for Active; 'I' for Inactive)
REMARK       I    between atoms: N1_2  and  C2_4 
REMARK    1  A    between atoms: C2_4  and  C3_6 
REMARK       I    between atoms: N2_10  and  C7_11 
REMARK    2  A    between atoms: C7_11  and  C8_13 
REMARK    3  A    between atoms: C8_13  and  C9_14 
REMARK    4  A    between atoms: C8_13  and  N6_25 
REMARK    5  A    between atoms: C9_14  and  C10_15 
REMARK    6  A    between atoms: C10_15  and  C11_16 
REMARK    7  A    between atoms: C11_16  and  C12_17 
REMARK    8  A    between atoms: C12_17  and  N3_18 
REMARK       I    between atoms: N3_18  and  C13_20 
REMARK       I    between atoms: N6_25  and  C14_27 
REMARK    9  A    between atoms: C14_27  and  C15_29 
ROOT
HETATM    1  C8  UNL     1      28.228  42.429  31.556  1.00  0.00     0.176 C 
ENDROOT
BRANCH   1   2
HETATM    2  C7  UNL     1      27.312  41.448  32.147  1.00  0.00     0.243 C 
HETATM    3  N2  UNL     1      26.549  40.547  31.373  1.00  0.00    -0.337 N 
HETATM    4  C3  UNL     1      26.481  40.329  29.950  1.00  0.00     0.179 C 
HETATM    5  C6  UNL     1      25.593  39.579  31.944  1.00  0.00     0.127 C 
HETATM    6  C4  UNL     1      25.026  40.116  29.669  1.00  0.00     0.037 C 
HETATM    7  C5  UNL     1      24.456  39.710  30.990  1.00  0.00     0.022 C 
HETATM    8  O2  UNL     1      27.202  41.401  33.402  1.00  0.00    -0.271 OA
BRANCH   4   9
HETATM    9  C2  UNL     1      27.228  39.100  29.536  1.00  0.00     0.240 C 
HETATM   10  N1  UNL     1      26.561  38.079  28.816  1.00  0.00    -0.364 N 
HETATM   11  C1  UNL     1      27.240  36.863  28.389  1.00  0.00     0.149 C 
ATOM     12  H1  UNL     1      25.574  38.200  28.589  1.00  0.00     0.161 HD
HETATM   13  O1  UNL     1      28.441  38.933  29.810  1.00  0.00    -0.271 OA
ENDBRANCH   4   9
ENDBRANCH   1   2
BRANCH   1  14
HETATM   14  C9  UNL     1      27.569  43.212  30.405  1.00  0.00     0.035 C 
BRANCH  14  15
HETATM   15  C10 UNL     1      28.500  43.293  29.231  1.00  0.00     0.004 C 
BRANCH  15  16
HETATM   16  C11 UNL     1      27.738  43.098  27.957  1.00  0.00     0.020 C 
BRANCH  16  17
HETATM   17  C12 UNL     1      28.520  42.359  26.915  1.00  0.00     0.122 C 
BRANCH  17  18
HETATM   18  N3  UNL     1      28.725  40.967  27.193  1.00  0.00    -0.365 N 
HETATM   19  C13 UNL     1      29.705  40.158  26.576  1.00  0.00     0.181 C 
HETATM   20  N4  UNL     1      30.125  39.112  27.206  1.00  0.00    -0.374 N 
HETATM   21  N5  UNL     1      30.260  40.418  25.305  1.00  0.00    -0.064 NA
ATOM     22  H42 UNL     1      29.724  38.924  28.125  1.00  0.00     0.158 HD
ATOM     23  H41 UNL     1      30.832  38.528  26.761  1.00  0.00     0.158 HD
ATOM     24  H3  UNL     1      28.120  40.530  27.887  1.00  0.00     0.162 HD
ENDBRANCH  17  18
ENDBRANCH  16  17
ENDBRANCH  15  16
ENDBRANCH  14  15
ENDBRANCH   1  14
BRANCH   1  25
HETATM   25  N6  UNL     1      28.529  43.494  32.528  1.00  0.00    -0.347 N 
HETATM   26  C14 UNL     1      29.814  43.936  32.850  1.00  0.00     0.222 C 
HETATM   27  O3  UNL     1      30.805  43.413  32.291  1.00  0.00    -0.273 OA
ATOM     28  H6  UNL     1      27.742  43.941  33.000  1.00  0.00     0.163 HD
BRANCH  26  29
HETATM   29  C15 UNL     1      30.014  45.013  33.843  1.00  0.00     0.078 C 
HETATM   30  C16 UNL     1      31.370  45.636  33.610  1.00  0.00     0.014 C 
HETATM   31  C17 UNL     1      31.759  46.655  34.629  1.00  0.00     0.001 C 
HETATM   32  C18 UNL     1      30.712  46.943  35.658  1.00  0.00     0.000 C 
HETATM   33  C19 UNL     1      30.895  45.941  36.804  1.00  0.00     0.000 C 
HETATM   34  C20 UNL     1      30.984  44.577  36.126  1.00  0.00     0.001 C 
HETATM   35  C21 UNL     1      29.812  44.463  35.213  1.00  0.00     0.014 C 
ENDBRANCH  26  29
ENDBRANCH   1  25
TORSDOF 9
ENDMDL
MODEL 4
REMARK VINA RESULT: -7.892336818      4.886      9.289
REMARK  9 active torsions:
REMARK  status: ('A' for Active; 'I' for Inactive)
REMARK       I    between atoms: N1_2  and  C2_4 
REMARK    1  A    between atoms: C2_4  and  C3_6 
REMARK       I    between atoms: N2_10  and  C7_11 
REMARK    2  A    between atoms: C7_11  and  C8_13 
REMARK    3  A    between atoms: C8_13  and  C9_14 
REMARK    4  A    between atoms: C8_13  and  N6_25 
REMARK    5  A    between atoms: C9_14  and  C10_15 
REMARK    6  A    between atoms: C10_15  and  C11_16 
REMARK    7  A    between atoms: C11_16  and  C12_17 
REMARK    8  A    between atoms: C12_17  and  N3_18 
REMARK       I    between atoms: N3_18  and  C13_20 
REMARK       I    between atoms: N6_25  and  C14_27 
REMARK    9  A    between atoms: C14_27  and  C15_29 
ROOT
HETATM    1  C8  UNL     1      27.992  41.288  27.445  1.00  0.00     0.176 C 
ENDROOT
BRANCH   1   2
HETATM    2  C7  UNL     1      28.974  41.148  26.364  1.00  0.00     0.243 C 
HETATM    3  N2  UNL     1      29.675  39.948  26.114  1.00  0.00    -0.337 N 
HETATM    4  C3  UNL     1      29.612  38.655  26.747  1.00  0.00     0.179 C 
HETATM    5  C6  UNL     1      30.694  39.797  25.058  1.00  0.00     0.127 C 
HETATM    6  C4  UNL     1      31.038  38.204  26.828  1.00  0.00     0.037 C 
HETATM    7  C5  UNL     1      31.735  39.014  25.782  1.00  0.00     0.022 C 
HETATM    8  O2  UNL     1      29.201  42.141  25.620  1.00  0.00    -0.271 OA
BRANCH   4   9
HETATM    9  C2  UNL     1      28.849  37.666  25.926  1.00  0.00     0.240 C 
HETATM   10  N1  UNL     1      27.608  38.035  25.351  1.00  0.00    -0.364 N 
HETATM   11  C1  UNL     1      26.824  37.110  24.543  1.00  0.00     0.149 C 
ATOM     12  H1  UNL     1      27.252  38.978  25.508  1.00  0.00     0.161 HD
HETATM   13  O1  UNL     1      29.269  36.500  25.725  1.00  0.00    -0.271 OA
ENDBRANCH   4   9
ENDBRANCH   1   2
BRANCH   1  14
HETATM   14  C9  UNL     1      28.393  42.385  28.449  1.00  0.00     0.035 C 
BRANCH  14  15
HETATM   15  C10 UNL     1      27.171  43.077  28.978  1.00  0.00     0.004 C 
BRANCH  15  16
HETATM   16  C11 UNL     1      26.665  42.365  30.194  1.00  0.00     0.020 C 
BRANCH  16  17
HETATM   17  C12 UNL     1      27.728  42.142  31.226  1.00  0.00     0.122 C 
BRANCH  17  18
HETATM   18  N3  UNL     1      27.914  43.230  32.142  1.00  0.00    -0.365 N 
HETATM   19  C13 UNL     1      29.114  43.958  32.295  1.00  0.00     0.181 C 
HETATM   20  N4  UNL     1      29.047  45.165  32.750  1.00  0.00    -0.374 N 
HETATM   21  N5  UNL     1      30.393  43.450  31.981  1.00  0.00    -0.064 NA
ATOM     22  H42 UNL     1      28.123  45.532  32.976  1.00  0.00     0.158 HD
ATOM     23  H41 UNL     1      29.914  45.691  32.861  1.00  0.00     0.158 HD
ATOM     24  H3  UNL     1      27.121  43.498  32.725  1.00  0.00     0.162 HD
ENDBRANCH  17  18
ENDBRANCH  16  17
ENDBRANCH  15  16
ENDBRANCH  14  15
ENDBRANCH   1  14
BRANCH   1  25
HETATM   25  N6  UNL     1      26.718  41.800  26.912  1.00  0.00    -0.347 N 
HETATM   26  C14 UNL     1      25.622  41.004  26.569  1.00  0.00     0.222 C 
HETATM   27  O3  UNL     1      25.693  39.763  26.713  1.00  0.00    -0.273 OA
ATOM     28  H6  UNL     1      26.629  42.809  26.784  1.00  0.00     0.163 HD
BRANCH  26  29
HETATM   29  C15 UNL     1      24.385  41.614  26.039  1.00  0.00     0.078 C 
HETATM   30  C16 UNL     1      23.774  42.476  27.119  1.00  0.00     0.014 C 
HETATM   31  C17 UNL     1      22.443  43.052  26.763  1.00  0.00     0.001 C 
HETATM   32  C18 UNL     1      21.979  42.744  25.373  1.00  0.00     0.000 C 
HETATM   33  C19 UNL     1      21.226  41.409  25.418  1.00  0.00     0.000 C 
HETATM   34  C20 UNL     1      22.150  40.458  26.173  1.00  0.00     0.001 C 
HETATM   35  C21 UNL     1      23.489  40.541  25.523  1.00  0.00     0.014 C 
ENDBRANCH  26  29
ENDBRANCH   1  25
TORSDOF 9
ENDMDL
MODEL 5
REMARK VINA RESULT: -7.872035377      1.487      1.853
REMARK  9 active torsions:
REMARK  status: ('A' for Active; 'I' for Inactive)
REMARK       I    between atoms: N1_2  and  C2_4 
REMARK    1  A    between atoms: C2_4  and  C3_6 
REMARK       I    between atoms: N2_10  and  C7_11 
REMARK    2  A    between atoms: C7_11  and  C8_13 
REMARK    3  A    between atoms: C8_13  and  C9_14 
REMARK    4  A    between atoms: C8_13  and  N6_25 
REMARK    5  A    between atoms: C9_14  and  C10_15 
REMARK    6  A    between atoms: C10_15  and  C11_16 
REMARK    7  A    between atoms: C11_16  and  C12_17 
REMARK    8  A    between atoms: C12_17  and  N3_18 
REMARK       I    between atoms: N3_18  and  C13_20 
REMARK       I    between atoms: N6_25  and  C14_27 
REMARK    9  A    between atoms: C14_27  and  C15_29 
ROOT
HETATM    1  C8  UNL     1      30.262  43.454  35.031  1.00  0.00     0.176 C 
ENDROOT
BRANCH   1   2
HETATM    2  C7  UNL     1      30.028  44.726  35.723  1.00  0.00     0.243 C 
HETATM    3  N2  UNL     1      31.070  45.614  36.071  1.00  0.00    -0.337 N 
HETATM    4  C3  UNL     1      32.492  45.554  35.845  1.00  0.00     0.179 C 
HETATM    5  C6  UNL     1      30.862  46.879  36.801  1.00  0.00     0.127 C 
HETATM    6  C4  UNL     1      33.099  46.054  37.119  1.00  0.00     0.037 C 
HETATM    7  C5  UNL     1      32.002  46.842  37.759  1.00  0.00     0.022 C 
HETATM    8  O2  UNL     1      28.845  45.047  36.017  1.00  0.00    -0.271 OA
BRANCH   4   9
HETATM    9  C2  UNL     1      32.920  46.455  34.731  1.00  0.00     0.240 C 
HETATM   10  N1  UNL     1      34.155  47.143  34.815  1.00  0.00    -0.364 N 
HETATM   11  C1  UNL     1      34.619  48.033  33.758  1.00  0.00     0.149 C 
ATOM     12  H1  UNL     1      34.738  47.011  35.641  1.00  0.00     0.161 HD
HETATM   13  O1  UNL     1      32.213  46.634  33.708  1.00  0.00    -0.271 OA
ENDBRANCH   4   9
ENDBRANCH   1   2
BRANCH   1  14
HETATM   14  C9  UNL     1      30.017  42.245  35.953  1.00  0.00     0.035 C 
BRANCH  14  15
HETATM   15  C10 UNL     1      28.636  41.699  35.737  1.00  0.00     0.004 C 
BRANCH  15  16
HETATM   16  C11 UNL     1      28.270  40.772  36.854  1.00  0.00     0.020 C 
BRANCH  16  17
HETATM   17  C12 UNL     1      29.405  39.890  37.278  1.00  0.00     0.122 C 
BRANCH  17  18
HETATM   18  N3  UNL     1      29.227  38.498  36.984  1.00  0.00    -0.365 N 
HETATM   19  C13 UNL     1      28.188  37.692  37.498  1.00  0.00     0.181 C 
HETATM   20  N4  UNL     1      27.834  36.645  36.831  1.00  0.00    -0.374 N 
HETATM   21  N5  UNL     1      27.505  37.956  38.705  1.00  0.00    -0.064 NA
ATOM     22  H42 UNL     1      28.327  36.454  35.958  1.00  0.00     0.158 HD
ATOM     23  H41 UNL     1      27.084  36.063  37.202  1.00  0.00     0.158 HD
ATOM     24  H3  UNL     1      29.900  38.058  36.357  1.00  0.00     0.162 HD
ENDBRANCH  17  18
ENDBRANCH  16  17
ENDBRANCH  15  16
ENDBRANCH  14  15
ENDBRANCH   1  14
BRANCH   1  25
HETATM   25  N6  UNL     1      29.254  43.255  33.977  1.00  0.00    -0.347 N 
HETATM   26  C14 UNL     1      29.513  43.318  32.606  1.00  0.00     0.222 C 
HETATM   27  O3  UNL     1      30.676  43.559  32.209  1.00  0.00    -0.273 OA
ATOM     28  H6  UNL     1      28.296  43.056  34.269  1.00  0.00     0.163 HD
BRANCH  26  29
HETATM   29  C15 UNL     1      28.430  43.105  31.623  1.00  0.00     0.078 C 
HETATM   30  C16 UNL     1      27.377  42.224  32.253  1.00  0.00     0.014 C 
HETATM   31  C17 UNL     1      26.282  41.819  31.322  1.00  0.00     0.001 C 
HETATM   32  C18 UNL     1      26.371  42.416  29.952  1.00  0.00     0.000 C 
HETATM   33  C19 UNL     1      27.243  41.490  29.095  1.00  0.00     0.000 C 
HETATM   34  C20 UNL     1      28.494  41.239  29.932  1.00  0.00     0.001 C 
HETATM   35  C21 UNL     1      29.011  42.570  30.359  1.00  0.00     0.014 C 
ENDBRANCH  26  29
ENDBRANCH   1  25
TORSDOF 9
ENDMDL
