MODEL 1
REMARK VINA RESULT: -8.510758945      0.000      0.000
REMARK  9 active torsions:
REMARK  status: ('A' for Active; 'I' for Inactive)
REMARK    1  A    between atoms: C6_6  and  C8_8 
REMARK    2  A    between atoms: C8_8  and  N1_9 
REMARK       I    between atoms: N1_9  and  C9_11 
REMARK    3  A    between atoms: C9_11  and  C10_13 
REMARK    4  A    between atoms: C10_13  and  C11_14 
REMARK    5  A    between atoms: C10_13  and  N5_22 
REMARK    6  A    between atoms: C11_14  and  C12_15 
REMARK    7  A    between atoms: C12_15  and  C13_16 
REMARK    8  A    between atoms: C13_16  and  N2_17 
REMARK       I    between atoms: N5_22  and  C15_24 
REMARK    9  A    between atoms: C15_24  and  C16_26 
ROOT
HETATM    1  C10 UNL     1      29.751  43.182  33.806  1.00  0.00     0.177 C 
ENDROOT
BRANCH   1   2
HETATM    2  C9  UNL     1      30.236  44.623  33.724  1.00  0.00     0.244 C 
HETATM    3  N1  UNL     1      31.570  44.947  33.972  1.00  0.00    -0.338 N 
ATOM      4  H1  UNL     1      32.187  44.163  34.185  1.00  0.00     0.167 HD
HETATM    5  O1  UNL     1      29.318  45.425  33.415  1.00  0.00    -0.271 OA
BRANCH   3   6
HETATM    6  C8  UNL     1      32.163  46.199  33.967  1.00  0.00     0.073 C 
BRANCH   6   7
HETATM    7  C6  UNL     1      32.852  46.797  35.120  1.00  0.00    -0.012 C 
HETATM    8  C5  UNL     1      33.421  45.890  36.120  1.00  0.00     0.015 C 
HETATM    9  C4  UNL     1      33.971  46.614  37.351  1.00  0.00     0.010 C 
HETATM   10  C2  UNL     1      34.902  47.732  37.008  1.00  0.00    -0.048 C 
HETATM   11  C1  UNL     1      36.246  47.607  37.712  1.00  0.00     0.015 C 
HETATM   12  C3  UNL     1      34.373  49.105  37.333  1.00  0.00     0.015 C 
HETATM   13  C22 UNL     1      35.198  47.646  35.523  1.00  0.00     0.010 C 
HETATM   14  C21 UNL     1      33.957  47.768  34.697  1.00  0.00     0.015 C 
HETATM   15  C7  UNL     1      31.749  47.629  35.842  1.00  0.00     0.021 C 
ENDBRANCH   6   7
ENDBRANCH   3   6
ENDBRANCH   1   2
BRANCH   1  16
HETATM   16  C11 UNL     1      29.348  42.809  35.205  1.00  0.00     0.036 C 
BRANCH  16  17
HETATM   17  C12 UNL     1      30.370  42.103  36.018  1.00  0.00     0.022 C 
BRANCH  17  18
HETATM   18  C13 UNL     1      29.743  40.889  36.705  1.00  0.00     0.122 C 
BRANCH  18  19
HETATM   19  N2  UNL     1      28.382  40.706  36.322  1.00  0.00    -0.367 N 
HETATM   20  C14 UNL     1      27.481  40.396  37.171  1.00  0.00     0.196 C 
HETATM   21  N3  UNL     1      26.120  40.214  36.779  1.00  0.00    -0.067 NA
HETATM   22  N4  UNL     1      27.824  40.226  38.548  1.00  0.00    -0.067 NA
ATOM     23  H2  UNL     1      28.121  40.825  35.342  1.00  0.00     0.161 HD
ENDBRANCH  18  19
ENDBRANCH  17  18
ENDBRANCH  16  17
ENDBRANCH   1  16
BRANCH   1  24
HETATM   24  N5  UNL     1      28.539  43.030  32.982  1.00  0.00    -0.346 N 
HETATM   25  C15 UNL     1      28.645  42.639  31.629  1.00  0.00     0.254 C 
HETATM   26  O2  UNL     1      29.815  42.425  31.160  1.00  0.00    -0.271 OA
ATOM     27  H5  UNL     1      27.620  43.206  33.390  1.00  0.00     0.163 HD
BRANCH  25  28
HETATM   28  C16 UNL     1      27.504  42.463  30.725  1.00  0.00     0.201 C 
HETATM   29  C17 UNL     1      27.531  43.325  29.498  1.00  0.00     0.057 C 
HETATM   30  C18 UNL     1      27.496  41.005  30.293  1.00  0.00     0.050 C 
HETATM   31  C19 UNL     1      26.705  40.388  31.425  1.00  0.00     0.030 C 
HETATM   32  C20 UNL     1      25.665  41.412  31.721  1.00  0.00     0.234 C 
HETATM   33  N6  UNL     1      26.267  42.671  31.424  1.00  0.00    -0.058 N 
ATOM     34  H62 UNL     1      26.389  43.245  32.259  1.00  0.00     0.278 HD
ATOM     35  H61 UNL     1      25.635  43.288  30.913  1.00  0.00     0.278 HD
ENDBRANCH  25  28
ENDBRANCH   1  24
TORSDOF 9
ENDMDL
MODEL 2
REMARK VINA RESULT: -8.212619295      1.982      8.205
REMARK  9 active torsions:
REMARK  status: ('A' for Active; 'I' for Inactive)
REMARK    1  A    between atoms: C6_6  and  C8_8 
REMARK    2  A    between atoms: C8_8  and  N1_9 
REMARK       I    between atoms: N1_9  and  C9_11 
REMARK    3  A    between atoms: C9_11  and  C10_13 
REMARK    4  A    between atoms: C10_13  and  C11_14 
REMARK    5  A    between atoms: C10_13  and  N5_22 
REMARK    6  A    between atoms: C11_14  and  C12_15 
REMARK    7  A    between atoms: C12_15  and  C13_16 
REMARK    8  A    between atoms: C13_16  and  N2_17 
REMARK       I    between atoms: N5_22  and  C15_24 
REMARK    9  A    between atoms: C15_24  and  C16_26 
ROOT
HETATM    1  C10 UNL     1      30.210  43.533  34.856  1.00  0.00     0.177 C 
ENDROOT
BRANCH   1   2
HETATM    2  C9  UNL     1      29.991  43.458  33.351  1.00  0.00     0.244 C 
HETATM    3  N1  UNL     1      28.704  43.418  32.814  1.00  0.00    -0.338 N 
ATOM      4  H1  UNL     1      27.939  43.465  33.487  1.00  0.00     0.167 HD
HETATM    5  O1  UNL     1      31.070  43.443  32.706  1.00  0.00    -0.271 OA
BRANCH   3   6
HETATM    6  C8  UNL     1      28.334  43.323  31.483  1.00  0.00     0.073 C 
BRANCH   6   7
HETATM    7  C6  UNL     1      27.405  42.316  30.948  1.00  0.00    -0.012 C 
HETATM    8  C5  UNL     1      27.921  40.962  30.729  1.00  0.00     0.015 C 
HETATM    9  C4  UNL     1      26.922  40.041  30.023  1.00  0.00     0.010 C 
HETATM   10  C2  UNL     1      25.574  40.035  30.666  1.00  0.00    -0.048 C 
HETATM   11  C1  UNL     1      25.102  38.630  31.017  1.00  0.00     0.015 C 
HETATM   12  C3  UNL     1      24.483  40.657  29.831  1.00  0.00     0.015 C 
HETATM   13  C22 UNL     1      25.686  40.780  31.982  1.00  0.00     0.010 C 
HETATM   14  C21 UNL     1      26.132  42.195  31.788  1.00  0.00     0.015 C 
HETATM   15  C7  UNL     1      26.994  42.872  29.551  1.00  0.00     0.021 C 
ENDBRANCH   6   7
ENDBRANCH   3   6
ENDBRANCH   1   2
BRANCH   1  16
HETATM   16  C11 UNL     1      30.014  44.928  35.380  1.00  0.00     0.036 C 
BRANCH  16  17
HETATM   17  C12 UNL     1      30.478  45.181  36.767  1.00  0.00     0.022 C 
BRANCH  17  18
HETATM   18  C13 UNL     1      31.396  46.405  36.794  1.00  0.00     0.122 C 
BRANCH  18  19
HETATM   19  N2  UNL     1      32.058  46.600  35.547  1.00  0.00    -0.367 N 
HETATM   20  C14 UNL     1      33.312  46.402  35.413  1.00  0.00     0.196 C 
HETATM   21  N3  UNL     1      33.968  46.600  34.160  1.00  0.00    -0.067 NA
HETATM   22  N4  UNL     1      34.091  45.970  36.531  1.00  0.00    -0.067 NA
ATOM     23  H2  UNL     1      31.515  46.907  34.739  1.00  0.00     0.161 HD
ENDBRANCH  18  19
ENDBRANCH  17  18
ENDBRANCH  16  17
ENDBRANCH   1  16
BRANCH   1  24
HETATM   24  N5  UNL     1      29.201  42.700  35.535  1.00  0.00    -0.346 N 
HETATM   25  C15 UNL     1      29.596  41.550  36.253  1.00  0.00     0.254 C 
HETATM   26  O2  UNL     1      30.842  41.269  36.290  1.00  0.00    -0.271 OA
ATOM     27  H5  UNL     1      28.214  42.956  35.487  1.00  0.00     0.163 HD
BRANCH  25  28
HETATM   28  C16 UNL     1      28.672  40.656  36.958  1.00  0.00     0.201 C 
HETATM   29  C17 UNL     1      28.551  40.907  38.432  1.00  0.00     0.057 C 
HETATM   30  C18 UNL     1      27.303  40.834  36.322  1.00  0.00     0.050 C 
HETATM   31  C19 UNL     1      27.400  39.847  35.180  1.00  0.00     0.030 C 
HETATM   32  C20 UNL     1      28.155  38.707  35.770  1.00  0.00     0.234 C 
HETATM   33  N6  UNL     1      29.030  39.282  36.739  1.00  0.00    -0.058 N 
ATOM     34  H62 UNL     1      30.011  39.177  36.480  1.00  0.00     0.278 HD
ATOM     35  H61 UNL     1      29.048  38.746  37.607  1.00  0.00     0.278 HD
ENDBRANCH  25  28
ENDBRANCH   1  24
TORSDOF 9
ENDMDL
MODEL 3
REMARK VINA RESULT: -8.206833491      1.077      1.480
REMARK  9 active torsions:
REMARK  status: ('A' for Active; 'I' for Inactive)
REMARK    1  A    between atoms: C6_6  and  C8_8 
REMARK    2  A    between atoms: C8_8  and  N1_9 
REMARK       I    between atoms: N1_9  and  C9_11 
REMARK    3  A    between atoms: C9_11  and  C10_13 
REMARK    4  A    between atoms: C10_13  and  C11_14 
REMARK    5  A    between atoms: C10_13  and  N5_22 
REMARK    6  A    between atoms: C11_14  and  C12_15 
REMARK    7  A    between atoms: C12_15  and  C13_16 
REMARK    8  A    between atoms: C13_16  and  N2_17 
REMARK       I    between atoms: N5_22  and  C15_24 
REMARK    9  A    between atoms: C15_24  and  C16_26 
ROOT
HETATM    1  C10 UNL     1      29.885  43.270  33.729  1.00  0.00     0.177 C 
ENDROOT
BRANCH   1   2
HETATM    2  C9  UNL     1      30.346  44.721  33.695  1.00  0.00     0.244 C 
HETATM    3  N1  UNL     1      31.678  45.057  33.941  1.00  0.00    -0.338 N 
ATOM      4  H1  UNL     1      32.309  44.276  34.118  1.00  0.00     0.167 HD
HETATM    5  O1  UNL     1      29.413  45.519  33.426  1.00  0.00    -0.271 OA
BRANCH   3   6
HETATM    6  C8  UNL     1      32.251  46.318  33.976  1.00  0.00     0.073 C 
BRANCH   6   7
HETATM    7  C6  UNL     1      32.931  46.890  35.147  1.00  0.00    -0.012 C 
HETATM    8  C5  UNL     1      33.491  45.961  36.131  1.00  0.00     0.015 C 
HETATM    9  C4  UNL     1      34.030  46.658  37.383  1.00  0.00     0.010 C 
HETATM   10  C2  UNL     1      34.964  47.782  37.072  1.00  0.00    -0.048 C 
HETATM   11  C1  UNL     1      36.302  47.641  37.786  1.00  0.00     0.015 C 
HETATM   12  C3  UNL     1      34.432  49.149  37.424  1.00  0.00     0.015 C 
HETATM   13  C22 UNL     1      35.273  47.730  35.589  1.00  0.00     0.010 C 
HETATM   14  C21 UNL     1      34.039  47.870  34.755  1.00  0.00     0.015 C 
HETATM   15  C7  UNL     1      31.821  47.706  35.878  1.00  0.00     0.021 C 
ENDBRANCH   6   7
ENDBRANCH   3   6
ENDBRANCH   1   2
BRANCH   1  16
HETATM   16  C11 UNL     1      29.539  42.828  35.124  1.00  0.00     0.036 C 
BRANCH  16  17
HETATM   17  C12 UNL     1      28.537  41.739  35.238  1.00  0.00     0.022 C 
BRANCH  17  18
HETATM   18  C13 UNL     1      28.837  40.881  36.469  1.00  0.00     0.122 C 
BRANCH  18  19
HETATM   19  N2  UNL     1      30.234  40.832  36.754  1.00  0.00    -0.367 N 
HETATM   20  C14 UNL     1      30.777  39.800  37.273  1.00  0.00     0.196 C 
HETATM   21  N3  UNL     1      32.176  39.758  37.555  1.00  0.00    -0.067 NA
HETATM   22  N4  UNL     1      29.982  38.653  37.584  1.00  0.00    -0.067 NA
ATOM     23  H2  UNL     1      30.815  41.642  36.536  1.00  0.00     0.161 HD
ENDBRANCH  18  19
ENDBRANCH  17  18
ENDBRANCH  16  17
ENDBRANCH   1  16
BRANCH   1  24
HETATM   24  N5  UNL     1      28.646  43.135  32.943  1.00  0.00    -0.346 N 
HETATM   25  C15 UNL     1      28.699  42.686  31.606  1.00  0.00     0.254 C 
HETATM   26  O2  UNL     1      29.846  42.403  31.117  1.00  0.00    -0.271 OA
ATOM     27  H5  UNL     1      27.747  43.368  33.366  1.00  0.00     0.163 HD
BRANCH  25  28
HETATM   28  C16 UNL     1      27.527  42.521  30.739  1.00  0.00     0.201 C 
HETATM   29  C17 UNL     1      27.533  43.369  29.502  1.00  0.00     0.057 C 
HETATM   30  C18 UNL     1      27.479  41.059  30.325  1.00  0.00     0.050 C 
HETATM   31  C19 UNL     1      26.712  40.470  31.487  1.00  0.00     0.030 C 
HETATM   32  C20 UNL     1      25.702  41.516  31.803  1.00  0.00     0.234 C 
HETATM   33  N6  UNL     1      26.317  42.760  31.474  1.00  0.00    -0.058 N 
ATOM     34  H62 UNL     1      26.475  43.341  32.297  1.00  0.00     0.278 HD
ATOM     35  H61 UNL     1      25.681  43.383  30.974  1.00  0.00     0.278 HD
ENDBRANCH  25  28
ENDBRANCH   1  24
TORSDOF 9
ENDMDL
MODEL 4
REMARK VINA RESULT: -8.117812042      2.044      8.022
REMARK  9 active torsions:
REMARK  status: ('A' for Active; 'I' for Inactive)
REMARK    1  A    between atoms: C6_6  and  C8_8 
REMARK    2  A    between atoms: C8_8  and  N1_9 
REMARK       I    between atoms: N1_9  and  C9_11 
REMARK    3  A    between atoms: C9_11  and  C10_13 
REMARK    4  A    between atoms: C10_13  and  C11_14 
REMARK    5  A    between atoms: C10_13  and  N5_22 
REMARK    6  A    between atoms: C11_14  and  C12_15 
REMARK    7  A    between atoms: C12_15  and  C13_16 
REMARK    8  A    between atoms: C13_16  and  N2_17 
REMARK       I    between atoms: N5_22  and  C15_24 
REMARK    9  A    between atoms: C15_24  and  C16_26 
ROOT
HETATM    1  C10 UNL     1      30.217  44.592  35.127  1.00  0.00     0.177 C 
ENDROOT
BRANCH   1   2
HETATM    2  C9  UNL     1      30.316  44.567  33.607  1.00  0.00     0.244 C 
HETATM    3  N1  UNL     1      29.310  43.989  32.832  1.00  0.00    -0.338 N 
ATOM      4  H1  UNL     1      28.512  43.614  33.345  1.00  0.00     0.167 HD
HETATM    5  O1  UNL     1      31.366  45.111  33.182  1.00  0.00    -0.271 OA
BRANCH   3   6
HETATM    6  C8  UNL     1      29.259  43.858  31.454  1.00  0.00     0.073 C 
BRANCH   6   7
HETATM    7  C6  UNL     1      28.334  42.969  30.737  1.00  0.00    -0.012 C 
HETATM    8  C5  UNL     1      27.483  43.562  29.702  1.00  0.00     0.015 C 
HETATM    9  C4  UNL     1      26.451  42.584  29.134  1.00  0.00     0.010 C 
HETATM   10  C2  UNL     1      27.049  41.287  28.697  1.00  0.00    -0.048 C 
HETATM   11  C1  UNL     1      26.701  40.941  27.256  1.00  0.00     0.015 C 
HETATM   12  C3  UNL     1      26.641  40.100  29.534  1.00  0.00     0.015 C 
HETATM   13  C22 UNL     1      28.558  41.436  28.739  1.00  0.00     0.010 C 
HETATM   14  C21 UNL     1      29.049  41.768  30.113  1.00  0.00     0.015 C 
HETATM   15  C7  UNL     1      27.383  42.424  31.845  1.00  0.00     0.021 C 
ENDBRANCH   6   7
ENDBRANCH   3   6
ENDBRANCH   1   2
BRANCH   1  16
HETATM   16  C11 UNL     1      29.694  45.909  35.629  1.00  0.00     0.036 C 
BRANCH  16  17
HETATM   17  C12 UNL     1      30.515  46.591  36.662  1.00  0.00     0.022 C 
BRANCH  17  18
HETATM   18  C13 UNL     1      31.976  46.155  36.540  1.00  0.00     0.122 C 
BRANCH  18  19
HETATM   19  N2  UNL     1      32.628  46.787  35.440  1.00  0.00    -0.367 N 
HETATM   20  C14 UNL     1      33.890  46.702  35.269  1.00  0.00     0.196 C 
HETATM   21  N3  UNL     1      34.536  47.338  34.165  1.00  0.00    -0.067 NA
HETATM   22  N4  UNL     1      34.689  45.957  36.191  1.00  0.00    -0.067 NA
ATOM     23  H2  UNL     1      32.071  47.320  34.772  1.00  0.00     0.161 HD
ENDBRANCH  18  19
ENDBRANCH  17  18
ENDBRANCH  16  17
ENDBRANCH   1  16
BRANCH   1  24
HETATM   24  N5  UNL     1      29.244  43.577  35.567  1.00  0.00    -0.346 N 
HETATM   25  C15 UNL     1      29.646  42.233  35.730  1.00  0.00     0.254 C 
HETATM   26  O2  UNL     1      30.866  41.942  35.487  1.00  0.00    -0.271 OA
ATOM     27  H5  UNL     1      28.278  43.845  35.755  1.00  0.00     0.163 HD
BRANCH  25  28
HETATM   28  C16 UNL     1      28.756  41.149  36.159  1.00  0.00     0.201 C 
HETATM   29  C17 UNL     1      27.845  40.620  35.092  1.00  0.00     0.057 C 
HETATM   30  C18 UNL     1      29.640  40.012  36.649  1.00  0.00     0.050 C 
HETATM   31  C19 UNL     1      29.845  40.425  38.089  1.00  0.00     0.030 C 
HETATM   32  C20 UNL     1      28.522  40.984  38.482  1.00  0.00     0.234 C 
HETATM   33  N6  UNL     1      27.975  41.553  37.294  1.00  0.00    -0.058 N 
ATOM     34  H62 UNL     1      27.887  42.567  37.359  1.00  0.00     0.278 HD
ATOM     35  H61 UNL     1      26.986  41.327  37.180  1.00  0.00     0.278 HD
ENDBRANCH  25  28
ENDBRANCH   1  24
TORSDOF 9
ENDMDL
MODEL 5
REMARK VINA RESULT: -8.098095692      5.808     10.290
REMARK  9 active torsions:
REMARK  status: ('A' for Active; 'I' for Inactive)
REMARK    1  A    between atoms: C6_6  and  C8_8 
REMARK    2  A    between atoms: C8_8  and  N1_9 
REMARK       I    between atoms: N1_9  and  C9_11 
REMARK    3  A    between atoms: C9_11  and  C10_13 
REMARK    4  A    between atoms: C10_13  and  C11_14 
REMARK    5  A    between atoms: C10_13  and  N5_22 
REMARK    6  A    between atoms: C11_14  and  C12_15 
REMARK    7  A    between atoms: C12_15  and  C13_16 
REMARK    8  A    between atoms: C13_16  and  N2_17 
REMARK       I    between atoms: N5_22  and  C15_24 
REMARK    9  A    between atoms: C15_24  and  C16_26 
ROOT
HETATM    1  C10 UNL     1      27.887  41.886  27.171  1.00  0.00     0.177 C 
ENDROOT
BRANCH   1   2
HETATM    2  C9  UNL     1      28.939  41.601  26.107  1.00  0.00     0.244 C 
HETATM    3  N1  UNL     1      29.596  40.370  26.059  1.00  0.00    -0.338 N 
ATOM      4  H1  UNL     1      29.310  39.685  26.757  1.00  0.00     0.167 HD
HETATM    5  O1  UNL     1      29.114  42.571  25.328  1.00  0.00    -0.271 OA
BRANCH   3   6
HETATM    6  C8  UNL     1      30.588  39.963  25.182  1.00  0.00     0.073 C 
BRANCH   6   7
HETATM    7  C6  UNL     1      31.177  38.616  25.160  1.00  0.00    -0.012 C 
HETATM    8  C5  UNL     1      32.382  38.413  24.352  1.00  0.00     0.015 C 
HETATM    9  C4  UNL     1      32.816  36.947  24.271  1.00  0.00     0.010 C 
HETATM   10  C2  UNL     1      32.916  36.290  25.610  1.00  0.00    -0.048 C 
HETATM   11  C1  UNL     1      34.276  35.646  25.841  1.00  0.00     0.015 C 
HETATM   12  C3  UNL     1      31.886  35.217  25.855  1.00  0.00     0.015 C 
HETATM   13  C22 UNL     1      32.779  37.370  26.666  1.00  0.00     0.010 C 
HETATM   14  C21 UNL     1      31.470  38.087  26.566  1.00  0.00     0.015 C 
HETATM   15  C7  UNL     1      30.064  37.717  24.544  1.00  0.00     0.021 C 
ENDBRANCH   6   7
ENDBRANCH   3   6
ENDBRANCH   1   2
BRANCH   1  16
HETATM   16  C11 UNL     1      28.136  43.196  27.864  1.00  0.00     0.036 C 
BRANCH  16  17
HETATM   17  C12 UNL     1      27.713  43.280  29.284  1.00  0.00     0.022 C 
BRANCH  17  18
HETATM   18  C13 UNL     1      28.942  43.313  30.194  1.00  0.00     0.122 C 
BRANCH  18  19
HETATM   19  N2  UNL     1      28.801  44.269  31.243  1.00  0.00    -0.367 N 
HETATM   20  C14 UNL     1      29.602  44.300  32.235  1.00  0.00     0.196 C 
HETATM   21  N3  UNL     1      29.454  45.261  33.282  1.00  0.00    -0.067 NA
HETATM   22  N4  UNL     1      30.678  43.361  32.316  1.00  0.00    -0.067 NA
ATOM     23  H2  UNL     1      28.039  44.947  31.198  1.00  0.00     0.161 HD
ENDBRANCH  18  19
ENDBRANCH  17  18
ENDBRANCH  16  17
ENDBRANCH   1  16
BRANCH   1  24
HETATM   24  N5  UNL     1      26.568  42.013  26.528  1.00  0.00    -0.346 N 
HETATM   25  C15 UNL     1      25.680  40.915  26.506  1.00  0.00     0.254 C 
HETATM   26  O2  UNL     1      26.062  39.829  27.061  1.00  0.00    -0.271 OA
ATOM     27  H5  UNL     1      26.294  42.896  26.097  1.00  0.00     0.163 HD
BRANCH  25  28
HETATM   28  C16 UNL     1      24.349  40.937  25.890  1.00  0.00     0.201 C 
HETATM   29  C17 UNL     1      24.227  40.143  24.623  1.00  0.00     0.057 C 
HETATM   30  C18 UNL     1      23.373  40.374  26.912  1.00  0.00     0.050 C 
HETATM   31  C19 UNL     1      23.041  41.626  27.692  1.00  0.00     0.030 C 
HETATM   32  C20 UNL     1      22.989  42.684  26.646  1.00  0.00     0.234 C 
HETATM   33  N6  UNL     1      23.926  42.287  25.647  1.00  0.00    -0.058 N 
ATOM     34  H62 UNL     1      24.714  42.931  25.582  1.00  0.00     0.278 HD
ATOM     35  H61 UNL     1      23.557  42.410  24.704  1.00  0.00     0.278 HD
ENDBRANCH  25  28
ENDBRANCH   1  24
TORSDOF 9
ENDMDL
