MODEL 1
REMARK VINA RESULT: -8.871539336      0.000      0.000
REMARK  9 active torsions:
REMARK  status: ('A' for Active; 'I' for Inactive)
REMARK    1  A    between atoms: C5_5  and  C6_6 
REMARK       I    between atoms: C6_6  and  N1_8 
REMARK    2  A    between atoms: N1_8  and  C7_9 
REMARK    3  A    between atoms: C7_9  and  C8_10 
REMARK       I    between atoms: C8_10  and  N2_12 
REMARK    4  A    between atoms: N2_12  and  C9_14 
REMARK    5  A    between atoms: C9_14  and  C10_15 
REMARK    6  A    between atoms: C10_15  and  C11_16 
REMARK    7  A    between atoms: C11_16  and  C12_17 
REMARK    8  A    between atoms: C16_24  and  C17_25 
REMARK       I    between atoms: C17_25  and  N4_27 
REMARK    9  A    between atoms: N4_27  and  C18_29 
ROOT
HETATM    1  C1  UNL     1      33.800  46.397  36.563  1.00  0.00     0.040 C 
HETATM    2  C2  UNL     1      32.382  46.484  35.970  1.00  0.00     0.183 C 
HETATM    3  C3  UNL     1      31.512  46.915  37.136  1.00  0.00     0.033 C 
HETATM    4  C4  UNL     1      30.037  46.834  36.820  1.00  0.00     0.020 C 
HETATM    5  C5  UNL     1      29.709  45.574  36.003  1.00  0.00     0.133 C 
HETATM    6  C16 UNL     1      30.898  44.681  36.098  1.00  0.00     0.291 C 
HETATM    7  N5  UNL     1      32.025  45.223  35.431  1.00  0.00    -0.058 N 
ATOM      8  H51 UNL     1      32.813  44.575  35.439  1.00  0.00     0.278 HD
ATOM      9  H52 UNL     1      31.875  45.273  34.424  1.00  0.00     0.278 HD
ENDROOT
BRANCH   5  10
HETATM   10  C6  UNL     1      29.471  46.122  34.604  1.00  0.00     0.298 C 
HETATM   11  O1  UNL     1      28.899  47.201  34.442  1.00  0.00    -0.257 OA
HETATM   12  N1  UNL     1      29.948  45.306  33.603  1.00  0.00    -0.378 NA
BRANCH  12  13
HETATM   13  C7  UNL     1      30.411  44.514  32.588  1.00  0.00     0.260 C 
BRANCH  13  14
HETATM   14  C8  UNL     1      29.594  43.363  32.114  1.00  0.00     0.270 C 
HETATM   15  O2  UNL     1      29.861  42.666  31.127  1.00  0.00    -0.266 OA
HETATM   16  N2  UNL     1      28.436  43.083  32.877  1.00  0.00    -0.356 N 
ATOM     17  H2  UNL     1      28.239  43.669  33.689  1.00  0.00     0.162 HD
BRANCH  16  18
HETATM   18  C9  UNL     1      27.538  42.036  32.575  1.00  0.00     0.123 C 
BRANCH  18  19
HETATM   19  C10 UNL     1      26.439  42.354  31.638  1.00  0.00     0.022 C 
BRANCH  19  20
HETATM   20  C11 UNL     1      26.582  41.971  30.215  1.00  0.00     0.034 C 
BRANCH  20  21
HETATM   21  C12 UNL     1      26.621  43.026  29.183  1.00  0.00     0.186 C 
HETATM   22  C13 UNL     1      26.104  42.496  27.846  1.00  0.00     0.034 C 
HETATM   23  C14 UNL     1      27.315  42.161  27.058  1.00  0.00     0.029 C 
HETATM   24  C15 UNL     1      28.477  42.356  27.990  1.00  0.00     0.233 C 
HETATM   25  N3  UNL     1      28.008  43.399  28.853  1.00  0.00    -0.071 N 
ATOM     26  H32 UNL     1      28.102  44.335  28.459  1.00  0.00     0.277 HD
ATOM     27  H31 UNL     1      28.599  43.556  29.669  1.00  0.00     0.277 HD
ENDBRANCH  20  21
ENDBRANCH  19  20
ENDBRANCH  18  19
ENDBRANCH  16  18
ENDBRANCH  13  14
ENDBRANCH  12  13
ENDBRANCH   5  10
BRANCH   6  28
HETATM   28  C17 UNL     1      30.625  43.247  35.799  1.00  0.00     0.249 C 
HETATM   29  O3  UNL     1      31.153  42.606  34.870  1.00  0.00    -0.271 OA
HETATM   30  N4  UNL     1      29.710  42.515  36.614  1.00  0.00    -0.355 N 
ATOM     31  H4  UNL     1      29.265  43.020  37.381  1.00  0.00     0.162 HD
BRANCH  30  32
HETATM   32  C18 UNL     1      29.362  41.134  36.450  1.00  0.00     0.084 C 
HETATM   33  C19 UNL     1      28.012  41.014  35.863  1.00  0.00     0.025 C 
HETATM   34  C20 UNL     1      27.265  40.011  36.679  1.00  0.00     0.002 C 
HETATM   35  C21 UNL     1      27.941  40.088  38.058  1.00  0.00     0.002 C 
HETATM   36  C22 UNL     1      29.366  40.394  37.747  1.00  0.00     0.025 C 
ENDBRANCH  30  32
ENDBRANCH   6  28
TORSDOF 9
ENDMDL
MODEL 2
REMARK VINA RESULT: -8.862701847      1.123      1.555
REMARK  9 active torsions:
REMARK  status: ('A' for Active; 'I' for Inactive)
REMARK    1  A    between atoms: C5_5  and  C6_6 
REMARK       I    between atoms: C6_6  and  N1_8 
REMARK    2  A    between atoms: N1_8  and  C7_9 
REMARK    3  A    between atoms: C7_9  and  C8_10 
REMARK       I    between atoms: C8_10  and  N2_12 
REMARK    4  A    between atoms: N2_12  and  C9_14 
REMARK    5  A    between atoms: C9_14  and  C10_15 
REMARK    6  A    between atoms: C10_15  and  C11_16 
REMARK    7  A    between atoms: C11_16  and  C12_17 
REMARK    8  A    between atoms: C16_24  and  C17_25 
REMARK       I    between atoms: C17_25  and  N4_27 
REMARK    9  A    between atoms: N4_27  and  C18_29 
ROOT
HETATM    1  C1  UNL     1      33.780  46.399  36.380  1.00  0.00     0.040 C 
HETATM    2  C2  UNL     1      32.348  46.475  35.819  1.00  0.00     0.183 C 
HETATM    3  C3  UNL     1      31.503  46.909  37.002  1.00  0.00     0.033 C 
HETATM    4  C4  UNL     1      30.021  46.819  36.721  1.00  0.00     0.020 C 
HETATM    5  C5  UNL     1      29.681  45.552  35.919  1.00  0.00     0.133 C 
HETATM    6  C16 UNL     1      30.877  44.666  35.992  1.00  0.00     0.291 C 
HETATM    7  N5  UNL     1      31.985  45.209  35.297  1.00  0.00    -0.058 N 
ATOM      8  H51 UNL     1      32.777  44.565  35.291  1.00  0.00     0.278 HD
ATOM      9  H52 UNL     1      31.812  45.252  34.293  1.00  0.00     0.278 HD
ENDROOT
BRANCH   5  10
HETATM   10  C6  UNL     1      29.408  46.090  34.522  1.00  0.00     0.298 C 
HETATM   11  O1  UNL     1      29.000  47.241  34.362  1.00  0.00    -0.257 OA
HETATM   12  N1  UNL     1      29.661  45.180  33.521  1.00  0.00    -0.378 NA
BRANCH  12  13
HETATM   13  C7  UNL     1      29.904  44.295  32.506  1.00  0.00     0.260 C 
BRANCH  13  14
HETATM   14  C8  UNL     1      28.847  43.328  32.099  1.00  0.00     0.270 C 
HETATM   15  O2  UNL     1      28.437  42.393  32.799  1.00  0.00    -0.266 OA
HETATM   16  N2  UNL     1      28.302  43.528  30.809  1.00  0.00    -0.356 N 
ATOM     17  H2  UNL     1      28.653  44.308  30.253  1.00  0.00     0.162 HD
BRANCH  16  18
HETATM   18  C9  UNL     1      27.298  42.708  30.251  1.00  0.00     0.123 C 
BRANCH  18  19
HETATM   19  C10 UNL     1      26.772  43.110  28.929  1.00  0.00     0.022 C 
BRANCH  19  20
HETATM   20  C11 UNL     1      27.156  42.320  27.737  1.00  0.00     0.034 C 
BRANCH  20  21
HETATM   21  C12 UNL     1      28.578  42.239  27.352  1.00  0.00     0.186 C 
HETATM   22  C13 UNL     1      28.726  42.196  25.831  1.00  0.00     0.034 C 
HETATM   23  C14 UNL     1      28.909  40.764  25.491  1.00  0.00     0.029 C 
HETATM   24  C15 UNL     1      28.715  40.010  26.777  1.00  0.00     0.233 C 
HETATM   25  N3  UNL     1      29.168  40.950  27.757  1.00  0.00    -0.071 N 
ATOM     26  H32 UNL     1      30.182  40.976  27.866  1.00  0.00     0.277 HD
ATOM     27  H31 UNL     1      28.954  40.682  28.717  1.00  0.00     0.277 HD
ENDBRANCH  20  21
ENDBRANCH  19  20
ENDBRANCH  18  19
ENDBRANCH  16  18
ENDBRANCH  13  14
ENDBRANCH  12  13
ENDBRANCH   5  10
BRANCH   6  28
HETATM   28  C17 UNL     1      30.605  43.228  35.709  1.00  0.00     0.249 C 
HETATM   29  O3  UNL     1      31.183  42.560  34.831  1.00  0.00    -0.271 OA
HETATM   30  N4  UNL     1      29.628  42.527  36.479  1.00  0.00    -0.355 N 
ATOM     31  H4  UNL     1      29.141  43.055  37.203  1.00  0.00     0.162 HD
BRANCH  30  32
HETATM   32  C18 UNL     1      29.272  41.146  36.324  1.00  0.00     0.084 C 
HETATM   33  C19 UNL     1      27.879  41.029  35.848  1.00  0.00     0.025 C 
HETATM   34  C20 UNL     1      27.206  40.010  36.708  1.00  0.00     0.002 C 
HETATM   35  C21 UNL     1      27.993  40.070  38.028  1.00  0.00     0.002 C 
HETATM   36  C22 UNL     1      29.387  40.388  37.604  1.00  0.00     0.025 C 
ENDBRANCH  30  32
ENDBRANCH   6  28
TORSDOF 9
ENDMDL
MODEL 3
REMARK VINA RESULT: -8.821916941      3.127      9.588
REMARK  9 active torsions:
REMARK  status: ('A' for Active; 'I' for Inactive)
REMARK    1  A    between atoms: C5_5  and  C6_6 
REMARK       I    between atoms: C6_6  and  N1_8 
REMARK    2  A    between atoms: N1_8  and  C7_9 
REMARK    3  A    between atoms: C7_9  and  C8_10 
REMARK       I    between atoms: C8_10  and  N2_12 
REMARK    4  A    between atoms: N2_12  and  C9_14 
REMARK    5  A    between atoms: C9_14  and  C10_15 
REMARK    6  A    between atoms: C10_15  and  C11_16 
REMARK    7  A    between atoms: C11_16  and  C12_17 
REMARK    8  A    between atoms: C16_24  and  C17_25 
REMARK       I    between atoms: C17_25  and  N4_27 
REMARK    9  A    between atoms: N4_27  and  C18_29 
ROOT
HETATM    1  C1  UNL     1      26.916  38.424  31.123  1.00  0.00     0.040 C 
HETATM    2  C2  UNL     1      27.413  39.868  30.927  1.00  0.00     0.183 C 
HETATM    3  C3  UNL     1      26.322  40.728  31.537  1.00  0.00     0.033 C 
HETATM    4  C4  UNL     1      26.507  42.198  31.239  1.00  0.00     0.020 C 
HETATM    5  C5  UNL     1      26.982  42.419  29.794  1.00  0.00     0.133 C 
HETATM    6  C16 UNL     1      26.763  41.135  29.071  1.00  0.00     0.291 C 
HETATM    7  N5  UNL     1      27.615  40.106  29.544  1.00  0.00    -0.058 N 
ATOM      8  H51 UNL     1      27.510  39.251  28.997  1.00  0.00     0.278 HD
ATOM      9  H52 UNL     1      28.593  40.305  29.337  1.00  0.00     0.278 HD
ENDROOT
BRANCH   5  10
HETATM   10  C6  UNL     1      28.450  42.778  29.965  1.00  0.00     0.298 C 
HETATM   11  O1  UNL     1      29.293  42.370  29.165  1.00  0.00    -0.257 OA
HETATM   12  N1  UNL     1      28.700  43.571  31.062  1.00  0.00    -0.378 NA
BRANCH  12  13
HETATM   13  C7  UNL     1      28.977  44.357  32.147  1.00  0.00     0.260 C 
BRANCH  13  14
HETATM   14  C8  UNL     1      30.341  44.342  32.745  1.00  0.00     0.270 C 
HETATM   15  O2  UNL     1      31.158  43.420  32.617  1.00  0.00    -0.266 OA
HETATM   16  N2  UNL     1      30.685  45.482  33.508  1.00  0.00    -0.356 N 
ATOM     17  H2  UNL     1      29.997  46.230  33.595  1.00  0.00     0.162 HD
BRANCH  16  18
HETATM   18  C9  UNL     1      31.930  45.641  34.155  1.00  0.00     0.123 C 
BRANCH  18  19
HETATM   19  C10 UNL     1      32.620  46.934  33.957  1.00  0.00     0.022 C 
BRANCH  19  20
HETATM   20  C11 UNL     1      33.848  47.213  34.736  1.00  0.00     0.034 C 
BRANCH  20  21
HETATM   21  C12 UNL     1      34.065  46.515  36.019  1.00  0.00     0.186 C 
HETATM   22  C13 UNL     1      33.693  47.416  37.196  1.00  0.00     0.034 C 
HETATM   23  C14 UNL     1      34.975  47.981  37.682  1.00  0.00     0.029 C 
HETATM   24  C15 UNL     1      36.021  47.526  36.703  1.00  0.00     0.233 C 
HETATM   25  N3  UNL     1      35.498  46.269  36.256  1.00  0.00    -0.071 N 
ATOM     26  H32 UNL     1      35.685  45.495  36.893  1.00  0.00     0.277 HD
ATOM     27  H31 UNL     1      35.989  45.880  35.452  1.00  0.00     0.277 HD
ENDBRANCH  20  21
ENDBRANCH  19  20
ENDBRANCH  18  19
ENDBRANCH  16  18
ENDBRANCH  13  14
ENDBRANCH  12  13
ENDBRANCH   5  10
BRANCH   6  28
HETATM   28  C17 UNL     1      26.698  41.259  27.588  1.00  0.00     0.249 C 
HETATM   29  O3  UNL     1      25.698  41.647  26.954  1.00  0.00    -0.271 OA
HETATM   30  N4  UNL     1      27.841  40.929  26.799  1.00  0.00    -0.355 N 
ATOM     31  H4  UNL     1      28.671  40.607  27.296  1.00  0.00     0.162 HD
BRANCH  30  32
HETATM   32  C18 UNL     1      27.924  41.010  25.369  1.00  0.00     0.084 C 
HETATM   33  C19 UNL     1      28.217  39.679  24.799  1.00  0.00     0.025 C 
HETATM   34  C20 UNL     1      29.326  39.857  23.815  1.00  0.00     0.002 C 
HETATM   35  C21 UNL     1      30.070  41.103  24.326  1.00  0.00     0.002 C 
HETATM   36  C22 UNL     1      28.994  41.948  24.919  1.00  0.00     0.025 C 
ENDBRANCH  30  32
ENDBRANCH   6  28
TORSDOF 9
ENDMDL
MODEL 4
REMARK VINA RESULT: -8.709792172      2.367      8.766
REMARK  9 active torsions:
REMARK  status: ('A' for Active; 'I' for Inactive)
REMARK    1  A    between atoms: C5_5  and  C6_6 
REMARK       I    between atoms: C6_6  and  N1_8 
REMARK    2  A    between atoms: N1_8  and  C7_9 
REMARK    3  A    between atoms: C7_9  and  C8_10 
REMARK       I    between atoms: C8_10  and  N2_12 
REMARK    4  A    between atoms: N2_12  and  C9_14 
REMARK    5  A    between atoms: C9_14  and  C10_15 
REMARK    6  A    between atoms: C10_15  and  C11_16 
REMARK    7  A    between atoms: C11_16  and  C12_17 
REMARK    8  A    between atoms: C16_24  and  C17_25 
REMARK       I    between atoms: C17_25  and  N4_27 
REMARK    9  A    between atoms: N4_27  and  C18_29 
ROOT
HETATM    1  C1  UNL     1      26.646  38.597  31.222  1.00  0.00     0.040 C 
HETATM    2  C2  UNL     1      27.329  39.953  30.966  1.00  0.00     0.183 C 
HETATM    3  C3  UNL     1      26.412  40.966  31.625  1.00  0.00     0.033 C 
HETATM    4  C4  UNL     1      26.783  42.392  31.287  1.00  0.00     0.020 C 
HETATM    5  C5  UNL     1      27.192  42.527  29.812  1.00  0.00     0.133 C 
HETATM    6  C16 UNL     1      26.749  41.279  29.129  1.00  0.00     0.291 C 
HETATM    7  N5  UNL     1      27.475  40.145  29.569  1.00  0.00    -0.058 N 
ATOM      8  H51 UNL     1      27.216  39.307  29.047  1.00  0.00     0.278 HD
ATOM      9  H52 UNL     1      28.456  40.200  29.299  1.00  0.00     0.278 HD
ENDROOT
BRANCH   5  10
HETATM   10  C6  UNL     1      28.705  42.675  29.885  1.00  0.00     0.298 C 
HETATM   11  O1  UNL     1      29.432  42.095  29.078  1.00  0.00    -0.257 OA
HETATM   12  N1  UNL     1      29.130  43.492  30.908  1.00  0.00    -0.378 NA
BRANCH  12  13
HETATM   13  C7  UNL     1      29.580  44.297  31.918  1.00  0.00     0.260 C 
BRANCH  13  14
HETATM   14  C8  UNL     1      30.229  43.694  33.115  1.00  0.00     0.270 C 
HETATM   15  O2  UNL     1      31.451  43.561  33.265  1.00  0.00    -0.266 OA
HETATM   16  N2  UNL     1      29.347  43.253  34.129  1.00  0.00    -0.356 N 
ATOM     17  H2  UNL     1      28.344  43.377  33.984  1.00  0.00     0.162 HD
BRANCH  16  18
HETATM   18  C9  UNL     1      29.779  42.650  35.330  1.00  0.00     0.123 C 
BRANCH  18  19
HETATM   19  C10 UNL     1      29.808  43.511  36.532  1.00  0.00     0.022 C 
BRANCH  19  20
HETATM   20  C11 UNL     1      30.877  44.527  36.655  1.00  0.00     0.034 C 
BRANCH  20  21
HETATM   21  C12 UNL     1      30.508  45.947  36.824  1.00  0.00     0.186 C 
HETATM   22  C13 UNL     1      29.218  46.266  36.068  1.00  0.00     0.034 C 
HETATM   23  C14 UNL     1      29.650  46.886  34.792  1.00  0.00     0.029 C 
HETATM   24  C15 UNL     1      31.149  46.777  34.770  1.00  0.00     0.233 C 
HETATM   25  N3  UNL     1      31.483  46.833  36.161  1.00  0.00    -0.071 N 
ATOM     26  H32 UNL     1      31.507  47.778  36.543  1.00  0.00     0.277 HD
ATOM     27  H31 UNL     1      32.455  46.601  36.362  1.00  0.00     0.277 HD
ENDBRANCH  20  21
ENDBRANCH  19  20
ENDBRANCH  18  19
ENDBRANCH  16  18
ENDBRANCH  13  14
ENDBRANCH  12  13
ENDBRANCH   5  10
BRANCH   6  28
HETATM   28  C17 UNL     1      26.608  41.395  27.650  1.00  0.00     0.249 C 
HETATM   29  O3  UNL     1      25.547  41.680  27.061  1.00  0.00    -0.271 OA
HETATM   30  N4  UNL     1      27.743  41.180  26.812  1.00  0.00    -0.355 N 
ATOM     31  H4  UNL     1      28.622  40.943  27.272  1.00  0.00     0.162 HD
BRANCH  30  32
HETATM   32  C18 UNL     1      27.756  41.268  25.380  1.00  0.00     0.084 C 
HETATM   33  C19 UNL     1      27.925  39.925  24.788  1.00  0.00     0.025 C 
HETATM   34  C20 UNL     1      28.991  40.034  23.748  1.00  0.00     0.002 C 
HETATM   35  C21 UNL     1      29.845  41.221  24.225  1.00  0.00     0.002 C 
HETATM   36  C22 UNL     1      28.864  42.134  24.879  1.00  0.00     0.025 C 
ENDBRANCH  30  32
ENDBRANCH   6  28
TORSDOF 9
ENDMDL
MODEL 5
REMARK VINA RESULT: -8.596935546      4.968      7.860
REMARK  9 active torsions:
REMARK  status: ('A' for Active; 'I' for Inactive)
REMARK    1  A    between atoms: C5_5  and  C6_6 
REMARK       I    between atoms: C6_6  and  N1_8 
REMARK    2  A    between atoms: N1_8  and  C7_9 
REMARK    3  A    between atoms: C7_9  and  C8_10 
REMARK       I    between atoms: C8_10  and  N2_12 
REMARK    4  A    between atoms: N2_12  and  C9_14 
REMARK    5  A    between atoms: C9_14  and  C10_15 
REMARK    6  A    between atoms: C10_15  and  C11_16 
REMARK    7  A    between atoms: C11_16  and  C12_17 
REMARK    8  A    between atoms: C16_24  and  C17_25 
REMARK       I    between atoms: C17_25  and  N4_27 
REMARK    9  A    between atoms: N4_27  and  C18_29 
ROOT
HETATM    1  C1  UNL     1      25.291  41.495  32.265  1.00  0.00     0.040 C 
HETATM    2  C2  UNL     1      26.259  41.676  31.082  1.00  0.00     0.183 C 
HETATM    3  C3  UNL     1      27.033  40.372  31.025  1.00  0.00     0.033 C 
HETATM    4  C4  UNL     1      28.203  40.433  30.072  1.00  0.00     0.020 C 
HETATM    5  C5  UNL     1      28.927  41.786  30.161  1.00  0.00     0.133 C 
HETATM    6  C16 UNL     1      28.443  42.448  31.405  1.00  0.00     0.291 C 
HETATM    7  N5  UNL     1      27.076  42.810  31.319  1.00  0.00    -0.058 N 
ATOM      8  H51 UNL     1      26.771  43.326  32.144  1.00  0.00     0.278 HD
ATOM      9  H52 UNL     1      26.924  43.535  30.617  1.00  0.00     0.278 HD
ENDROOT
BRANCH   5  10
HETATM   10  C6  UNL     1      28.492  42.495  28.887  1.00  0.00     0.298 C 
HETATM   11  O1  UNL     1      27.920  43.585  28.939  1.00  0.00    -0.257 OA
HETATM   12  N1  UNL     1      28.800  41.803  27.738  1.00  0.00    -0.378 NA
BRANCH  12  13
HETATM   13  C7  UNL     1      29.093  41.135  26.580  1.00  0.00     0.260 C 
BRANCH  13  14
HETATM   14  C8  UNL     1      29.437  39.687  26.626  1.00  0.00     0.270 C 
HETATM   15  O2  UNL     1      28.610  38.766  26.642  1.00  0.00    -0.266 OA
HETATM   16  N2  UNL     1      30.819  39.389  26.652  1.00  0.00    -0.356 N 
ATOM     17  H2  UNL     1      31.481  40.166  26.633  1.00  0.00     0.162 HD
BRANCH  16  18
HETATM   18  C9  UNL     1      31.333  38.075  26.704  1.00  0.00     0.123 C 
BRANCH  18  19
HETATM   19  C10 UNL     1      32.766  37.936  27.040  1.00  0.00     0.022 C 
BRANCH  19  20
HETATM   20  C11 UNL     1      33.477  36.702  26.633  1.00  0.00     0.034 C 
BRANCH  20  21
HETATM   21  C12 UNL     1      33.246  36.146  25.285  1.00  0.00     0.186 C 
HETATM   22  C13 UNL     1      32.841  34.675  25.367  1.00  0.00     0.034 C 
HETATM   23  C14 UNL     1      34.081  33.908  25.095  1.00  0.00     0.029 C 
HETATM   24  C15 UNL     1      35.183  34.926  25.014  1.00  0.00     0.233 C 
HETATM   25  N3  UNL     1      34.500  36.080  24.514  1.00  0.00    -0.071 N 
ATOM     26  H32 UNL     1      34.364  36.073  23.503  1.00  0.00     0.277 HD
ATOM     27  H31 UNL     1      35.054  36.936  24.551  1.00  0.00     0.277 HD
ENDBRANCH  20  21
ENDBRANCH  19  20
ENDBRANCH  18  19
ENDBRANCH  16  18
ENDBRANCH  13  14
ENDBRANCH  12  13
ENDBRANCH   5  10
BRANCH   6  28
HETATM   28  C17 UNL     1      29.339  43.516  31.931  1.00  0.00     0.249 C 
HETATM   29  O3  UNL     1      30.089  44.220  31.227  1.00  0.00    -0.271 OA
HETATM   30  N4  UNL     1      29.367  43.791  33.331  1.00  0.00    -0.355 N 
ATOM     31  H4  UNL     1      28.763  43.226  33.928  1.00  0.00     0.162 HD
BRANCH  30  32
HETATM   32  C18 UNL     1      30.170  44.792  33.973  1.00  0.00     0.084 C 
HETATM   33  C19 UNL     1      30.596  44.325  35.308  1.00  0.00     0.025 C 
HETATM   34  C20 UNL     1      30.328  45.436  36.269  1.00  0.00     0.002 C 
HETATM   35  C21 UNL     1      29.175  46.214  35.612  1.00  0.00     0.002 C 
HETATM   36  C22 UNL     1      29.433  46.078  34.150  1.00  0.00     0.025 C 
ENDBRANCH  30  32
ENDBRANCH   6  28
TORSDOF 9
ENDMDL
