MODEL 1
REMARK VINA RESULT: -8.972169206      0.000      0.000
REMARK  10 active torsions:
REMARK  status: ('A' for Active; 'I' for Inactive)
REMARK    1  A    between atoms: O1_2  and  C2_3 
REMARK    2  A    between atoms: C5_6  and  C6_7 
REMARK    3  A    between atoms: C6_7  and  C7_8 
REMARK    4  A    between atoms: C7_8  and  N1_9 
REMARK       I    between atoms: C8_11  and  N3_13 
REMARK    5  A    between atoms: N3_13  and  C9_15 
REMARK    6  A    between atoms: C9_15  and  C10_16 
REMARK    7  A    between atoms: C10_16  and  C11_17 
REMARK    8  A    between atoms: C11_17  and  S1_18 
REMARK    9  A    between atoms: S1_18  and  C12_19 
REMARK   10  A    between atoms: C14_21  and  N4_22 
ROOT
HETATM    1  N1  UNL     1      27.645  43.371  29.692  1.00  0.00    -0.364 N 
ATOM      2  H1  UNL     1      26.849  43.912  30.031  1.00  0.00     0.162 HD
HETATM    3  C8  UNL     1      27.594  42.784  28.547  1.00  0.00     0.183 C 
HETATM    4  N2  UNL     1      26.410  42.912  27.781  1.00  0.00    -0.064 NA
HETATM    5  N3  UNL     1      28.667  42.019  28.028  1.00  0.00    -0.365 N 
ATOM      6  H3  UNL     1      29.458  41.846  28.648  1.00  0.00     0.162 HD
ENDROOT
BRANCH   5   7
HETATM    7  C9  UNL     1      28.738  41.470  26.714  1.00  0.00     0.123 C 
BRANCH   7   8
HETATM    8  C10 UNL     1      28.305  40.021  26.705  1.00  0.00     0.030 C 
BRANCH   8   9
HETATM    9  C11 UNL     1      28.769  39.331  25.444  1.00  0.00     0.082 C 
BRANCH   9  10
HETATM   10  S1  UNL     1      30.515  39.701  25.105  1.00  0.00    -0.112 SA
BRANCH  10  11
HETATM   11  C12 UNL     1      31.495  38.186  25.177  1.00  0.00     0.072 A 
HETATM   12  C13 UNL     1      32.327  37.953  26.267  1.00  0.00     0.066 A 
HETATM   13  C14 UNL     1      33.092  36.812  26.369  1.00  0.00     0.036 A 
HETATM   14  C15 UNL     1      32.982  35.915  25.327  1.00  0.00    -0.009 A 
HETATM   15  C16 UNL     1      32.152  36.163  24.255  1.00  0.00     0.018 A 
HETATM   16  C19 UNL     1      33.669  34.604  25.142  1.00  0.00     0.043 C 
HETATM   17  N5  UNL     1      31.430  37.289  24.205  1.00  0.00    -0.354 N 
HETATM   18  C17 UNL     1      32.250  35.023  23.311  1.00  0.00     0.058 C 
ATOM     19  H5  UNL     1      30.819  37.459  23.406  1.00  0.00     0.166 HD
HETATM   20  C18 UNL     1      33.611  34.451  23.637  1.00  0.00     0.011 C 
BRANCH  13  21
HETATM   21  N4  UNL     1      33.864  36.602  27.385  1.00  0.00    -0.399 N 
ATOM     22  H42 UNL     1      34.482  37.322  27.759  1.00  0.00     0.156 HD
ATOM     23  H41 UNL     1      33.888  35.700  27.861  1.00  0.00     0.156 HD
ENDBRANCH  13  21
ENDBRANCH  10  11
ENDBRANCH   9  10
ENDBRANCH   8   9
ENDBRANCH   7   8
ENDBRANCH   5   7
BRANCH   1  24
HETATM   24  C7  UNL     1      28.846  43.252  30.493  1.00  0.00     0.128 C 
BRANCH  24  25
HETATM   25  C6  UNL     1      28.623  43.246  31.954  1.00  0.00     0.076 C 
BRANCH  25  26
HETATM   26  C5  UNL     1      29.400  44.176  32.764  1.00  0.00     0.010 A 
HETATM   27  C4  UNL     1      30.612  43.928  33.179  1.00  0.00     0.028 A 
HETATM   28  C3  UNL     1      31.364  44.907  34.005  1.00  0.00     0.040 A 
HETATM   29  C2  UNL     1      30.781  46.053  34.320  1.00  0.00     0.083 A 
HETATM   30  C20 UNL     1      29.422  46.292  33.835  1.00  0.00     0.124 A 
HETATM   31  N6  UNL     1      28.791  45.424  33.119  1.00  0.00    -0.366 N 
ATOM     32  H6  UNL     1      27.844  45.629  32.801  1.00  0.00     0.165 HD
BRANCH  29  33
HETATM   33  O1  UNL     1      31.426  47.028  35.095  1.00  0.00    -0.355 OA
HETATM   34  C1  UNL     1      31.328  46.873  36.506  1.00  0.00     0.210 C 
ENDBRANCH  29  33
ENDBRANCH  25  26
ENDBRANCH  24  25
ENDBRANCH   1  24
TORSDOF 10
ENDMDL
MODEL 2
REMARK VINA RESULT: -8.532760697      2.269      3.384
REMARK  10 active torsions:
REMARK  status: ('A' for Active; 'I' for Inactive)
REMARK    1  A    between atoms: O1_2  and  C2_3 
REMARK    2  A    between atoms: C5_6  and  C6_7 
REMARK    3  A    between atoms: C6_7  and  C7_8 
REMARK    4  A    between atoms: C7_8  and  N1_9 
REMARK       I    between atoms: C8_11  and  N3_13 
REMARK    5  A    between atoms: N3_13  and  C9_15 
REMARK    6  A    between atoms: C9_15  and  C10_16 
REMARK    7  A    between atoms: C10_16  and  C11_17 
REMARK    8  A    between atoms: C11_17  and  S1_18 
REMARK    9  A    between atoms: S1_18  and  C12_19 
REMARK   10  A    between atoms: C14_21  and  N4_22 
ROOT
HETATM    1  N1  UNL     1      27.431  42.659  32.258  1.00  0.00    -0.364 N 
ATOM      2  H1  UNL     1      27.332  42.838  33.258  1.00  0.00     0.162 HD
HETATM    3  C8  UNL     1      26.756  41.718  31.694  1.00  0.00     0.183 C 
HETATM    4  N2  UNL     1      25.883  40.946  32.498  1.00  0.00    -0.064 NA
HETATM    5  N3  UNL     1      26.854  41.426  30.312  1.00  0.00    -0.365 N 
ATOM      6  H3  UNL     1      27.574  41.917  29.782  1.00  0.00     0.162 HD
ENDROOT
BRANCH   5   7
HETATM    7  C9  UNL     1      26.033  40.505  29.596  1.00  0.00     0.123 C 
BRANCH   7   8
HETATM    8  C10 UNL     1      26.695  40.073  28.307  1.00  0.00     0.030 C 
BRANCH   8   9
HETATM    9  C11 UNL     1      26.465  41.096  27.219  1.00  0.00     0.082 C 
BRANCH   9  10
HETATM   10  S1  UNL     1      27.988  42.020  26.861  1.00  0.00    -0.112 SA
BRANCH  10  11
HETATM   11  C12 UNL     1      29.154  40.970  25.967  1.00  0.00     0.072 A 
HETATM   12  C13 UNL     1      29.471  41.262  24.645  1.00  0.00     0.066 A 
HETATM   13  C14 UNL     1      30.357  40.493  23.922  1.00  0.00     0.036 A 
HETATM   14  C15 UNL     1      30.911  39.420  24.588  1.00  0.00    -0.009 A 
HETATM   15  C16 UNL     1      30.585  39.148  25.899  1.00  0.00     0.018 A 
HETATM   16  C19 UNL     1      31.890  38.412  24.090  1.00  0.00     0.043 C 
HETATM   17  N5  UNL     1      29.717  39.926  26.556  1.00  0.00    -0.354 N 
HETATM   18  C17 UNL     1      31.337  37.944  26.330  1.00  0.00     0.058 C 
ATOM     19  H5  UNL     1      29.485  39.713  27.526  1.00  0.00     0.166 HD
HETATM   20  C18 UNL     1      31.611  37.247  25.016  1.00  0.00     0.011 C 
BRANCH  13  21
HETATM   21  N4  UNL     1      30.646  40.770  22.692  1.00  0.00    -0.399 N 
ATOM     22  H42 UNL     1      30.030  41.323  22.097  1.00  0.00     0.156 HD
ATOM     23  H41 UNL     1      31.511  40.443  22.260  1.00  0.00     0.156 HD
ENDBRANCH  13  21
ENDBRANCH  10  11
ENDBRANCH   9  10
ENDBRANCH   8   9
ENDBRANCH   7   8
ENDBRANCH   5   7
BRANCH   1  24
HETATM   24  C7  UNL     1      28.331  43.461  31.454  1.00  0.00     0.128 C 
BRANCH  24  25
HETATM   25  C6  UNL     1      29.719  43.532  31.957  1.00  0.00     0.076 C 
BRANCH  25  26
HETATM   26  C5  UNL     1      29.998  44.448  33.056  1.00  0.00     0.010 A 
HETATM   27  C4  UNL     1      31.030  44.328  33.845  1.00  0.00     0.028 A 
HETATM   28  C3  UNL     1      31.272  45.286  34.954  1.00  0.00     0.040 A 
HETATM   29  C2  UNL     1      30.416  46.279  35.136  1.00  0.00     0.083 A 
HETATM   30  C20 UNL     1      29.272  46.378  34.228  1.00  0.00     0.124 A 
HETATM   31  N6  UNL     1      29.085  45.531  33.273  1.00  0.00    -0.366 N 
ATOM     32  H6  UNL     1      28.275  45.635  32.662  1.00  0.00     0.165 HD
BRANCH  29  33
HETATM   33  O1  UNL     1      30.576  47.224  36.160  1.00  0.00    -0.355 OA
HETATM   34  C1  UNL     1      31.814  47.185  36.860  1.00  0.00     0.210 C 
ENDBRANCH  29  33
ENDBRANCH  25  26
ENDBRANCH  24  25
ENDBRANCH   1  24
TORSDOF 10
ENDMDL
MODEL 3
REMARK VINA RESULT: -8.465415615      1.470      2.265
REMARK  10 active torsions:
REMARK  status: ('A' for Active; 'I' for Inactive)
REMARK    1  A    between atoms: O1_2  and  C2_3 
REMARK    2  A    between atoms: C5_6  and  C6_7 
REMARK    3  A    between atoms: C6_7  and  C7_8 
REMARK    4  A    between atoms: C7_8  and  N1_9 
REMARK       I    between atoms: C8_11  and  N3_13 
REMARK    5  A    between atoms: N3_13  and  C9_15 
REMARK    6  A    between atoms: C9_15  and  C10_16 
REMARK    7  A    between atoms: C10_16  and  C11_17 
REMARK    8  A    between atoms: C11_17  and  S1_18 
REMARK    9  A    between atoms: S1_18  and  C12_19 
REMARK   10  A    between atoms: C14_21  and  N4_22 
ROOT
HETATM    1  N1  UNL     1      27.942  43.597  29.637  1.00  0.00    -0.364 N 
ATOM      2  H1  UNL     1      27.420  44.462  29.780  1.00  0.00     0.162 HD
HETATM    3  C8  UNL     1      27.637  42.803  28.670  1.00  0.00     0.183 C 
HETATM    4  N2  UNL     1      26.564  43.166  27.819  1.00  0.00    -0.064 NA
HETATM    5  N3  UNL     1      28.326  41.590  28.426  1.00  0.00    -0.365 N 
ATOM      6  H3  UNL     1      29.013  41.297  29.120  1.00  0.00     0.162 HD
ENDROOT
BRANCH   5   7
HETATM    7  C9  UNL     1      28.142  40.743  27.294  1.00  0.00     0.123 C 
BRANCH   7   8
HETATM    8  C10 UNL     1      29.259  40.926  26.290  1.00  0.00     0.030 C 
BRANCH   8   9
HETATM    9  C11 UNL     1      28.795  41.762  25.120  1.00  0.00     0.082 C 
BRANCH   9  10
HETATM   10  S1  UNL     1      29.726  41.349  23.616  1.00  0.00    -0.112 SA
BRANCH  10  11
HETATM   11  C12 UNL     1      30.178  39.601  23.626  1.00  0.00     0.072 A 
HETATM   12  C13 UNL     1      29.220  38.639  23.323  1.00  0.00     0.066 A 
HETATM   13  C14 UNL     1      29.517  37.293  23.315  1.00  0.00     0.036 A 
HETATM   14  C15 UNL     1      30.819  36.959  23.624  1.00  0.00    -0.009 A 
HETATM   15  C16 UNL     1      31.754  37.926  23.921  1.00  0.00     0.018 A 
HETATM   16  C19 UNL     1      31.447  35.608  23.699  1.00  0.00     0.043 C 
HETATM   17  N5  UNL     1      31.413  39.221  23.916  1.00  0.00    -0.354 N 
HETATM   18  C17 UNL     1      33.047  37.259  24.207  1.00  0.00     0.058 C 
ATOM     19  H5  UNL     1      32.115  39.927  24.138  1.00  0.00     0.166 HD
HETATM   20  C18 UNL     1      32.609  35.876  24.632  1.00  0.00     0.011 C 
BRANCH  13  21
HETATM   21  N4  UNL     1      28.622  36.404  23.032  1.00  0.00    -0.399 N 
ATOM     22  H42 UNL     1      28.617  35.895  22.149  1.00  0.00     0.156 HD
ATOM     23  H41 UNL     1      27.874  36.172  23.687  1.00  0.00     0.156 HD
ENDBRANCH  13  21
ENDBRANCH  10  11
ENDBRANCH   9  10
ENDBRANCH   8   9
ENDBRANCH   7   8
ENDBRANCH   5   7
BRANCH   1  24
HETATM   24  C7  UNL     1      29.035  43.245  30.520  1.00  0.00     0.128 C 
BRANCH  24  25
HETATM   25  C6  UNL     1      28.714  43.298  31.961  1.00  0.00     0.076 C 
BRANCH  25  26
HETATM   26  C5  UNL     1      29.467  44.229  32.792  1.00  0.00     0.010 A 
HETATM   27  C4  UNL     1      30.673  43.989  33.229  1.00  0.00     0.028 A 
HETATM   28  C3  UNL     1      31.400  44.970  34.075  1.00  0.00     0.040 A 
HETATM   29  C2  UNL     1      30.802  46.108  34.386  1.00  0.00     0.083 A 
HETATM   30  C20 UNL     1      29.450  46.339  33.875  1.00  0.00     0.124 A 
HETATM   31  N6  UNL     1      28.841  45.470  33.142  1.00  0.00    -0.366 N 
ATOM     32  H6  UNL     1      27.898  45.669  32.807  1.00  0.00     0.165 HD
BRANCH  29  33
HETATM   33  O1  UNL     1      31.423  47.084  35.180  1.00  0.00    -0.355 OA
HETATM   34  C1  UNL     1      31.406  46.854  36.584  1.00  0.00     0.210 C 
ENDBRANCH  29  33
ENDBRANCH  25  26
ENDBRANCH  24  25
ENDBRANCH   1  24
TORSDOF 10
ENDMDL
MODEL 4
REMARK VINA RESULT: -8.383082614      4.818     10.594
REMARK  10 active torsions:
REMARK  status: ('A' for Active; 'I' for Inactive)
REMARK    1  A    between atoms: O1_2  and  C2_3 
REMARK    2  A    between atoms: C5_6  and  C6_7 
REMARK    3  A    between atoms: C6_7  and  C7_8 
REMARK    4  A    between atoms: C7_8  and  N1_9 
REMARK       I    between atoms: C8_11  and  N3_13 
REMARK    5  A    between atoms: N3_13  and  C9_15 
REMARK    6  A    between atoms: C9_15  and  C10_16 
REMARK    7  A    between atoms: C10_16  and  C11_17 
REMARK    8  A    between atoms: C11_17  and  S1_18 
REMARK    9  A    between atoms: S1_18  and  C12_19 
REMARK   10  A    between atoms: C14_21  and  N4_22 
ROOT
HETATM    1  N1  UNL     1      27.907  42.191  30.017  1.00  0.00    -0.364 N 
ATOM      2  H1  UNL     1      27.324  41.357  29.936  1.00  0.00     0.162 HD
HETATM    3  C8  UNL     1      28.179  42.687  31.174  1.00  0.00     0.183 C 
HETATM    4  N2  UNL     1      27.648  42.044  32.319  1.00  0.00    -0.064 NA
HETATM    5  N3  UNL     1      28.980  43.842  31.345  1.00  0.00    -0.365 N 
ATOM      6  H3  UNL     1      29.250  44.351  30.504  1.00  0.00     0.162 HD
ENDROOT
BRANCH   5   7
HETATM    7  C9  UNL     1      29.442  44.356  32.593  1.00  0.00     0.123 C 
BRANCH   7   8
HETATM    8  C10 UNL     1      30.771  43.742  32.975  1.00  0.00     0.030 C 
BRANCH   8   9
HETATM    9  C11 UNL     1      31.249  44.285  34.302  1.00  0.00     0.082 C 
BRANCH   9  10
HETATM   10  S1  UNL     1      29.850  44.610  35.414  1.00  0.00    -0.112 SA
BRANCH  10  11
HETATM   11  C12 UNL     1      29.248  43.062  36.123  1.00  0.00     0.072 A 
HETATM   12  C13 UNL     1      29.604  42.713  37.421  1.00  0.00     0.066 A 
HETATM   13  C14 UNL     1      29.168  41.545  38.007  1.00  0.00     0.036 A 
HETATM   14  C15 UNL     1      28.358  40.744  37.230  1.00  0.00    -0.009 A 
HETATM   15  C16 UNL     1      28.016  41.107  35.945  1.00  0.00     0.018 A 
HETATM   16  C19 UNL     1      27.731  39.434  37.569  1.00  0.00     0.043 C 
HETATM   17  N5  UNL     1      28.467  42.254  35.423  1.00  0.00    -0.354 N 
HETATM   18  C17 UNL     1      27.143  40.051  35.375  1.00  0.00     0.058 C 
ATOM     19  H5  UNL     1      28.206  42.510  34.471  1.00  0.00     0.166 HD
HETATM   20  C18 UNL     1      27.528  38.839  36.192  1.00  0.00     0.011 C 
BRANCH  13  21
HETATM   21  N4  UNL     1      29.503  41.226  39.215  1.00  0.00    -0.399 N 
ATOM     22  H42 UNL     1      29.981  41.877  39.838  1.00  0.00     0.156 HD
ATOM     23  H41 UNL     1      29.303  40.302  39.599  1.00  0.00     0.156 HD
ENDBRANCH  13  21
ENDBRANCH  10  11
ENDBRANCH   9  10
ENDBRANCH   8   9
ENDBRANCH   7   8
ENDBRANCH   5   7
BRANCH   1  24
HETATM   24  C7  UNL     1      28.438  42.833  28.833  1.00  0.00     0.128 C 
BRANCH  24  25
HETATM   25  C6  UNL     1      27.707  42.538  27.583  1.00  0.00     0.076 C 
BRANCH  25  26
HETATM   26  C5  UNL     1      28.444  41.904  26.497  1.00  0.00     0.010 A 
HETATM   27  C4  UNL     1      28.532  42.410  25.297  1.00  0.00     0.028 A 
HETATM   28  C3  UNL     1      29.294  41.725  24.222  1.00  0.00     0.040 A 
HETATM   29  C2  UNL     1      29.893  40.577  24.498  1.00  0.00     0.083 A 
HETATM   30  C20 UNL     1      29.770  40.045  25.856  1.00  0.00     0.124 A 
HETATM   31  N6  UNL     1      29.101  40.660  26.772  1.00  0.00    -0.366 N 
ATOM     32  H6  UNL     1      29.039  40.255  27.705  1.00  0.00     0.165 HD
BRANCH  29  33
HETATM   33  O1  UNL     1      30.631  39.871  23.537  1.00  0.00    -0.355 OA
HETATM   34  C1  UNL     1      31.315  38.712  23.999  1.00  0.00     0.210 C 
ENDBRANCH  29  33
ENDBRANCH  25  26
ENDBRANCH  24  25
ENDBRANCH   1  24
TORSDOF 10
ENDMDL
MODEL 5
REMARK VINA RESULT: -8.355764982      2.631      3.622
REMARK  10 active torsions:
REMARK  status: ('A' for Active; 'I' for Inactive)
REMARK    1  A    between atoms: O1_2  and  C2_3 
REMARK    2  A    between atoms: C5_6  and  C6_7 
REMARK    3  A    between atoms: C6_7  and  C7_8 
REMARK    4  A    between atoms: C7_8  and  N1_9 
REMARK       I    between atoms: C8_11  and  N3_13 
REMARK    5  A    between atoms: N3_13  and  C9_15 
REMARK    6  A    between atoms: C9_15  and  C10_16 
REMARK    7  A    between atoms: C10_16  and  C11_17 
REMARK    8  A    between atoms: C11_17  and  S1_18 
REMARK    9  A    between atoms: S1_18  and  C12_19 
REMARK   10  A    between atoms: C14_21  and  N4_22 
ROOT
HETATM    1  N1  UNL     1      28.534  43.795  29.681  1.00  0.00    -0.364 N 
ATOM      2  H1  UNL     1      29.244  44.466  29.386  1.00  0.00     0.162 HD
HETATM    3  C8  UNL     1      27.821  43.173  28.808  1.00  0.00     0.183 C 
HETATM    4  N2  UNL     1      28.050  43.449  27.438  1.00  0.00    -0.064 NA
HETATM    5  N3  UNL     1      26.822  42.234  29.161  1.00  0.00    -0.365 N 
ATOM      6  H3  UNL     1      26.597  42.142  30.151  1.00  0.00     0.162 HD
ENDROOT
BRANCH   5   7
HETATM    7  C9  UNL     1      26.102  41.404  28.251  1.00  0.00     0.123 C 
BRANCH   7   8
HETATM    8  C10 UNL     1      25.871  40.029  28.835  1.00  0.00     0.030 C 
BRANCH   8   9
HETATM    9  C11 UNL     1      26.301  38.955  27.862  1.00  0.00     0.082 C 
BRANCH   9  10
HETATM   10  S1  UNL     1      28.092  38.672  27.954  1.00  0.00    -0.112 SA
BRANCH  10  11
HETATM   11  C12 UNL     1      28.897  39.300  26.464  1.00  0.00     0.072 A 
HETATM   12  C13 UNL     1      30.223  38.972  26.206  1.00  0.00     0.066 A 
HETATM   13  C14 UNL     1      30.880  39.424  25.082  1.00  0.00     0.036 A 
HETATM   14  C15 UNL     1      30.143  40.218  24.229  1.00  0.00    -0.009 A 
HETATM   15  C16 UNL     1      28.829  40.533  24.502  1.00  0.00     0.018 A 
HETATM   16  C19 UNL     1      30.559  40.856  22.946  1.00  0.00     0.043 C 
HETATM   17  N5  UNL     1      28.238  40.068  25.610  1.00  0.00    -0.354 N 
HETATM   18  C17 UNL     1      28.315  41.394  23.409  1.00  0.00     0.058 C 
ATOM     19  H5  UNL     1      27.265  40.309  25.799  1.00  0.00     0.166 HD
HETATM   20  C18 UNL     1      29.582  42.008  22.859  1.00  0.00     0.011 C 
BRANCH  13  21
HETATM   21  N4  UNL     1      32.114  39.115  24.848  1.00  0.00    -0.399 N 
ATOM     22  H42 UNL     1      32.540  38.260  25.205  1.00  0.00     0.156 HD
ATOM     23  H41 UNL     1      32.719  39.718  24.291  1.00  0.00     0.156 HD
ENDBRANCH  13  21
ENDBRANCH  10  11
ENDBRANCH   9  10
ENDBRANCH   8   9
ENDBRANCH   7   8
ENDBRANCH   5   7
BRANCH   1  24
HETATM   24  C7  UNL     1      28.316  43.529  31.088  1.00  0.00     0.128 C 
BRANCH  24  25
HETATM   25  C6  UNL     1      29.545  43.314  31.880  1.00  0.00     0.076 C 
BRANCH  25  26
HETATM   26  C5  UNL     1      29.842  44.262  32.946  1.00  0.00     0.010 A 
HETATM   27  C4  UNL     1      30.827  44.112  33.788  1.00  0.00     0.028 A 
HETATM   28  C3  UNL     1      31.089  45.106  34.860  1.00  0.00     0.040 A 
HETATM   29  C2  UNL     1      30.299  46.164  34.954  1.00  0.00     0.083 A 
HETATM   30  C20 UNL     1      29.206  46.295  33.991  1.00  0.00     0.124 A 
HETATM   31  N6  UNL     1      29.000  45.416  33.069  1.00  0.00    -0.366 N 
ATOM     32  H6  UNL     1      28.226  45.545  32.417  1.00  0.00     0.165 HD
BRANCH  29  33
HETATM   33  O1  UNL     1      30.483  47.146  35.938  1.00  0.00    -0.355 OA
HETATM   34  C1  UNL     1      31.649  47.017  36.742  1.00  0.00     0.210 C 
ENDBRANCH  29  33
ENDBRANCH  25  26
ENDBRANCH  24  25
ENDBRANCH   1  24
TORSDOF 10
ENDMDL
