MODEL 1
REMARK VINA RESULT: -7.732046553      0.000      0.000
REMARK  13 active torsions:
REMARK  status: ('A' for Active; 'I' for Inactive)
REMARK    1  A    between atoms: C2_2  and  N1_3 
REMARK    2  A    between atoms: C2_2  and  C3_7 
REMARK    3  A    between atoms: C2_2  and  N2_17 
REMARK    4  A    between atoms: C4_8  and  C5_9 
REMARK    5  A    between atoms: C6_10  and  C7_11 
REMARK    6  A    between atoms: N2_17  and  C13_20 
REMARK    7  A    between atoms: C13_20  and  C14_21 
REMARK    8  A    between atoms: N3_25  and  S1_26 
REMARK    9  A    between atoms: S1_26  and  N4_27 
REMARK   10  A    between atoms: S1_26  and  C18_31 
REMARK   11  A    between atoms: C18_31  and  C19_32 
REMARK   12  A    between atoms: C19_32  and  C20_33 
REMARK   13  A    between atoms: C20_33  and  N5_34 
ROOT
HETATM    1  N2  UNL     1      28.774  41.839  28.360  1.00  0.00    -0.036 N 
ATOM      2  H21 UNL     1      29.425  41.349  28.973  1.00  0.00     0.280 HD
ATOM      3  H22 UNL     1      29.410  42.507  27.924  1.00  0.00     0.280 HD
ENDROOT
BRANCH   1   4
HETATM    4  C2  UNL     1      27.770  42.537  29.145  1.00  0.00     0.299 C 
HETATM    5  C1  UNL     1      26.491  42.735  28.399  1.00  0.00     0.083 C 
BRANCH   4   6
HETATM    6  N1  UNL     1      28.357  43.866  29.383  1.00  0.00    -0.041 N 
ATOM      7  H13 UNL     1      28.089  44.551  28.676  1.00  0.00     0.277 HD
ATOM      8  H12 UNL     1      27.951  44.340  30.190  1.00  0.00     0.277 HD
ATOM      9  H11 UNL     1      29.368  43.748  29.459  1.00  0.00     0.277 HD
ENDBRANCH   4   6
BRANCH   4  10
HETATM   10  C3  UNL     1      27.584  41.896  30.445  1.00  0.00     0.041 C 
HETATM   11  C4  UNL     1      28.065  42.333  31.575  1.00  0.00    -0.000 C 
BRANCH  11  12
HETATM   12  C5  UNL     1      28.870  43.521  31.788  1.00  0.00    -0.004 C 
HETATM   13  C6  UNL     1      29.287  43.902  32.983  1.00  0.00    -0.022 C 
BRANCH  13  14
HETATM   14  C7  UNL     1      30.104  45.127  33.117  1.00  0.00     0.012 C 
HETATM   15  C8  UNL     1      31.433  44.812  33.768  1.00  0.00     0.035 C 
HETATM   16  C9  UNL     1      32.010  45.937  34.515  1.00  0.00    -0.030 C 
HETATM   17  C10 UNL     1      31.215  46.711  35.254  1.00  0.00    -0.031 C 
HETATM   18  C11 UNL     1      29.753  46.339  35.249  1.00  0.00     0.027 C 
HETATM   19  C12 UNL     1      29.371  46.268  33.776  1.00  0.00     0.012 C 
ENDBRANCH  13  14
ENDBRANCH  11  12
ENDBRANCH   4  10
ENDBRANCH   1   4
BRANCH   1  20
HETATM   20  C13 UNL     1      28.248  40.945  27.382  1.00  0.00     0.256 C 
BRANCH  20  21
HETATM   21  C14 UNL     1      29.194  41.015  26.173  1.00  0.00     0.098 C 
HETATM   22  C15 UNL     1      28.744  42.204  25.354  1.00  0.00     0.023 C 
HETATM   23  C16 UNL     1      28.437  41.688  23.985  1.00  0.00     0.017 C 
HETATM   24  C17 UNL     1      29.140  40.322  23.971  1.00  0.00     0.106 C 
HETATM   25  N3  UNL     1      29.013  39.889  25.315  1.00  0.00    -0.222 NA
BRANCH  25  26
HETATM   26  S1  UNL     1      29.872  38.507  25.774  1.00  0.00     0.085 S 
HETATM   27  O1  UNL     1      29.017  37.783  26.809  1.00  0.00    -0.234 OA
BRANCH  26  28
HETATM   28  N4  UNL     1      31.167  38.909  26.588  1.00  0.00    -0.349 N 
ATOM     29  H42 UNL     1      31.718  39.747  26.405  1.00  0.00     0.166 HD
ATOM     30  H41 UNL     1      31.361  38.215  27.309  1.00  0.00     0.166 HD
ENDBRANCH  26  28
BRANCH  26  31
HETATM   31  C18 UNL     1      30.402  37.448  24.502  1.00  0.00     0.135 C 
BRANCH  31  32
HETATM   32  C19 UNL     1      31.631  36.660  24.731  1.00  0.00     0.042 C 
BRANCH  32  33
HETATM   33  C20 UNL     1      32.742  36.944  23.754  1.00  0.00     0.230 C 
BRANCH  33  34
HETATM   34  N5  UNL     1      32.997  38.338  23.577  1.00  0.00    -0.079 N 
ATOM     35  H53 UNL     1      32.362  38.737  22.885  1.00  0.00     0.274 HD
ATOM     36  H52 UNL     1      32.704  38.867  24.398  1.00  0.00     0.274 HD
ATOM     37  H51 UNL     1      33.967  38.544  23.339  1.00  0.00     0.274 HD
ENDBRANCH  33  34
ENDBRANCH  32  33
ENDBRANCH  31  32
ENDBRANCH  26  31
ENDBRANCH  25  26
ENDBRANCH  20  21
ENDBRANCH   1  20
TORSDOF 13
ENDMDL
MODEL 2
REMARK VINA RESULT: -7.521295814      3.225      8.623
REMARK  13 active torsions:
REMARK  status: ('A' for Active; 'I' for Inactive)
REMARK    1  A    between atoms: C2_2  and  N1_3 
REMARK    2  A    between atoms: C2_2  and  C3_7 
REMARK    3  A    between atoms: C2_2  and  N2_17 
REMARK    4  A    between atoms: C4_8  and  C5_9 
REMARK    5  A    between atoms: C6_10  and  C7_11 
REMARK    6  A    between atoms: N2_17  and  C13_20 
REMARK    7  A    between atoms: C13_20  and  C14_21 
REMARK    8  A    between atoms: N3_25  and  S1_26 
REMARK    9  A    between atoms: S1_26  and  N4_27 
REMARK   10  A    between atoms: S1_26  and  C18_31 
REMARK   11  A    between atoms: C18_31  and  C19_32 
REMARK   12  A    between atoms: C19_32  and  C20_33 
REMARK   13  A    between atoms: C20_33  and  N5_34 
ROOT
HETATM    1  N2  UNL     1      27.800  41.227  24.748  1.00  0.00    -0.036 N 
ATOM      2  H21 UNL     1      27.271  40.454  25.153  1.00  0.00     0.280 HD
ATOM      3  H22 UNL     1      27.108  41.974  24.828  1.00  0.00     0.280 HD
ENDROOT
BRANCH   1   4
HETATM    4  C2  UNL     1      28.094  40.960  23.351  1.00  0.00     0.299 C 
HETATM    5  C1  UNL     1      29.509  41.275  22.990  1.00  0.00     0.083 C 
BRANCH   4   6
HETATM    6  N1  UNL     1      27.228  41.895  22.613  1.00  0.00    -0.041 N 
ATOM      7  H13 UNL     1      27.354  42.865  22.902  1.00  0.00     0.277 HD
ATOM      8  H12 UNL     1      27.506  42.009  21.638  1.00  0.00     0.277 HD
ATOM      9  H11 UNL     1      26.266  41.572  22.717  1.00  0.00     0.277 HD
ENDBRANCH   4   6
BRANCH   4  10
HETATM   10  C3  UNL     1      27.695  39.604  22.982  1.00  0.00     0.041 C 
HETATM   11  C4  UNL     1      28.454  38.547  23.064  1.00  0.00    -0.000 C 
BRANCH  11  12
HETATM   12  C5  UNL     1      29.827  38.483  23.528  1.00  0.00    -0.004 C 
HETATM   13  C6  UNL     1      30.494  37.349  23.648  1.00  0.00    -0.022 C 
BRANCH  13  14
HETATM   14  C7  UNL     1      31.891  37.369  24.129  1.00  0.00     0.012 C 
HETATM   15  C8  UNL     1      32.324  35.986  24.567  1.00  0.00     0.035 C 
HETATM   16  C9  UNL     1      33.361  35.989  25.606  1.00  0.00    -0.030 C 
HETATM   17  C10 UNL     1      33.290  36.873  26.601  1.00  0.00    -0.031 C 
HETATM   18  C11 UNL     1      32.111  37.814  26.556  1.00  0.00     0.027 C 
HETATM   19  C12 UNL     1      32.155  38.432  25.165  1.00  0.00     0.012 C 
ENDBRANCH  13  14
ENDBRANCH  11  12
ENDBRANCH   4  10
ENDBRANCH   1   4
BRANCH   1  20
HETATM   20  C13 UNL     1      28.941  41.521  25.550  1.00  0.00     0.256 C 
BRANCH  20  21
HETATM   21  C14 UNL     1      28.726  40.807  26.893  1.00  0.00     0.098 C 
HETATM   22  C15 UNL     1      28.882  39.328  26.614  1.00  0.00     0.023 C 
HETATM   23  C16 UNL     1      27.612  38.674  27.052  1.00  0.00     0.017 C 
HETATM   24  C17 UNL     1      26.973  39.741  27.954  1.00  0.00     0.106 C 
HETATM   25  N3  UNL     1      27.379  40.954  27.343  1.00  0.00    -0.222 NA
BRANCH  25  26
HETATM   26  S1  UNL     1      27.068  42.391  28.178  1.00  0.00     0.085 S 
HETATM   27  O1  UNL     1      25.870  43.044  27.495  1.00  0.00    -0.234 OA
BRANCH  26  28
HETATM   28  N4  UNL     1      28.235  43.430  27.940  1.00  0.00    -0.349 N 
ATOM     29  H42 UNL     1      29.220  43.231  28.114  1.00  0.00     0.166 HD
ATOM     30  H41 UNL     1      27.859  44.312  27.591  1.00  0.00     0.166 HD
ENDBRANCH  26  28
BRANCH  26  31
HETATM   31  C18 UNL     1      26.859  42.274  29.899  1.00  0.00     0.135 C 
BRANCH  31  32
HETATM   32  C19 UNL     1      28.040  41.912  30.711  1.00  0.00     0.042 C 
BRANCH  32  33
HETATM   33  C20 UNL     1      28.356  42.888  31.816  1.00  0.00     0.230 C 
BRANCH  33  34
HETATM   34  N5  UNL     1      28.983  44.084  31.351  1.00  0.00    -0.079 N 
ATOM     35  H53 UNL     1      29.921  43.890  31.002  1.00  0.00     0.274 HD
ATOM     36  H52 UNL     1      28.547  44.409  30.488  1.00  0.00     0.274 HD
ATOM     37  H51 UNL     1      29.002  44.827  32.049  1.00  0.00     0.274 HD
ENDBRANCH  33  34
ENDBRANCH  32  33
ENDBRANCH  31  32
ENDBRANCH  26  31
ENDBRANCH  25  26
ENDBRANCH  20  21
ENDBRANCH   1  20
TORSDOF 13
ENDMDL
MODEL 3
REMARK VINA RESULT: -7.294057500      4.323      6.366
REMARK  13 active torsions:
REMARK  status: ('A' for Active; 'I' for Inactive)
REMARK    1  A    between atoms: C2_2  and  N1_3 
REMARK    2  A    between atoms: C2_2  and  C3_7 
REMARK    3  A    between atoms: C2_2  and  N2_17 
REMARK    4  A    between atoms: C4_8  and  C5_9 
REMARK    5  A    between atoms: C6_10  and  C7_11 
REMARK    6  A    between atoms: N2_17  and  C13_20 
REMARK    7  A    between atoms: C13_20  and  C14_21 
REMARK    8  A    between atoms: N3_25  and  S1_26 
REMARK    9  A    between atoms: S1_26  and  N4_27 
REMARK   10  A    between atoms: S1_26  and  C18_31 
REMARK   11  A    between atoms: C18_31  and  C19_32 
REMARK   12  A    between atoms: C19_32  and  C20_33 
REMARK   13  A    between atoms: C20_33  and  N5_34 
ROOT
HETATM    1  N2  UNL     1      28.301  40.466  27.686  1.00  0.00    -0.036 N 
ATOM      2  H21 UNL     1      28.208  39.512  28.033  1.00  0.00     0.280 HD
ATOM      3  H22 UNL     1      29.311  40.586  27.770  1.00  0.00     0.280 HD
ENDROOT
BRANCH   1   4
HETATM    4  C2  UNL     1      27.608  41.393  28.563  1.00  0.00     0.299 C 
HETATM    5  C1  UNL     1      26.834  42.427  27.813  1.00  0.00     0.083 C 
BRANCH   4   6
HETATM    6  N1  UNL     1      28.690  42.085  29.285  1.00  0.00    -0.041 N 
ATOM      7  H13 UNL     1      29.137  42.813  28.728  1.00  0.00     0.277 HD
ATOM      8  H12 UNL     1      28.346  42.682  30.037  1.00  0.00     0.277 HD
ATOM      9  H11 UNL     1      29.347  41.375  29.610  1.00  0.00     0.277 HD
ENDBRANCH   4   6
BRANCH   4  10
HETATM   10  C3  UNL     1      26.805  40.677  29.551  1.00  0.00     0.041 C 
HETATM   11  C4  UNL     1      25.554  40.341  29.403  1.00  0.00    -0.000 C 
BRANCH  11  12
HETATM   12  C5  UNL     1      24.704  40.595  28.255  1.00  0.00    -0.004 C 
HETATM   13  C6  UNL     1      23.384  40.574  28.319  1.00  0.00    -0.022 C 
BRANCH  13  14
HETATM   14  C7  UNL     1      22.589  40.843  27.103  1.00  0.00     0.012 C 
HETATM   15  C8  UNL     1      23.491  40.981  25.896  1.00  0.00     0.035 C 
HETATM   16  C9  UNL     1      22.945  41.845  24.841  1.00  0.00    -0.030 C 
HETATM   17  C10 UNL     1      22.316  42.971  25.176  1.00  0.00    -0.031 C 
HETATM   18  C11 UNL     1      22.224  43.253  26.656  1.00  0.00     0.027 C 
HETATM   19  C12 UNL     1      21.622  41.990  27.259  1.00  0.00     0.012 C 
ENDBRANCH  13  14
ENDBRANCH  11  12
ENDBRANCH   4  10
ENDBRANCH   1   4
BRANCH   1  20
HETATM   20  C13 UNL     1      27.907  40.535  26.317  1.00  0.00     0.256 C 
BRANCH  20  21
HETATM   21  C14 UNL     1      29.194  40.723  25.500  1.00  0.00     0.098 C 
HETATM   22  C15 UNL     1      29.034  42.030  24.755  1.00  0.00     0.023 C 
HETATM   23  C16 UNL     1      29.190  41.715  23.302  1.00  0.00     0.017 C 
HETATM   24  C17 UNL     1      29.861  40.332  23.324  1.00  0.00     0.106 C 
HETATM   25  N3  UNL     1      29.305  39.730  24.481  1.00  0.00    -0.222 NA
BRANCH  25  26
HETATM   26  S1  UNL     1      29.969  38.263  24.993  1.00  0.00     0.085 S 
HETATM   27  O1  UNL     1      30.722  37.682  23.799  1.00  0.00    -0.234 OA
BRANCH  26  28
HETATM   28  N4  UNL     1      28.826  37.202  25.254  1.00  0.00    -0.349 N 
ATOM     29  H42 UNL     1      28.995  36.207  25.399  1.00  0.00     0.166 HD
ATOM     30  H41 UNL     1      27.913  37.657  25.255  1.00  0.00     0.166 HD
ENDBRANCH  26  28
BRANCH  26  31
HETATM   31  C18 UNL     1      30.945  38.297  26.430  1.00  0.00     0.135 C 
BRANCH  31  32
HETATM   32  C19 UNL     1      32.410  38.201  26.268  1.00  0.00     0.042 C 
BRANCH  32  33
HETATM   33  C20 UNL     1      32.955  36.799  26.366  1.00  0.00     0.230 C 
BRANCH  33  34
HETATM   34  N5  UNL     1      33.905  36.634  27.419  1.00  0.00    -0.079 N 
ATOM     35  H53 UNL     1      33.476  36.817  28.326  1.00  0.00     0.274 HD
ATOM     36  H52 UNL     1      34.143  35.649  27.541  1.00  0.00     0.274 HD
ATOM     37  H51 UNL     1      34.747  37.197  27.296  1.00  0.00     0.274 HD
ENDBRANCH  33  34
ENDBRANCH  32  33
ENDBRANCH  31  32
ENDBRANCH  26  31
ENDBRANCH  25  26
ENDBRANCH  20  21
ENDBRANCH   1  20
TORSDOF 13
ENDMDL
MODEL 4
REMARK VINA RESULT: -7.275504324      3.999      6.181
REMARK  13 active torsions:
REMARK  status: ('A' for Active; 'I' for Inactive)
REMARK    1  A    between atoms: C2_2  and  N1_3 
REMARK    2  A    between atoms: C2_2  and  C3_7 
REMARK    3  A    between atoms: C2_2  and  N2_17 
REMARK    4  A    between atoms: C4_8  and  C5_9 
REMARK    5  A    between atoms: C6_10  and  C7_11 
REMARK    6  A    between atoms: N2_17  and  C13_20 
REMARK    7  A    between atoms: C13_20  and  C14_21 
REMARK    8  A    between atoms: N3_25  and  S1_26 
REMARK    9  A    between atoms: S1_26  and  N4_27 
REMARK   10  A    between atoms: S1_26  and  C18_31 
REMARK   11  A    between atoms: C18_31  and  C19_32 
REMARK   12  A    between atoms: C19_32  and  C20_33 
REMARK   13  A    between atoms: C20_33  and  N5_34 
ROOT
HETATM    1  N2  UNL     1      28.167  40.569  27.833  1.00  0.00    -0.036 N 
ATOM      2  H21 UNL     1      28.005  39.591  28.076  1.00  0.00     0.280 HD
ATOM      3  H22 UNL     1      29.181  40.611  27.937  1.00  0.00     0.280 HD
ENDROOT
BRANCH   1   4
HETATM    4  C2  UNL     1      27.524  41.441  28.801  1.00  0.00     0.299 C 
HETATM    5  C1  UNL     1      26.794  42.574  28.158  1.00  0.00     0.083 C 
BRANCH   4   6
HETATM    6  N1  UNL     1      28.642  42.012  29.571  1.00  0.00    -0.041 N 
ATOM      7  H13 UNL     1      29.526  41.531  29.404  1.00  0.00     0.277 HD
ATOM      8  H12 UNL     1      28.925  42.933  29.236  1.00  0.00     0.277 HD
ATOM      9  H11 UNL     1      28.370  42.013  30.554  1.00  0.00     0.277 HD
ENDBRANCH   4   6
BRANCH   4  10
HETATM   10  C3  UNL     1      26.695  40.674  29.727  1.00  0.00     0.041 C 
HETATM   11  C4  UNL     1      25.466  40.299  29.505  1.00  0.00    -0.000 C 
BRANCH  11  12
HETATM   12  C5  UNL     1      24.670  40.552  28.320  1.00  0.00    -0.004 C 
HETATM   13  C6  UNL     1      23.349  40.575  28.332  1.00  0.00    -0.022 C 
BRANCH  13  14
HETATM   14  C7  UNL     1      22.610  40.840  27.080  1.00  0.00     0.012 C 
HETATM   15  C8  UNL     1      23.565  40.959  25.912  1.00  0.00     0.035 C 
HETATM   16  C9  UNL     1      23.074  41.819  24.828  1.00  0.00    -0.030 C 
HETATM   17  C10 UNL     1      22.440  42.953  25.125  1.00  0.00    -0.031 C 
HETATM   18  C11 UNL     1      22.287  43.249  26.597  1.00  0.00     0.027 C 
HETATM   19  C12 UNL     1      21.647  41.997  27.184  1.00  0.00     0.012 C 
ENDBRANCH  13  14
ENDBRANCH  11  12
ENDBRANCH   4  10
ENDBRANCH   1   4
BRANCH   1  20
HETATM   20  C13 UNL     1      27.797  40.811  26.478  1.00  0.00     0.256 C 
BRANCH  20  21
HETATM   21  C14 UNL     1      29.105  40.888  25.676  1.00  0.00     0.098 C 
HETATM   22  C15 UNL     1      28.953  42.061  24.733  1.00  0.00     0.023 C 
HETATM   23  C16 UNL     1      29.153  41.527  23.351  1.00  0.00     0.017 C 
HETATM   24  C17 UNL     1      29.837  40.174  23.605  1.00  0.00     0.106 C 
HETATM   25  N3  UNL     1      29.254  39.751  24.826  1.00  0.00    -0.222 NA
BRANCH  25  26
HETATM   26  S1  UNL     1      29.919  38.391  25.577  1.00  0.00     0.085 S 
HETATM   27  O1  UNL     1      28.833  37.815  26.481  1.00  0.00    -0.234 OA
BRANCH  26  28
HETATM   28  N4  UNL     1      31.050  38.821  26.595  1.00  0.00    -0.349 N 
ATOM     29  H42 UNL     1      31.257  39.789  26.840  1.00  0.00     0.166 HD
ATOM     30  H41 UNL     1      31.529  37.999  26.961  1.00  0.00     0.166 HD
ENDBRANCH  26  28
BRANCH  26  31
HETATM   31  C18 UNL     1      30.623  37.183  24.544  1.00  0.00     0.135 C 
BRANCH  31  32
HETATM   32  C19 UNL     1      31.929  36.617  24.941  1.00  0.00     0.042 C 
BRANCH  32  33
HETATM   33  C20 UNL     1      33.060  36.947  24.002  1.00  0.00     0.230 C 
BRANCH  33  34
HETATM   34  N5  UNL     1      33.040  38.300  23.545  1.00  0.00    -0.079 N 
ATOM     35  H53 UNL     1      32.573  38.370  22.641  1.00  0.00     0.274 HD
ATOM     36  H52 UNL     1      32.401  38.862  24.108  1.00  0.00     0.274 HD
ATOM     37  H51 UNL     1      33.965  38.728  23.510  1.00  0.00     0.274 HD
ENDBRANCH  33  34
ENDBRANCH  32  33
ENDBRANCH  31  32
ENDBRANCH  26  31
ENDBRANCH  25  26
ENDBRANCH  20  21
ENDBRANCH   1  20
TORSDOF 13
ENDMDL
MODEL 5
REMARK VINA RESULT: -7.264024524      5.087      9.782
REMARK  13 active torsions:
REMARK  status: ('A' for Active; 'I' for Inactive)
REMARK    1  A    between atoms: C2_2  and  N1_3 
REMARK    2  A    between atoms: C2_2  and  C3_7 
REMARK    3  A    between atoms: C2_2  and  N2_17 
REMARK    4  A    between atoms: C4_8  and  C5_9 
REMARK    5  A    between atoms: C6_10  and  C7_11 
REMARK    6  A    between atoms: N2_17  and  C13_20 
REMARK    7  A    between atoms: C13_20  and  C14_21 
REMARK    8  A    between atoms: N3_25  and  S1_26 
REMARK    9  A    between atoms: S1_26  and  N4_27 
REMARK   10  A    between atoms: S1_26  and  C18_31 
REMARK   11  A    between atoms: C18_31  and  C19_32 
REMARK   12  A    between atoms: C19_32  and  C20_33 
REMARK   13  A    between atoms: C20_33  and  N5_34 
ROOT
HETATM    1  N2  UNL     1      29.972  39.347  26.420  1.00  0.00    -0.036 N 
ATOM      2  H21 UNL     1      30.203  40.267  26.046  1.00  0.00     0.280 HD
ATOM      3  H22 UNL     1      30.175  39.503  27.408  1.00  0.00     0.280 HD
ENDROOT
BRANCH   1   4
HETATM    4  C2  UNL     1      30.867  38.342  25.875  1.00  0.00     0.299 C 
HETATM    5  C1  UNL     1      30.161  37.076  25.515  1.00  0.00     0.083 C 
BRANCH   4   6
HETATM    6  N1  UNL     1      31.788  38.038  26.983  1.00  0.00    -0.041 N 
ATOM      7  H13 UNL     1      31.329  38.047  27.894  1.00  0.00     0.277 HD
ATOM      8  H12 UNL     1      32.088  37.063  26.994  1.00  0.00     0.277 HD
ATOM      9  H11 UNL     1      32.568  38.693  26.925  1.00  0.00     0.277 HD
ENDBRANCH   4   6
BRANCH   4  10
HETATM   10  C3  UNL     1      31.662  38.889  24.777  1.00  0.00     0.041 C 
HETATM   11  C4  UNL     1      32.458  38.200  24.008  1.00  0.00    -0.000 C 
BRANCH  11  12
HETATM   12  C5  UNL     1      32.723  36.775  24.066  1.00  0.00    -0.004 C 
HETATM   13  C6  UNL     1      32.616  35.980  23.016  1.00  0.00    -0.022 C 
BRANCH  13  14
HETATM   14  C7  UNL     1      32.904  34.537  23.159  1.00  0.00     0.012 C 
HETATM   15  C8  UNL     1      31.655  33.718  22.915  1.00  0.00     0.035 C 
HETATM   16  C9  UNL     1      31.637  32.434  23.627  1.00  0.00    -0.030 C 
HETATM   17  C10 UNL     1      32.088  32.373  24.880  1.00  0.00    -0.031 C 
HETATM   18  C11 UNL     1      32.586  33.674  25.459  1.00  0.00     0.027 C 
HETATM   19  C12 UNL     1      33.603  34.189  24.448  1.00  0.00     0.012 C 
ENDBRANCH  13  14
ENDBRANCH  11  12
ENDBRANCH   4  10
ENDBRANCH   1   4
BRANCH   1  20
HETATM   20  C13 UNL     1      28.586  39.071  26.236  1.00  0.00     0.256 C 
BRANCH  20  21
HETATM   21  C14 UNL     1      27.977  40.316  25.575  1.00  0.00     0.098 C 
HETATM   22  C15 UNL     1      28.481  40.325  24.148  1.00  0.00     0.023 C 
HETATM   23  C16 UNL     1      29.182  41.631  23.952  1.00  0.00     0.017 C 
HETATM   24  C17 UNL     1      28.667  42.475  25.128  1.00  0.00     0.106 C 
HETATM   25  N3  UNL     1      28.496  41.512  26.155  1.00  0.00    -0.222 NA
BRANCH  25  26
HETATM   26  S1  UNL     1      27.713  42.010  27.568  1.00  0.00     0.085 S 
HETATM   27  O1  UNL     1      27.745  43.535  27.573  1.00  0.00    -0.234 OA
BRANCH  26  28
HETATM   28  N4  UNL     1      28.571  41.624  28.838  1.00  0.00    -0.349 N 
ATOM     29  H42 UNL     1      28.776  42.265  29.603  1.00  0.00     0.166 HD
ATOM     30  H41 UNL     1      28.880  40.653  28.776  1.00  0.00     0.166 HD
ENDBRANCH  26  28
BRANCH  26  31
HETATM   31  C18 UNL     1      26.115  41.385  27.846  1.00  0.00     0.135 C 
BRANCH  31  32
HETATM   32  C19 UNL     1      25.003  41.974  27.071  1.00  0.00     0.042 C 
BRANCH  32  33
HETATM   33  C20 UNL     1      24.300  41.003  26.158  1.00  0.00     0.230 C 
BRANCH  33  34
HETATM   34  N5  UNL     1      24.565  41.236  24.774  1.00  0.00    -0.079 N 
ATOM     35  H53 UNL     1      25.230  42.000  24.656  1.00  0.00     0.274 HD
ATOM     36  H52 UNL     1      25.113  40.473  24.377  1.00  0.00     0.274 HD
ATOM     37  H51 UNL     1      23.722  41.400  24.223  1.00  0.00     0.274 HD
ENDBRANCH  33  34
ENDBRANCH  32  33
ENDBRANCH  31  32
ENDBRANCH  26  31
ENDBRANCH  25  26
ENDBRANCH  20  21
ENDBRANCH   1  20
TORSDOF 13
ENDMDL
