MODEL 1
REMARK VINA RESULT: -7.428668970      0.000      0.000
REMARK  10 active torsions:
REMARK  status: ('A' for Active; 'I' for Inactive)
REMARK    1  A    between atoms: C2_2  and  C5_5 
REMARK    2  A    between atoms: C6_6  and  C7_7 
REMARK    3  A    between atoms: C7_7  and  C8_8 
REMARK    4  A    between atoms: C8_8  and  C9_9 
REMARK    5  A    between atoms: C9_9  and  C10_10 
REMARK    6  A    between atoms: C10_10  and  C11_11 
REMARK    7  A    between atoms: C11_11  and  C12_12 
REMARK    8  A    between atoms: C14_19  and  C15_20 
REMARK    9  A    between atoms: C15_20  and  C16_21 
REMARK   10  A    between atoms: C16_21  and  N3_22 
ROOT
HETATM    1  C10 UNL     1      27.959  39.807  36.714  1.00  0.00     0.098 C 
HETATM    2  N2  UNL     1      26.704  39.290  37.237  1.00  0.00    -0.343 N 
ATOM      3  H2  UNL     1      25.828  39.787  37.074  1.00  0.00     0.163 HD
HETATM    4  C13 UNL     1      26.722  38.088  37.972  1.00  0.00     0.241 C 
HETATM    5  O2  UNL     1      26.046  37.943  39.015  1.00  0.00    -0.271 OA
HETATM    6  C14 UNL     1      27.559  36.958  37.504  1.00  0.00     0.176 C 
HETATM    7  N4  UNL     1      28.710  37.405  36.781  1.00  0.00    -0.365 N 
ATOM      8  H4  UNL     1      29.298  36.738  36.283  1.00  0.00     0.161 HD
HETATM    9  C22 UNL     1      29.021  38.788  36.770  1.00  0.00     0.100 C 
HETATM   10  N5  UNL     1      30.276  39.179  36.810  1.00  0.00    -0.387 N 
ATOM     11  H51 UNL     1      31.012  38.473  36.849  1.00  0.00     0.157 HD
ATOM     12  H52 UNL     1      30.500  40.174  36.801  1.00  0.00     0.157 HD
ENDROOT
BRANCH   1  13
HETATM   13  C9  UNL     1      28.283  41.016  37.558  1.00  0.00     0.040 C 
BRANCH  13  14
HETATM   14  C8  UNL     1      28.490  42.243  36.731  1.00  0.00     0.015 C 
BRANCH  14  15
HETATM   15  C7  UNL     1      29.953  42.438  36.366  1.00  0.00     0.094 C 
BRANCH  15  16
HETATM   16  C6  UNL     1      30.082  43.815  35.885  1.00  0.00    -0.106 C 
HETATM   17  C5  UNL     1      30.209  44.952  35.491  1.00  0.00    -0.098 C 
BRANCH  17  18
HETATM   18  C2  UNL     1      30.380  46.323  34.997  1.00  0.00     0.013 C 
HETATM   19  C1  UNL     1      30.708  47.254  36.170  1.00  0.00     0.028 C 
HETATM   20  C3  UNL     1      29.131  46.791  34.294  1.00  0.00     0.028 C 
HETATM   21  C4  UNL     1      31.505  46.378  33.972  1.00  0.00     0.028 C 
ENDBRANCH  17  18
ENDBRANCH  15  16
ENDBRANCH  14  15
ENDBRANCH  13  14
ENDBRANCH   1  13
BRANCH   1  22
HETATM   22  C11 UNL     1      27.647  40.227  35.290  1.00  0.00     0.138 C 
BRANCH  22  23
HETATM   23  C12 UNL     1      26.556  39.498  34.653  1.00  0.00     0.234 C 
HETATM   24  N1  UNL     1      25.223  39.954  34.518  1.00  0.00    -0.062 NA
HETATM   25  O1  UNL     1      26.790  38.341  34.163  1.00  0.00    -0.277 OA
ENDBRANCH  22  23
ENDBRANCH   1  22
BRANCH   6  26
HETATM   26  C15 UNL     1      26.670  36.031  36.713  1.00  0.00     0.054 C 
BRANCH  26  27
HETATM   27  C16 UNL     1      27.116  34.612  36.733  1.00  0.00     0.119 C 
BRANCH  27  28
HETATM   28  N3  UNL     1      27.435  34.185  35.407  1.00  0.00    -0.412 N 
HETATM   29  C17 UNL     1      27.252  32.795  35.170  1.00  0.00     0.117 C 
HETATM   30  C18 UNL     1      26.003  32.557  34.356  1.00  0.00     0.019 C 
HETATM   31  C19 UNL     1      26.101  33.187  32.984  1.00  0.00     0.003 C 
HETATM   32  C20 UNL     1      26.962  34.428  33.006  1.00  0.00     0.019 C 
HETATM   33  C21 UNL     1      27.015  35.061  34.373  1.00  0.00     0.117 C 
ENDBRANCH  27  28
ENDBRANCH  26  27
ENDBRANCH   6  26
TORSDOF 10
ENDMDL
MODEL 2
REMARK VINA RESULT: -7.390416998     10.198     12.057
REMARK  10 active torsions:
REMARK  status: ('A' for Active; 'I' for Inactive)
REMARK    1  A    between atoms: C2_2  and  C5_5 
REMARK    2  A    between atoms: C6_6  and  C7_7 
REMARK    3  A    between atoms: C7_7  and  C8_8 
REMARK    4  A    between atoms: C8_8  and  C9_9 
REMARK    5  A    between atoms: C9_9  and  C10_10 
REMARK    6  A    between atoms: C10_10  and  C11_11 
REMARK    7  A    between atoms: C11_11  and  C12_12 
REMARK    8  A    between atoms: C14_19  and  C15_20 
REMARK    9  A    between atoms: C15_20  and  C16_21 
REMARK   10  A    between atoms: C16_21  and  N3_22 
ROOT
HETATM    1  C10 UNL     1      29.240  40.544  24.423  1.00  0.00     0.098 C 
HETATM    2  N2  UNL     1      29.511  39.473  25.370  1.00  0.00    -0.343 N 
ATOM      3  H2  UNL     1      28.770  39.106  25.967  1.00  0.00     0.163 HD
HETATM    4  C13 UNL     1      30.818  38.952  25.445  1.00  0.00     0.241 C 
HETATM    5  O2  UNL     1      31.360  38.686  26.541  1.00  0.00    -0.271 OA
HETATM    6  C14 UNL     1      31.579  38.706  24.196  1.00  0.00     0.176 C 
HETATM    7  N4  UNL     1      31.194  39.598  23.147  1.00  0.00    -0.365 N 
ATOM      8  H4  UNL     1      31.531  39.454  22.196  1.00  0.00     0.161 HD
HETATM    9  C22 UNL     1      30.336  40.686  23.449  1.00  0.00     0.100 C 
HETATM   10  N5  UNL     1      30.513  41.846  22.856  1.00  0.00    -0.387 N 
ATOM     11  H51 UNL     1      31.271  41.944  22.181  1.00  0.00     0.157 HD
ATOM     12  H52 UNL     1      29.895  42.628  23.073  1.00  0.00     0.157 HD
ENDROOT
BRANCH   1  13
HETATM   13  C9  UNL     1      29.056  41.787  25.260  1.00  0.00     0.040 C 
BRANCH  13  14
HETATM   14  C8  UNL     1      28.744  41.467  26.685  1.00  0.00     0.015 C 
BRANCH  14  15
HETATM   15  C7  UNL     1      27.916  42.561  27.343  1.00  0.00     0.094 C 
BRANCH  15  16
HETATM   16  C6  UNL     1      26.514  42.169  27.190  1.00  0.00    -0.106 C 
HETATM   17  C5  UNL     1      25.352  41.860  27.047  1.00  0.00    -0.098 C 
BRANCH  17  18
HETATM   18  C2  UNL     1      23.949  41.477  26.851  1.00  0.00     0.013 C 
HETATM   19  C1  UNL     1      23.106  42.733  26.599  1.00  0.00     0.028 C 
HETATM   20  C3  UNL     1      23.430  40.733  28.054  1.00  0.00     0.028 C 
HETATM   21  C4  UNL     1      23.822  40.531  25.663  1.00  0.00     0.028 C 
ENDBRANCH  17  18
ENDBRANCH  15  16
ENDBRANCH  14  15
ENDBRANCH  13  14
ENDBRANCH   1  13
BRANCH   1  22
HETATM   22  C11 UNL     1      27.933  40.158  23.759  1.00  0.00     0.138 C 
BRANCH  22  23
HETATM   23  C12 UNL     1      27.684  38.724  23.666  1.00  0.00     0.234 C 
HETATM   24  N1  UNL     1      26.830  37.975  24.510  1.00  0.00    -0.062 NA
HETATM   25  O1  UNL     1      28.274  38.053  22.751  1.00  0.00    -0.277 OA
ENDBRANCH  22  23
ENDBRANCH   1  22
BRANCH   6  26
HETATM   26  C15 UNL     1      31.413  37.248  23.843  1.00  0.00     0.054 C 
BRANCH  26  27
HETATM   27  C16 UNL     1      32.673  36.593  23.400  1.00  0.00     0.119 C 
BRANCH  27  28
HETATM   28  N3  UNL     1      33.094  35.640  24.379  1.00  0.00    -0.412 N 
HETATM   29  C17 UNL     1      32.129  35.353  25.382  1.00  0.00     0.117 C 
HETATM   30  C18 UNL     1      31.498  34.003  25.138  1.00  0.00     0.019 C 
HETATM   31  C19 UNL     1      32.514  32.886  25.230  1.00  0.00     0.003 C 
HETATM   32  C20 UNL     1      33.887  33.351  24.801  1.00  0.00     0.019 C 
HETATM   33  C21 UNL     1      33.823  34.534  23.869  1.00  0.00     0.117 C 
ENDBRANCH  27  28
ENDBRANCH  26  27
ENDBRANCH   6  26
TORSDOF 10
ENDMDL
MODEL 3
REMARK VINA RESULT: -7.316583093     10.148     12.017
REMARK  10 active torsions:
REMARK  status: ('A' for Active; 'I' for Inactive)
REMARK    1  A    between atoms: C2_2  and  C5_5 
REMARK    2  A    between atoms: C6_6  and  C7_7 
REMARK    3  A    between atoms: C7_7  and  C8_8 
REMARK    4  A    between atoms: C8_8  and  C9_9 
REMARK    5  A    between atoms: C9_9  and  C10_10 
REMARK    6  A    between atoms: C10_10  and  C11_11 
REMARK    7  A    between atoms: C11_11  and  C12_12 
REMARK    8  A    between atoms: C14_19  and  C15_20 
REMARK    9  A    between atoms: C15_20  and  C16_21 
REMARK   10  A    between atoms: C16_21  and  N3_22 
ROOT
HETATM    1  C10 UNL     1      28.922  40.810  24.584  1.00  0.00     0.098 C 
HETATM    2  N2  UNL     1      29.299  39.727  25.480  1.00  0.00    -0.343 N 
ATOM      3  H2  UNL     1      28.622  39.334  26.135  1.00  0.00     0.163 HD
HETATM    4  C13 UNL     1      30.617  39.231  25.425  1.00  0.00     0.241 C 
HETATM    5  O2  UNL     1      31.261  38.956  26.461  1.00  0.00    -0.271 OA
HETATM    6  C14 UNL     1      31.264  39.023  24.108  1.00  0.00     0.176 C 
HETATM    7  N4  UNL     1      30.768  39.927  23.116  1.00  0.00    -0.365 N 
ATOM      8  H4  UNL     1      31.020  39.807  22.136  1.00  0.00     0.161 HD
HETATM    9  C22 UNL     1      29.922  40.991  23.517  1.00  0.00     0.100 C 
HETATM   10  N5  UNL     1      30.022  42.165  22.934  1.00  0.00    -0.387 N 
ATOM     11  H51 UNL     1      30.714  42.292  22.195  1.00  0.00     0.157 HD
ATOM     12  H52 UNL     1      29.413  42.931  23.222  1.00  0.00     0.157 HD
ENDROOT
BRANCH   1  13
HETATM   13  C9  UNL     1      28.793  42.033  25.459  1.00  0.00     0.040 C 
BRANCH  13  14
HETATM   14  C8  UNL     1      28.758  41.687  26.912  1.00  0.00     0.015 C 
BRANCH  14  15
HETATM   15  C7  UNL     1      27.842  42.617  27.693  1.00  0.00     0.094 C 
BRANCH  15  16
HETATM   16  C6  UNL     1      26.472  42.252  27.330  1.00  0.00    -0.106 C 
HETATM   17  C5  UNL     1      25.336  41.943  27.049  1.00  0.00    -0.098 C 
BRANCH  17  18
HETATM   18  C2  UNL     1      23.950  41.583  26.727  1.00  0.00     0.013 C 
HETATM   19  C1  UNL     1      23.336  40.809  27.900  1.00  0.00     0.028 C 
HETATM   20  C3  UNL     1      23.897  40.752  25.470  1.00  0.00     0.028 C 
HETATM   21  C4  UNL     1      23.129  42.837  26.458  1.00  0.00     0.028 C 
ENDBRANCH  17  18
ENDBRANCH  15  16
ENDBRANCH  14  15
ENDBRANCH  13  14
ENDBRANCH   1  13
BRANCH   1  22
HETATM   22  C11 UNL     1      27.567  40.410  24.034  1.00  0.00     0.138 C 
BRANCH  22  23
HETATM   23  C12 UNL     1      27.354  38.974  23.894  1.00  0.00     0.234 C 
HETATM   24  N1  UNL     1      26.606  38.157  24.775  1.00  0.00    -0.062 NA
HETATM   25  O1  UNL     1      27.875  38.366  22.896  1.00  0.00    -0.277 OA
ENDBRANCH  22  23
ENDBRANCH   1  22
BRANCH   6  26
HETATM   26  C15 UNL     1      31.094  37.569  23.741  1.00  0.00     0.054 C 
BRANCH  26  27
HETATM   27  C16 UNL     1      32.371  36.808  23.705  1.00  0.00     0.119 C 
BRANCH  27  28
HETATM   28  N3  UNL     1      32.101  35.406  23.771  1.00  0.00    -0.412 N 
HETATM   29  C17 UNL     1      33.151  34.576  23.293  1.00  0.00     0.117 C 
HETATM   30  C18 UNL     1      33.884  33.932  24.445  1.00  0.00     0.019 C 
HETATM   31  C19 UNL     1      32.980  33.015  25.239  1.00  0.00     0.003 C 
HETATM   32  C20 UNL     1      31.547  33.491  25.212  1.00  0.00     0.019 C 
HETATM   33  C21 UNL     1      31.444  34.973  24.952  1.00  0.00     0.117 C 
ENDBRANCH  27  28
ENDBRANCH  26  27
ENDBRANCH   6  26
TORSDOF 10
ENDMDL
MODEL 4
REMARK VINA RESULT: -7.265403548      1.104      1.357
REMARK  10 active torsions:
REMARK  status: ('A' for Active; 'I' for Inactive)
REMARK    1  A    between atoms: C2_2  and  C5_5 
REMARK    2  A    between atoms: C6_6  and  C7_7 
REMARK    3  A    between atoms: C7_7  and  C8_8 
REMARK    4  A    between atoms: C8_8  and  C9_9 
REMARK    5  A    between atoms: C9_9  and  C10_10 
REMARK    6  A    between atoms: C10_10  and  C11_11 
REMARK    7  A    between atoms: C11_11  and  C12_12 
REMARK    8  A    between atoms: C14_19  and  C15_20 
REMARK    9  A    between atoms: C15_20  and  C16_21 
REMARK   10  A    between atoms: C16_21  and  N3_22 
ROOT
HETATM    1  C10 UNL     1      27.962  39.599  36.738  1.00  0.00     0.098 C 
HETATM    2  N2  UNL     1      26.683  39.192  37.301  1.00  0.00    -0.343 N 
ATOM      3  H2  UNL     1      25.838  39.732  37.117  1.00  0.00     0.163 HD
HETATM    4  C13 UNL     1      26.636  38.036  38.106  1.00  0.00     0.241 C 
HETATM    5  O2  UNL     1      25.965  37.995  39.161  1.00  0.00    -0.271 OA
HETATM    6  C14 UNL     1      27.397  36.832  37.698  1.00  0.00     0.176 C 
HETATM    7  N4  UNL     1      28.565  37.163  36.941  1.00  0.00    -0.365 N 
ATOM      8  H4  UNL     1      29.105  36.433  36.478  1.00  0.00     0.161 HD
HETATM    9  C22 UNL     1      28.960  38.521  36.846  1.00  0.00     0.100 C 
HETATM   10  N5  UNL     1      30.237  38.835  36.852  1.00  0.00    -0.387 N 
ATOM     11  H51 UNL     1      30.928  38.089  36.927  1.00  0.00     0.157 HD
ATOM     12  H52 UNL     1      30.521  39.813  36.783  1.00  0.00     0.157 HD
ENDROOT
BRANCH   1  13
HETATM   13  C9  UNL     1      28.369  40.833  37.508  1.00  0.00     0.040 C 
BRANCH  13  14
HETATM   14  C8  UNL     1      28.523  42.025  36.622  1.00  0.00     0.015 C 
BRANCH  14  15
HETATM   15  C7  UNL     1      29.948  42.171  36.111  1.00  0.00     0.094 C 
BRANCH  15  16
HETATM   16  C6  UNL     1      30.106  43.570  35.710  1.00  0.00    -0.106 C 
HETATM   17  C5  UNL     1      30.245  44.731  35.398  1.00  0.00    -0.098 C 
BRANCH  17  18
HETATM   18  C2  UNL     1      30.438  46.137  35.024  1.00  0.00     0.013 C 
HETATM   19  C1  UNL     1      30.872  46.940  36.255  1.00  0.00     0.028 C 
HETATM   20  C3  UNL     1      29.168  46.711  34.448  1.00  0.00     0.028 C 
HETATM   21  C4  UNL     1      31.501  46.252  33.939  1.00  0.00     0.028 C 
ENDBRANCH  17  18
ENDBRANCH  15  16
ENDBRANCH  14  15
ENDBRANCH  13  14
ENDBRANCH   1  13
BRANCH   1  22
HETATM   22  C11 UNL     1      27.659  39.955  35.296  1.00  0.00     0.138 C 
BRANCH  22  23
HETATM   23  C12 UNL     1      26.534  39.240  34.704  1.00  0.00     0.234 C 
HETATM   24  N1  UNL     1      25.231  39.759  34.514  1.00  0.00    -0.062 NA
HETATM   25  O1  UNL     1      26.705  38.035  34.310  1.00  0.00    -0.277 OA
ENDBRANCH  22  23
ENDBRANCH   1  22
BRANCH   6  26
HETATM   26  C15 UNL     1      26.444  35.916  36.970  1.00  0.00     0.054 C 
BRANCH  26  27
HETATM   27  C16 UNL     1      27.120  34.918  36.099  1.00  0.00     0.119 C 
BRANCH  27  28
HETATM   28  N3  UNL     1      26.154  34.012  35.561  1.00  0.00    -0.412 N 
HETATM   29  C17 UNL     1      26.258  32.678  36.041  1.00  0.00     0.117 C 
HETATM   30  C18 UNL     1      25.164  32.388  37.040  1.00  0.00     0.019 C 
HETATM   31  C19 UNL     1      23.793  32.479  36.407  1.00  0.00     0.003 C 
HETATM   32  C20 UNL     1      23.768  33.487  35.282  1.00  0.00     0.019 C 
HETATM   33  C21 UNL     1      24.841  34.535  35.432  1.00  0.00     0.117 C 
ENDBRANCH  27  28
ENDBRANCH  26  27
ENDBRANCH   6  26
TORSDOF 10
ENDMDL
MODEL 5
REMARK VINA RESULT: -7.264358690      9.837     11.673
REMARK  10 active torsions:
REMARK  status: ('A' for Active; 'I' for Inactive)
REMARK    1  A    between atoms: C2_2  and  C5_5 
REMARK    2  A    between atoms: C6_6  and  C7_7 
REMARK    3  A    between atoms: C7_7  and  C8_8 
REMARK    4  A    between atoms: C8_8  and  C9_9 
REMARK    5  A    between atoms: C9_9  and  C10_10 
REMARK    6  A    between atoms: C10_10  and  C11_11 
REMARK    7  A    between atoms: C11_11  and  C12_12 
REMARK    8  A    between atoms: C14_19  and  C15_20 
REMARK    9  A    between atoms: C15_20  and  C16_21 
REMARK   10  A    between atoms: C16_21  and  N3_22 
ROOT
HETATM    1  C10 UNL     1      29.336  40.551  24.047  1.00  0.00     0.098 C 
HETATM    2  N2  UNL     1      29.416  39.566  25.114  1.00  0.00    -0.343 N 
ATOM      3  H2  UNL     1      28.577  39.270  25.613  1.00  0.00     0.163 HD
HETATM    4  C13 UNL     1      30.676  39.028  25.444  1.00  0.00     0.241 C 
HETATM    5  O2  UNL     1      31.027  38.853  26.632  1.00  0.00    -0.271 OA
HETATM    6  C14 UNL     1      31.617  38.654  24.362  1.00  0.00     0.176 C 
HETATM    7  N4  UNL     1      31.435  39.455  23.190  1.00  0.00    -0.365 N 
ATOM      8  H4  UNL     1      31.915  39.218  22.323  1.00  0.00     0.161 HD
HETATM    9  C22 UNL     1      30.578  40.582  23.254  1.00  0.00     0.100 C 
HETATM   10  N5  UNL     1      30.887  41.679  22.598  1.00  0.00    -0.387 N 
ATOM     11  H51 UNL     1      31.746  41.701  22.049  1.00  0.00     0.157 HD
ATOM     12  H52 UNL     1      30.270  42.490  22.644  1.00  0.00     0.157 HD
ENDROOT
BRANCH   1  13
HETATM   13  C9  UNL     1      29.064  41.869  24.731  1.00  0.00     0.040 C 
BRANCH  13  14
HETATM   14  C8  UNL     1      27.993  41.757  25.766  1.00  0.00     0.015 C 
BRANCH  14  15
HETATM   15  C7  UNL     1      28.306  42.593  26.998  1.00  0.00     0.094 C 
BRANCH  15  16
HETATM   16  C6  UNL     1      27.761  41.866  28.145  1.00  0.00    -0.106 C 
HETATM   17  C5  UNL     1      27.292  41.262  29.083  1.00  0.00    -0.098 C 
BRANCH  17  18
HETATM   18  C2  UNL     1      26.719  40.511  30.206  1.00  0.00     0.013 C 
HETATM   19  C1  UNL     1      25.249  40.188  29.908  1.00  0.00     0.028 C 
HETATM   20  C3  UNL     1      26.830  41.302  31.484  1.00  0.00     0.028 C 
HETATM   21  C4  UNL     1      27.491  39.216  30.423  1.00  0.00     0.028 C 
ENDBRANCH  17  18
ENDBRANCH  15  16
ENDBRANCH  14  15
ENDBRANCH  13  14
ENDBRANCH   1  13
BRANCH   1  22
HETATM   22  C11 UNL     1      28.139  40.132  23.215  1.00  0.00     0.138 C 
BRANCH  22  23
HETATM   23  C12 UNL     1      27.664  38.775  23.454  1.00  0.00     0.234 C 
HETATM   24  N1  UNL     1      26.583  38.410  24.292  1.00  0.00    -0.062 NA
HETATM   25  O1  UNL     1      28.253  37.802  22.868  1.00  0.00    -0.277 OA
ENDBRANCH  22  23
ENDBRANCH   1  22
BRANCH   6  26
HETATM   26  C15 UNL     1      31.460  37.174  24.114  1.00  0.00     0.054 C 
BRANCH  26  27
HETATM   27  C16 UNL     1      32.693  36.519  23.600  1.00  0.00     0.119 C 
BRANCH  27  28
HETATM   28  N3  UNL     1      33.114  35.498  24.507  1.00  0.00    -0.412 N 
HETATM   29  C17 UNL     1      32.135  35.112  25.464  1.00  0.00     0.117 C 
HETATM   30  C18 UNL     1      31.536  33.776  25.098  1.00  0.00     0.019 C 
HETATM   31  C19 UNL     1      32.572  32.674  25.120  1.00  0.00     0.003 C 
HETATM   32  C20 UNL     1      33.943  33.196  24.760  1.00  0.00     0.019 C 
HETATM   33  C21 UNL     1      33.874  34.450  23.925  1.00  0.00     0.117 C 
ENDBRANCH  27  28
ENDBRANCH  26  27
ENDBRANCH   6  26
TORSDOF 10
ENDMDL
