MODEL 1
REMARK VINA RESULT: -3.487223569      0.000      0.000
REMARK  2 active torsions:
REMARK  status: ('A' for Active; 'I' for Inactive)
REMARK    1  A    between atoms: N1_2  and  C2_5 
REMARK    2  A    between atoms: C2_5  and  C4_7 
ROOT
HETATM    1  C1  UNL     1      77.068  12.476  13.999  1.00  0.00     0.267 C 
HETATM    2  N1  UNL     1      76.075  13.433  13.603  1.00  0.00    -0.069 N 
ATOM      3  H11 UNL     1      76.511  14.270  13.217  1.00  0.00     0.277 HD
ATOM      4  H12 UNL     1      75.619  13.842  14.418  1.00  0.00     0.277 HD
ENDROOT
BRANCH   2   5
HETATM    5  C2  UNL     1      75.099  12.891  12.684  1.00  0.00     0.242 C 
HETATM    6  C3  UNL     1      74.154  12.031  13.532  1.00  0.00     0.047 C 
BRANCH   5   7
HETATM    7  C4  UNL     1      75.722  12.066  11.624  1.00  0.00     0.263 C 
HETATM    8  O1  UNL     1      75.083  11.542  10.739  1.00  0.00    -0.305 OA
ENDBRANCH   5   7
ENDBRANCH   2   5
TORSDOF 2
ENDMDL
MODEL 2
REMARK VINA RESULT: -3.483775990      1.927      2.448
REMARK  2 active torsions:
REMARK  status: ('A' for Active; 'I' for Inactive)
REMARK    1  A    between atoms: N1_2  and  C2_5 
REMARK    2  A    between atoms: C2_5  and  C4_7 
ROOT
HETATM    1  C1  UNL     1      73.579  12.613  15.958  1.00  0.00     0.267 C 
HETATM    2  N1  UNL     1      73.979  13.165  14.697  1.00  0.00    -0.069 N 
ATOM      3  H11 UNL     1      74.838  13.707  14.793  1.00  0.00     0.277 HD
ATOM      4  H12 UNL     1      73.344  13.907  14.406  1.00  0.00     0.277 HD
ENDROOT
BRANCH   2   5
HETATM    5  C2  UNL     1      74.115  12.167  13.658  1.00  0.00     0.242 C 
HETATM    6  C3  UNL     1      74.977  11.049  14.256  1.00  0.00     0.047 C 
BRANCH   5   7
HETATM    7  C4  UNL     1      74.760  12.709  12.440  1.00  0.00     0.263 C 
HETATM    8  O1  UNL     1      75.494  13.671  12.458  1.00  0.00    -0.305 OA
ENDBRANCH   5   7
ENDBRANCH   2   5
TORSDOF 2
ENDMDL
MODEL 3
REMARK VINA RESULT: -3.482868153      1.915      2.525
REMARK  2 active torsions:
REMARK  status: ('A' for Active; 'I' for Inactive)
REMARK    1  A    between atoms: N1_2  and  C2_5 
REMARK    2  A    between atoms: C2_5  and  C4_7 
ROOT
HETATM    1  C1  UNL     1      73.600  12.657  15.090  1.00  0.00     0.267 C 
HETATM    2  N1  UNL     1      73.742  11.523  14.223  1.00  0.00    -0.069 N 
ATOM      3  H11 UNL     1      72.869  11.331  13.732  1.00  0.00     0.277 HD
ATOM      4  H12 UNL     1      73.825  10.661  14.762  1.00  0.00     0.277 HD
ENDROOT
BRANCH   2   5
HETATM    5  C2  UNL     1      74.840  11.655  13.291  1.00  0.00     0.242 C 
HETATM    6  C3  UNL     1      76.104  11.801  14.146  1.00  0.00     0.047 C 
BRANCH   5   7
HETATM    7  C4  UNL     1      74.687  12.833  12.406  1.00  0.00     0.263 C 
HETATM    8  O1  UNL     1      75.553  13.667  12.268  1.00  0.00    -0.305 OA
ENDBRANCH   5   7
ENDBRANCH   2   5
TORSDOF 2
ENDMDL
MODEL 4
REMARK VINA RESULT: -3.380308192      6.684      7.189
REMARK  2 active torsions:
REMARK  status: ('A' for Active; 'I' for Inactive)
REMARK    1  A    between atoms: N1_2  and  C2_5 
REMARK    2  A    between atoms: C2_5  and  C4_7 
ROOT
HETATM    1  C1  UNL     1      69.954  16.722  14.171  1.00  0.00     0.267 C 
HETATM    2  N1  UNL     1      71.286  16.616  14.692  1.00  0.00    -0.069 N 
ATOM      3  H11 UNL     1      71.846  17.426  14.428  1.00  0.00     0.277 HD
ATOM      4  H12 UNL     1      71.809  15.886  14.209  1.00  0.00     0.277 HD
ENDROOT
BRANCH   2   5
HETATM    5  C2  UNL     1      71.321  16.411  16.124  1.00  0.00     0.242 C 
HETATM    6  C3  UNL     1      70.174  17.252  16.698  1.00  0.00     0.047 C 
BRANCH   5   7
HETATM    7  C4  UNL     1      72.608  16.834  16.721  1.00  0.00     0.263 C 
HETATM    8  O1  UNL     1      73.674  16.378  16.373  1.00  0.00    -0.305 OA
ENDBRANCH   5   7
ENDBRANCH   2   5
TORSDOF 2
ENDMDL
MODEL 5
REMARK VINA RESULT: -3.347729203      5.204      5.670
REMARK  2 active torsions:
REMARK  status: ('A' for Active; 'I' for Inactive)
REMARK    1  A    between atoms: N1_2  and  C2_5 
REMARK    2  A    between atoms: C2_5  and  C4_7 
ROOT
HETATM    1  C1  UNL     1      74.722  13.678  16.608  1.00  0.00     0.267 C 
HETATM    2  N1  UNL     1      73.657  14.339  15.912  1.00  0.00    -0.069 N 
ATOM      3  H11 UNL     1      73.254  13.728  15.201  1.00  0.00     0.277 HD
ATOM      4  H12 UNL     1      74.019  15.079  15.311  1.00  0.00     0.277 HD
ENDROOT
BRANCH   2   5
HETATM    5  C2  UNL     1      72.631  14.848  16.795  1.00  0.00     0.242 C 
HETATM    6  C3  UNL     1      71.311  14.241  16.302  1.00  0.00     0.047 C 
BRANCH   5   7
HETATM    7  C4  UNL     1      72.550  16.326  16.769  1.00  0.00     0.263 C 
HETATM    8  O1  UNL     1      73.473  17.028  16.420  1.00  0.00    -0.305 OA
ENDBRANCH   5   7
ENDBRANCH   2   5
TORSDOF 2
ENDMDL
