MODEL 1
REMARK VINA RESULT: -3.895713174      0.000      0.000
REMARK  2 active torsions:
REMARK  status: ('A' for Active; 'I' for Inactive)
REMARK    1  A    between atoms: C2_2  and  C3_3 
REMARK    2  A    between atoms: C3_3  and  N1_4 
ROOT
HETATM    1  N1  UNL     1      71.571  16.347  15.925  1.00  0.00     0.142 N 
HETATM    2  C4  UNL     1      72.726  16.797  16.671  1.00  0.00     0.507 C 
HETATM    3  N2  UNL     1      73.254  15.438  16.473  1.00  0.00    -0.022 N 
ATOM      4  H21 UNL     1      73.886  15.007  17.148  1.00  0.00     0.281 HD
ATOM      5  H22 UNL     1      73.942  15.232  15.749  1.00  0.00     0.281 HD
HETATM    6  C5  UNL     1      71.876  15.019  16.350  1.00  0.00     0.507 C 
ENDROOT
BRANCH   1   7
HETATM    7  C3  UNL     1      70.312  16.884  16.392  1.00  0.00     0.303 C 
BRANCH   7   8
HETATM    8  C2  UNL     1      70.176  18.286  15.913  1.00  0.00    -0.007 C 
HETATM    9  C1  UNL     1      69.671  18.499  14.717  1.00  0.00     0.008 C 
ENDBRANCH   7   8
ENDBRANCH   1   7
TORSDOF 2
ENDMDL
MODEL 2
REMARK VINA RESULT: -3.822747715      1.104      1.374
REMARK  2 active torsions:
REMARK  status: ('A' for Active; 'I' for Inactive)
REMARK    1  A    between atoms: C2_2  and  C3_3 
REMARK    2  A    between atoms: C3_3  and  N1_4 
ROOT
HETATM    1  N1  UNL     1      71.470  17.458  15.503  1.00  0.00     0.142 N 
HETATM    2  C4  UNL     1      72.654  17.973  16.155  1.00  0.00     0.507 C 
HETATM    3  N2  UNL     1      73.024  16.564  16.367  1.00  0.00    -0.022 N 
ATOM      4  H21 UNL     1      73.586  16.274  17.167  1.00  0.00     0.281 HD
ATOM      5  H22 UNL     1      73.697  16.092  15.764  1.00  0.00     0.281 HD
HETATM    6  C5  UNL     1      71.608  16.276  16.292  1.00  0.00     0.507 C 
ENDROOT
BRANCH   1   7
HETATM    7  C3  UNL     1      70.273  18.235  15.737  1.00  0.00     0.303 C 
BRANCH   7   8
HETATM    8  C2  UNL     1      69.570  18.445  14.443  1.00  0.00    -0.007 C 
HETATM    9  C1  UNL     1      68.833  17.469  13.958  1.00  0.00     0.008 C 
ENDBRANCH   7   8
ENDBRANCH   1   7
TORSDOF 2
ENDMDL
MODEL 3
REMARK VINA RESULT: -3.797499183      1.029      1.500
REMARK  2 active torsions:
REMARK  status: ('A' for Active; 'I' for Inactive)
REMARK    1  A    between atoms: C2_2  and  C3_3 
REMARK    2  A    between atoms: C3_3  and  N1_4 
ROOT
HETATM    1  N1  UNL     1      71.098  17.125  16.530  1.00  0.00     0.142 N 
HETATM    2  C4  UNL     1      71.822  15.895  16.298  1.00  0.00     0.507 C 
HETATM    3  N2  UNL     1      73.038  16.722  16.344  1.00  0.00    -0.022 N 
ATOM      4  H21 UNL     1      73.877  16.470  15.820  1.00  0.00     0.281 HD
ATOM      5  H22 UNL     1      73.618  16.774  17.182  1.00  0.00     0.281 HD
HETATM    6  C5  UNL     1      72.194  17.824  15.938  1.00  0.00     0.507 C 
ENDROOT
BRANCH   1   7
HETATM    7  C3  UNL     1      69.839  17.219  15.826  1.00  0.00     0.303 C 
BRANCH   7   8
HETATM    8  C2  UNL     1      69.908  18.343  14.854  1.00  0.00    -0.007 C 
HETATM    9  C1  UNL     1      68.917  18.507  14.005  1.00  0.00     0.008 C 
ENDBRANCH   7   8
ENDBRANCH   1   7
TORSDOF 2
ENDMDL
MODEL 4
REMARK VINA RESULT: -3.744458806      1.402      1.587
REMARK  2 active torsions:
REMARK  status: ('A' for Active; 'I' for Inactive)
REMARK    1  A    between atoms: C2_2  and  C3_3 
REMARK    2  A    between atoms: C3_3  and  N1_4 
ROOT
HETATM    1  N1  UNL     1      71.246  16.559  15.082  1.00  0.00     0.142 N 
HETATM    2  C4  UNL     1      71.783  17.835  15.502  1.00  0.00     0.507 C 
HETATM    3  N2  UNL     1      72.772  17.053  16.261  1.00  0.00    -0.022 N 
ATOM      4  H21 UNL     1      73.188  17.409  17.122  1.00  0.00     0.281 HD
ATOM      5  H22 UNL     1      73.716  16.898  15.908  1.00  0.00     0.281 HD
HETATM    6  C5  UNL     1      71.786  15.994  16.277  1.00  0.00     0.507 C 
ENDROOT
BRANCH   1   7
HETATM    7  C3  UNL     1      69.805  16.526  14.966  1.00  0.00     0.303 C 
BRANCH   7   8
HETATM    8  C2  UNL     1      69.341  17.793  14.339  1.00  0.00    -0.007 C 
HETATM    9  C1  UNL     1      68.214  17.786  13.659  1.00  0.00     0.008 C 
ENDBRANCH   7   8
ENDBRANCH   1   7
TORSDOF 2
ENDMDL
MODEL 5
REMARK VINA RESULT: -3.682474366      1.505      2.291
REMARK  2 active torsions:
REMARK  status: ('A' for Active; 'I' for Inactive)
REMARK    1  A    between atoms: C2_2  and  C3_3 
REMARK    2  A    between atoms: C3_3  and  N1_4 
ROOT
HETATM    1  N1  UNL     1      70.677  17.728  15.641  1.00  0.00     0.142 N 
HETATM    2  C4  UNL     1      71.041  16.389  15.233  1.00  0.00     0.507 C 
HETATM    3  N2  UNL     1      72.328  16.646  15.901  1.00  0.00    -0.022 N 
ATOM      4  H21 UNL     1      73.190  16.200  15.589  1.00  0.00     0.281 HD
ATOM      5  H22 UNL     1      72.524  16.293  16.838  1.00  0.00     0.281 HD
HETATM    6  C5  UNL     1      72.069  18.048  15.658  1.00  0.00     0.507 C 
ENDROOT
BRANCH   1   7
HETATM    7  C3  UNL     1      69.878  18.449  14.676  1.00  0.00     0.303 C 
BRANCH   7   8
HETATM    8  C2  UNL     1      68.957  17.495  14.000  1.00  0.00    -0.007 C 
HETATM    9  C1  UNL     1      67.852  17.960  13.458  1.00  0.00     0.008 C 
ENDBRANCH   7   8
ENDBRANCH   1   7
TORSDOF 2
ENDMDL
