MODEL 1
REMARK VINA RESULT: -3.727844443      0.000      0.000
REMARK  3 active torsions:
REMARK  status: ('A' for Active; 'I' for Inactive)
REMARK    1  A    between atoms: C2_2  and  O1_3 
REMARK    2  A    between atoms: O1_3  and  C3_4 
REMARK    3  A    between atoms: C5_6  and  N1_7 
ROOT
HETATM    1  C3  UNL     1      74.075  13.372  16.309  1.00  0.00     0.160 A 
HETATM    2  C4  UNL     1      72.898  12.516  16.550  1.00  0.00     0.070 A 
HETATM    3  C5  UNL     1      73.504  12.623  15.164  1.00  0.00     0.215 A 
ENDROOT
BRANCH   3   4
HETATM    4  N1  UNL     1      74.109  11.452  14.633  1.00  0.00    -0.072 N 
ATOM      5  H13 UNL     1      75.006  11.725  14.232  1.00  0.00     0.274 HD
ATOM      6  H12 UNL     1      74.391  10.869  15.420  1.00  0.00     0.274 HD
ATOM      7  H11 UNL     1      73.642  10.849  13.956  1.00  0.00     0.274 HD
ENDBRANCH   3   4
BRANCH   1   8
HETATM    8  O1  UNL     1      73.916  14.780  16.294  1.00  0.00    -0.356 OA
BRANCH   8   9
HETATM    9  C2  UNL     1      72.774  15.408  16.759  1.00  0.00     0.125 C 
HETATM   10  C1  UNL     1      72.739  16.741  16.762  1.00  0.00     0.037 C 
ENDBRANCH   8   9
ENDBRANCH   1   8
TORSDOF 3
ENDMDL
MODEL 2
REMARK VINA RESULT: -3.715783718      4.738      5.732
REMARK  3 active torsions:
REMARK  status: ('A' for Active; 'I' for Inactive)
REMARK    1  A    between atoms: C2_2  and  O1_3 
REMARK    2  A    between atoms: O1_3  and  C3_4 
REMARK    3  A    between atoms: C5_6  and  N1_7 
ROOT
HETATM    1  C3  UNL     1      70.445  18.330  15.818  1.00  0.00     0.160 A 
HETATM    2  C4  UNL     1      70.256  17.084  16.585  1.00  0.00     0.070 A 
HETATM    3  C5  UNL     1      71.423  17.233  15.629  1.00  0.00     0.215 A 
ENDROOT
BRANCH   3   4
HETATM    4  N1  UNL     1      72.725  17.256  16.199  1.00  0.00    -0.072 N 
ATOM      5  H13 UNL     1      72.668  17.784  17.069  1.00  0.00     0.274 HD
ATOM      6  H12 UNL     1      72.931  16.314  16.530  1.00  0.00     0.274 HD
ATOM      7  H11 UNL     1      73.544  17.589  15.691  1.00  0.00     0.274 HD
ENDBRANCH   3   4
BRANCH   1   8
HETATM    8  O1  UNL     1      69.583  18.612  14.730  1.00  0.00    -0.356 OA
BRANCH   8   9
HETATM    9  C2  UNL     1      68.926  17.621  14.021  1.00  0.00     0.125 C 
HETATM   10  C1  UNL     1      67.758  17.918  13.449  1.00  0.00     0.037 C 
ENDBRANCH   8   9
ENDBRANCH   1   8
TORSDOF 3
ENDMDL
MODEL 3
REMARK VINA RESULT: -3.696070020      2.920      4.380
REMARK  3 active torsions:
REMARK  status: ('A' for Active; 'I' for Inactive)
REMARK    1  A    between atoms: C2_2  and  O1_3 
REMARK    2  A    between atoms: O1_3  and  C3_4 
REMARK    3  A    between atoms: C5_6  and  N1_7 
ROOT
HETATM    1  C3  UNL     1      74.027  12.234  13.627  1.00  0.00     0.160 A 
HETATM    2  C4  UNL     1      74.721  11.573  14.749  1.00  0.00     0.070 A 
HETATM    3  C5  UNL     1      73.635  12.599  15.010  1.00  0.00     0.215 A 
ENDROOT
BRANCH   3   4
HETATM    4  N1  UNL     1      72.439  12.131  15.618  1.00  0.00    -0.072 N 
ATOM      5  H13 UNL     1      71.993  11.489  14.965  1.00  0.00     0.274 HD
ATOM      6  H12 UNL     1      72.707  11.512  16.384  1.00  0.00     0.274 HD
ATOM      7  H11 UNL     1      71.718  12.760  15.971  1.00  0.00     0.274 HD
ENDBRANCH   3   4
BRANCH   1   8
HETATM    8  O1  UNL     1      74.710  13.221  12.875  1.00  0.00    -0.356 OA
BRANCH   8   9
HETATM    9  C2  UNL     1      75.865  12.951  12.161  1.00  0.00     0.125 C 
HETATM   10  C1  UNL     1      75.904  11.850  11.410  1.00  0.00     0.037 C 
ENDBRANCH   8   9
ENDBRANCH   1   8
TORSDOF 3
ENDMDL
MODEL 4
REMARK VINA RESULT: -3.683677534      1.764      1.977
REMARK  3 active torsions:
REMARK  status: ('A' for Active; 'I' for Inactive)
REMARK    1  A    between atoms: C2_2  and  O1_3 
REMARK    2  A    between atoms: O1_3  and  C3_4 
REMARK    3  A    between atoms: C5_6  and  N1_7 
ROOT
HETATM    1  C3  UNL     1      72.547  13.175  15.779  1.00  0.00     0.160 A 
HETATM    2  C4  UNL     1      73.212  12.582  16.956  1.00  0.00     0.070 A 
HETATM    3  C5  UNL     1      71.703  12.727  16.913  1.00  0.00     0.215 A 
ENDROOT
BRANCH   3   4
HETATM    4  N1  UNL     1      70.941  11.529  16.877  1.00  0.00    -0.072 N 
ATOM      5  H13 UNL     1      70.199  11.657  16.190  1.00  0.00     0.274 HD
ATOM      6  H12 UNL     1      71.519  10.810  16.441  1.00  0.00     0.274 HD
ATOM      7  H11 UNL     1      70.520  11.118  17.710  1.00  0.00     0.274 HD
ENDBRANCH   3   4
BRANCH   1   8
HETATM    8  O1  UNL     1      72.638  14.571  15.562  1.00  0.00    -0.356 OA
BRANCH   8   9
HETATM    9  C2  UNL     1      71.982  15.495  16.358  1.00  0.00     0.125 C 
HETATM   10  C1  UNL     1      72.667  16.551  16.800  1.00  0.00     0.037 C 
ENDBRANCH   8   9
ENDBRANCH   1   8
TORSDOF 3
ENDMDL
MODEL 5
REMARK VINA RESULT: -3.682925078      2.342      3.477
REMARK  3 active torsions:
REMARK  status: ('A' for Active; 'I' for Inactive)
REMARK    1  A    between atoms: C2_2  and  O1_3 
REMARK    2  A    between atoms: O1_3  and  C3_4 
REMARK    3  A    between atoms: C5_6  and  N1_7 
ROOT
HETATM    1  C3  UNL     1      73.028  12.615  16.154  1.00  0.00     0.160 A 
HETATM    2  C4  UNL     1      72.408  13.426  17.219  1.00  0.00     0.070 A 
HETATM    3  C5  UNL     1      71.554  12.573  16.302  1.00  0.00     0.215 A 
ENDROOT
BRANCH   3   4
HETATM    4  N1  UNL     1      70.871  11.475  16.893  1.00  0.00    -0.072 N 
ATOM      5  H13 UNL     1      70.804  10.741  16.188  1.00  0.00     0.274 HD
ATOM      6  H12 UNL     1      71.499  11.059  17.581  1.00  0.00     0.274 HD
ATOM      7  H11 UNL     1      69.954  11.567  17.330  1.00  0.00     0.274 HD
ENDBRANCH   3   4
BRANCH   1   8
HETATM    8  O1  UNL     1      73.536  13.259  14.999  1.00  0.00    -0.356 OA
BRANCH   8   9
HETATM    9  C2  UNL     1      74.205  12.578  13.996  1.00  0.00     0.125 C 
HETATM   10  C1  UNL     1      74.700  11.371  14.270  1.00  0.00     0.037 C 
ENDBRANCH   8   9
ENDBRANCH   1   8
TORSDOF 3
ENDMDL
