MODEL 1
REMARK VINA RESULT: -3.914891331      0.000      0.000
REMARK  3 active torsions:
REMARK  status: ('A' for Active; 'I' for Inactive)
REMARK    1  A    between atoms: N2_4  and  C1_6 
REMARK    2  A    between atoms: C1_6  and  C2_7 
REMARK    3  A    between atoms: C4_9  and  N3_10 
ROOT
HETATM    1  C2  UNL     1      72.112  13.627  16.357  1.00  0.00     0.037 A 
HETATM    2  C3  UNL     1      73.032  12.449  16.006  1.00  0.00     0.041 A 
HETATM    3  C4  UNL     1      72.016  12.371  17.096  1.00  0.00     0.189 A 
ENDROOT
BRANCH   1   4
HETATM    4  C1  UNL     1      72.876  14.822  16.880  1.00  0.00     0.145 C 
BRANCH   4   5
HETATM    5  N2  UNL     1      72.583  16.014  16.139  1.00  0.00    -0.343 N 
HETATM    6  N1  UNL     1      73.076  17.125  16.401  1.00  0.00    -0.349 N 
ATOM      7  H12 UNL     1      73.722  17.174  17.189  1.00  0.00     0.176 HD
ATOM      8  H11 UNL     1      72.868  17.973  15.874  1.00  0.00     0.176 HD
ATOM      9  H2  UNL     1      71.935  15.946  15.354  1.00  0.00     0.179 HD
ENDBRANCH   4   5
ENDBRANCH   1   4
BRANCH   3  10
HETATM   10  N3  UNL     1      70.842  11.544  16.789  1.00  0.00    -0.075 N 
ATOM     11  H33 UNL     1      70.723  11.467  15.779  1.00  0.00     0.274 HD
ATOM     12  H32 UNL     1      71.030  10.570  17.024  1.00  0.00     0.274 HD
ATOM     13  H31 UNL     1      69.968  11.844  17.221  1.00  0.00     0.274 HD
ENDBRANCH   3  10
TORSDOF 3
ENDMDL
MODEL 2
REMARK VINA RESULT: -3.912563074      2.470      2.996
REMARK  3 active torsions:
REMARK  status: ('A' for Active; 'I' for Inactive)
REMARK    1  A    between atoms: N2_4  and  C1_6 
REMARK    2  A    between atoms: C1_6  and  C2_7 
REMARK    3  A    between atoms: C4_9  and  N3_10 
ROOT
HETATM    1  C2  UNL     1      73.067  12.458  16.576  1.00  0.00     0.037 A 
HETATM    2  C3  UNL     1      72.272  13.383  17.508  1.00  0.00     0.041 A 
HETATM    3  C4  UNL     1      71.623  12.601  16.415  1.00  0.00     0.189 A 
ENDROOT
BRANCH   1   4
HETATM    4  C1  UNL     1      74.059  13.213  15.720  1.00  0.00     0.145 C 
BRANCH   4   5
HETATM    5  N2  UNL     1      73.916  12.901  14.328  1.00  0.00    -0.343 N 
HETATM    6  N1  UNL     1      73.915  11.741  13.880  1.00  0.00    -0.349 N 
ATOM      7  H12 UNL     1      74.023  10.981  14.553  1.00  0.00     0.176 HD
ATOM      8  H11 UNL     1      73.813  11.519  12.889  1.00  0.00     0.176 HD
ATOM      9  H2  UNL     1      73.808  13.673  13.670  1.00  0.00     0.179 HD
ENDBRANCH   4   5
ENDBRANCH   1   4
BRANCH   3  10
HETATM   10  N3  UNL     1      70.819  11.458  16.867  1.00  0.00    -0.075 N 
ATOM     11  H33 UNL     1      70.171  11.174  16.132  1.00  0.00     0.274 HD
ATOM     12  H32 UNL     1      71.403  10.623  16.926  1.00  0.00     0.274 HD
ATOM     13  H31 UNL     1      70.315  11.593  17.743  1.00  0.00     0.274 HD
ENDBRANCH   3  10
TORSDOF 3
ENDMDL
MODEL 3
REMARK VINA RESULT: -3.845158913      2.789      4.079
REMARK  3 active torsions:
REMARK  status: ('A' for Active; 'I' for Inactive)
REMARK    1  A    between atoms: N2_4  and  C1_6 
REMARK    2  A    between atoms: C1_6  and  C2_7 
REMARK    3  A    between atoms: C4_9  and  N3_10 
ROOT
HETATM    1  C2  UNL     1      73.694  13.071  15.055  1.00  0.00     0.037 A 
HETATM    2  C3  UNL     1      75.206  12.809  14.996  1.00  0.00     0.041 A 
HETATM    3  C4  UNL     1      74.273  12.347  13.927  1.00  0.00     0.189 A 
ENDROOT
BRANCH   1   4
HETATM    4  C1  UNL     1      73.030  12.368  16.217  1.00  0.00     0.145 C 
BRANCH   4   5
HETATM    5  N2  UNL     1      71.644  12.104  15.965  1.00  0.00    -0.343 N 
HETATM    6  N1  UNL     1      70.903  11.500  16.761  1.00  0.00    -0.349 N 
ATOM      7  H12 UNL     1      71.320  11.183  17.636  1.00  0.00     0.176 HD
ATOM      8  H11 UNL     1      69.916  11.312  16.582  1.00  0.00     0.176 HD
ATOM      9  H2  UNL     1      71.243  12.429  15.085  1.00  0.00     0.179 HD
ENDBRANCH   4   5
ENDBRANCH   1   4
BRANCH   3  10
HETATM   10  N3  UNL     1      74.355  13.100  12.668  1.00  0.00    -0.075 N 
ATOM     11  H33 UNL     1      73.533  12.911  12.094  1.00  0.00     0.274 HD
ATOM     12  H32 UNL     1      74.226  14.095  12.847  1.00  0.00     0.274 HD
ATOM     13  H31 UNL     1      75.204  12.951  12.121  1.00  0.00     0.274 HD
ENDBRANCH   3  10
TORSDOF 3
ENDMDL
MODEL 4
REMARK VINA RESULT: -3.844283734      3.174      4.657
REMARK  3 active torsions:
REMARK  status: ('A' for Active; 'I' for Inactive)
REMARK    1  A    between atoms: N2_4  and  C1_6 
REMARK    2  A    between atoms: C1_6  and  C2_7 
REMARK    3  A    between atoms: C4_9  and  N3_10 
ROOT
HETATM    1  C2  UNL     1      71.093  17.001  15.898  1.00  0.00     0.037 A 
HETATM    2  C3  UNL     1      69.878  17.278  16.795  1.00  0.00     0.041 A 
HETATM    3  C4  UNL     1      70.406  18.288  15.832  1.00  0.00     0.189 A 
ENDROOT
BRANCH   1   4
HETATM    4  C1  UNL     1      72.363  16.797  16.691  1.00  0.00     0.145 C 
BRANCH   4   5
HETATM    5  N2  UNL     1      73.076  15.625  16.273  1.00  0.00    -0.343 N 
HETATM    6  N1  UNL     1      72.536  14.658  15.706  1.00  0.00    -0.349 N 
ATOM      7  H12 UNL     1      71.532  14.719  15.537  1.00  0.00     0.176 HD
ATOM      8  H11 UNL     1      73.044  13.825  15.408  1.00  0.00     0.176 HD
ATOM      9  H2  UNL     1      74.079  15.582  16.451  1.00  0.00     0.179 HD
ENDBRANCH   4   5
ENDBRANCH   1   4
BRANCH   3  10
HETATM   10  N3  UNL     1      69.574  18.501  14.641  1.00  0.00    -0.075 N 
ATOM     11  H33 UNL     1      69.342  17.605  14.212  1.00  0.00     0.274 HD
ATOM     12  H32 UNL     1      68.643  18.815  14.917  1.00  0.00     0.274 HD
ATOM     13  H31 UNL     1      69.961  19.134  13.941  1.00  0.00     0.274 HD
ENDBRANCH   3  10
TORSDOF 3
ENDMDL
MODEL 5
REMARK VINA RESULT: -3.798793720      2.577      3.511
REMARK  3 active torsions:
REMARK  status: ('A' for Active; 'I' for Inactive)
REMARK    1  A    between atoms: N2_4  and  C1_6 
REMARK    2  A    between atoms: C1_6  and  C2_7 
REMARK    3  A    between atoms: C4_9  and  N3_10 
ROOT
HETATM    1  C2  UNL     1      73.046  13.026  15.794  1.00  0.00     0.037 A 
HETATM    2  C3  UNL     1      74.564  13.246  15.717  1.00  0.00     0.041 A 
HETATM    3  C4  UNL     1      73.918  11.973  15.282  1.00  0.00     0.189 A 
ENDROOT
BRANCH   1   4
HETATM    4  C1  UNL     1      72.532  13.035  17.216  1.00  0.00     0.145 C 
BRANCH   4   5
HETATM    5  N2  UNL     1      71.187  12.548  17.305  1.00  0.00    -0.343 N 
HETATM    6  N1  UNL     1      70.839  11.416  16.923  1.00  0.00    -0.349 N 
ATOM      7  H12 UNL     1      71.562  10.815  16.529  1.00  0.00     0.176 HD
ATOM      8  H11 UNL     1      69.881  11.069  16.987  1.00  0.00     0.176 HD
ATOM      9  H2  UNL     1      70.476  13.163  17.702  1.00  0.00     0.179 HD
ENDBRANCH   4   5
ENDBRANCH   1   4
BRANCH   3  10
HETATM   10  N3  UNL     1      73.875  11.767  13.828  1.00  0.00    -0.075 N 
ATOM     11  H33 UNL     1      73.947  10.773  13.614  1.00  0.00     0.274 HD
ATOM     12  H32 UNL     1      72.937  11.961  13.476  1.00  0.00     0.274 HD
ATOM     13  H31 UNL     1      74.564  12.291  13.289  1.00  0.00     0.274 HD
ENDBRANCH   3  10
TORSDOF 3
ENDMDL
