MODEL 1
REMARK VINA RESULT: -3.891694010      0.000      0.000
REMARK  2 active torsions:
REMARK  status: ('A' for Active; 'I' for Inactive)
REMARK    1  A    between atoms: C2_2  and  C3_3 
REMARK    2  A    between atoms: C3_3  and  N1_4 
ROOT
HETATM    1  N1  UNL     1      73.780  12.390  15.187  1.00  0.00    -0.229 N 
HETATM    2  N2  UNL     1      74.105  13.220  14.212  1.00  0.00    -0.278 N 
ATOM      3  H2  UNL     1      74.159  14.236  14.131  1.00  0.00     0.189 HD
HETATM    4  C4  UNL     1      74.336  12.199  13.366  1.00  0.00     0.217 A 
HETATM    5  N3  UNL     1      74.000  11.386  14.383  1.00  0.00    -0.278 N 
ATOM      6  H3  UNL     1      73.939  10.374  14.487  1.00  0.00     0.189 HD
ENDROOT
BRANCH   1   7
HETATM    7  C3  UNL     1      73.354  12.549  16.586  1.00  0.00     0.196 C 
BRANCH   7   8
HETATM    8  C2  UNL     1      71.940  12.972  16.640  1.00  0.00    -0.014 C 
HETATM    9  C1  UNL     1      71.013  12.081  16.917  1.00  0.00     0.008 C 
ENDBRANCH   7   8
ENDBRANCH   1   7
TORSDOF 2
ENDMDL
MODEL 2
REMARK VINA RESULT: -3.838817767      3.222      3.933
REMARK  2 active torsions:
REMARK  status: ('A' for Active; 'I' for Inactive)
REMARK    1  A    between atoms: C2_2  and  C3_3 
REMARK    2  A    between atoms: C3_3  and  N1_4 
ROOT
HETATM    1  N1  UNL     1      73.111  15.111  16.887  1.00  0.00    -0.229 N 
HETATM    2  N2  UNL     1      72.971  14.103  17.729  1.00  0.00    -0.278 N 
ATOM      3  H2  UNL     1      72.384  13.935  18.546  1.00  0.00     0.189 HD
HETATM    4  C4  UNL     1      73.909  13.383  17.085  1.00  0.00     0.217 A 
HETATM    5  N3  UNL     1      74.023  14.430  16.248  1.00  0.00    -0.278 N 
ATOM      6  H3  UNL     1      74.600  14.619  15.430  1.00  0.00     0.189 HD
ENDROOT
BRANCH   1   7
HETATM    7  C3  UNL     1      72.491  16.437  16.743  1.00  0.00     0.196 C 
BRANCH   7   8
HETATM    8  C2  UNL     1      71.076  16.294  16.344  1.00  0.00    -0.014 C 
HETATM    9  C1  UNL     1      70.216  17.231  16.680  1.00  0.00     0.008 C 
ENDBRANCH   7   8
ENDBRANCH   1   7
TORSDOF 2
ENDMDL
MODEL 3
REMARK VINA RESULT: -3.832917519      1.940      4.392
REMARK  2 active torsions:
REMARK  status: ('A' for Active; 'I' for Inactive)
REMARK    1  A    between atoms: C2_2  and  C3_3 
REMARK    2  A    between atoms: C3_3  and  N1_4 
ROOT
HETATM    1  N1  UNL     1      74.716  12.671  13.447  1.00  0.00    -0.229 N 
HETATM    2  N2  UNL     1      74.737  13.180  14.667  1.00  0.00    -0.278 N 
ATOM      3  H2  UNL     1      75.236  13.955  15.105  1.00  0.00     0.189 HD
HETATM    4  C4  UNL     1      73.842  12.274  15.103  1.00  0.00     0.217 A 
HETATM    5  N3  UNL     1      73.848  11.785  13.850  1.00  0.00    -0.278 N 
ATOM      6  H3  UNL     1      73.361  11.015  13.391  1.00  0.00     0.189 HD
ENDROOT
BRANCH   1   7
HETATM    7  C3  UNL     1      75.393  12.986  12.180  1.00  0.00     0.196 C 
BRANCH   7   8
HETATM    8  C2  UNL     1      75.870  11.744  11.539  1.00  0.00    -0.014 C 
HETATM    9  C1  UNL     1      76.936  11.141  12.020  1.00  0.00     0.008 C 
ENDBRANCH   7   8
ENDBRANCH   1   7
TORSDOF 2
ENDMDL
MODEL 4
REMARK VINA RESULT: -3.773600253      4.627      5.281
REMARK  2 active torsions:
REMARK  status: ('A' for Active; 'I' for Inactive)
REMARK    1  A    between atoms: C2_2  and  C3_3 
REMARK    2  A    between atoms: C3_3  and  N1_4 
ROOT
HETATM    1  N1  UNL     1      71.782  16.465  15.982  1.00  0.00    -0.229 N 
HETATM    2  N2  UNL     1      72.799  15.720  16.378  1.00  0.00    -0.278 N 
ATOM      3  H2  UNL     1      73.777  15.910  16.597  1.00  0.00     0.189 HD
HETATM    4  C4  UNL     1      72.038  14.610  16.376  1.00  0.00     0.217 A 
HETATM    5  N3  UNL     1      71.027  15.401  15.975  1.00  0.00    -0.278 N 
ATOM      6  H3  UNL     1      70.046  15.233  15.750  1.00  0.00     0.189 HD
ENDROOT
BRANCH   1   7
HETATM    7  C3  UNL     1      71.596  17.893  15.683  1.00  0.00     0.196 C 
BRANCH   7   8
HETATM    8  C2  UNL     1      70.159  18.232  15.705  1.00  0.00    -0.014 C 
HETATM    9  C1  UNL     1      69.558  18.560  14.581  1.00  0.00     0.008 C 
ENDBRANCH   7   8
ENDBRANCH   1   7
TORSDOF 2
ENDMDL
MODEL 5
REMARK VINA RESULT: -3.746326285      1.214      3.865
REMARK  2 active torsions:
REMARK  status: ('A' for Active; 'I' for Inactive)
REMARK    1  A    between atoms: C2_2  and  C3_3 
REMARK    2  A    between atoms: C3_3  and  N1_4 
ROOT
HETATM    1  N1  UNL     1      73.621  12.496  14.703  1.00  0.00    -0.229 N 
HETATM    2  N2  UNL     1      72.646  12.161  15.530  1.00  0.00    -0.278 N 
ATOM      3  H2  UNL     1      72.082  11.322  15.660  1.00  0.00     0.189 HD
HETATM    4  C4  UNL     1      72.690  13.364  16.132  1.00  0.00     0.217 A 
HETATM    5  N3  UNL     1      73.680  13.668  15.274  1.00  0.00    -0.278 N 
ATOM      6  H3  UNL     1      74.256  14.497  15.126  1.00  0.00     0.189 HD
ENDROOT
BRANCH   1   7
HETATM    7  C3  UNL     1      74.331  11.820  13.607  1.00  0.00     0.196 C 
BRANCH   7   8
HETATM    8  C2  UNL     1      74.576  12.767  12.501  1.00  0.00    -0.014 C 
HETATM    9  C1  UNL     1      75.810  12.982  12.100  1.00  0.00     0.008 C 
ENDBRANCH   7   8
ENDBRANCH   1   7
TORSDOF 2
ENDMDL
