MODEL 1
REMARK VINA RESULT: -3.264319474      0.000      0.000
REMARK  3 active torsions:
REMARK  status: ('A' for Active; 'I' for Inactive)
REMARK    1  A    between atoms: O1_1  and  N1_3 
REMARK    2  A    between atoms: N1_3  and  C1_5 
REMARK    3  A    between atoms: C1_5  and  C2_6 
ROOT
HETATM    1  C2  UNL     1      72.802  13.171  16.568  1.00  0.00     0.230 A 
HETATM    2  C3  UNL     1      72.880  14.672  16.784  1.00  0.00     0.267 A 
HETATM    3  N2  UNL     1      72.976  13.719  17.870  1.00  0.00    -0.066 N 
ATOM      4  H21 UNL     1      73.673  13.566  18.599  1.00  0.00     0.277 HD
ATOM      5  H22 UNL     1      72.460  13.609  18.743  1.00  0.00     0.277 HD
ENDROOT
BRANCH   1   6
HETATM    6  C1  UNL     1      71.423  12.731  16.099  1.00  0.00     0.180 C 
BRANCH   6   7
HETATM    7  N1  UNL     1      70.940  11.597  16.805  1.00  0.00    -0.303 N 
ATOM      8  H1  UNL     1      70.710  10.741  16.301  1.00  0.00     0.187 HD
BRANCH   7   9
HETATM    9  O1  UNL     1      70.805  11.649  17.989  1.00  0.00    -0.294 OA
ATOM     10  H1  UNL     1      70.562  10.868  18.471  1.00  0.00     0.244 HD
ENDBRANCH   7   9
ENDBRANCH   6   7
ENDBRANCH   1   6
TORSDOF 3
ENDMDL
MODEL 2
REMARK VINA RESULT: -3.241335504      5.596      5.827
REMARK  3 active torsions:
REMARK  status: ('A' for Active; 'I' for Inactive)
REMARK    1  A    between atoms: O1_1  and  N1_3 
REMARK    2  A    between atoms: N1_3  and  C1_5 
REMARK    3  A    between atoms: C1_5  and  C2_6 
ROOT
HETATM    1  C2  UNL     1      75.093  11.042  14.073  1.00  0.00     0.230 A 
HETATM    2  C3  UNL     1      74.760  12.367  14.736  1.00  0.00     0.267 A 
HETATM    3  N2  UNL     1      73.865  11.711  13.807  1.00  0.00    -0.066 N 
ATOM      4  H21 UNL     1      72.889  11.420  13.872  1.00  0.00     0.277 HD
ATOM      5  H22 UNL     1      73.415  12.017  12.944  1.00  0.00     0.277 HD
ENDROOT
BRANCH   1   6
HETATM    6  C1  UNL     1      76.258  11.164  13.103  1.00  0.00     0.180 C 
BRANCH   6   7
HETATM    7  N1  UNL     1      75.925  10.737  11.789  1.00  0.00    -0.303 N 
ATOM      8  H1  UNL     1      76.239   9.827  11.453  1.00  0.00     0.187 HD
BRANCH   7   9
HETATM    9  O1  UNL     1      75.278  11.446  11.082  1.00  0.00    -0.294 OA
ATOM     10  H1  UNL     1      74.367  11.617  11.289  1.00  0.00     0.244 HD
ENDBRANCH   7   9
ENDBRANCH   6   7
ENDBRANCH   1   6
TORSDOF 3
ENDMDL
MODEL 3
REMARK VINA RESULT: -3.236869279      5.436      5.703
REMARK  3 active torsions:
REMARK  status: ('A' for Active; 'I' for Inactive)
REMARK    1  A    between atoms: O1_1  and  N1_3 
REMARK    2  A    between atoms: N1_3  and  C1_5 
REMARK    3  A    between atoms: C1_5  and  C2_6 
ROOT
HETATM    1  C2  UNL     1      75.213  12.040  13.901  1.00  0.00     0.230 A 
HETATM    2  C3  UNL     1      74.153  12.732  14.739  1.00  0.00     0.267 A 
HETATM    3  N2  UNL     1      73.849  11.638  13.841  1.00  0.00    -0.066 N 
ATOM      4  H21 UNL     1      73.384  10.740  13.974  1.00  0.00     0.277 HD
ATOM      5  H22 UNL     1      73.189  11.538  13.069  1.00  0.00     0.277 HD
ENDROOT
BRANCH   1   6
HETATM    6  C1  UNL     1      75.790  12.959  12.835  1.00  0.00     0.180 C 
BRANCH   6   7
HETATM    7  N1  UNL     1      76.013  12.293  11.600  1.00  0.00    -0.303 N 
ATOM      8  H1  UNL     1      76.953  12.244  11.209  1.00  0.00     0.187 HD
BRANCH   7   9
HETATM    9  O1  UNL     1      75.097  11.793  11.022  1.00  0.00    -0.294 OA
ATOM     10  H1  UNL     1      75.259  11.259  10.254  1.00  0.00     0.244 HD
ENDBRANCH   7   9
ENDBRANCH   6   7
ENDBRANCH   1   6
TORSDOF 3
ENDMDL
MODEL 4
REMARK VINA RESULT: -3.208355041      4.292      4.733
REMARK  3 active torsions:
REMARK  status: ('A' for Active; 'I' for Inactive)
REMARK    1  A    between atoms: O1_1  and  N1_3 
REMARK    2  A    between atoms: N1_3  and  C1_5 
REMARK    3  A    between atoms: C1_5  and  C2_6 
ROOT
HETATM    1  C2  UNL     1      74.177  12.549  14.678  1.00  0.00     0.230 A 
HETATM    2  C3  UNL     1      73.686  12.607  16.114  1.00  0.00     0.267 A 
HETATM    3  N2  UNL     1      73.414  13.653  15.151  1.00  0.00    -0.066 N 
ATOM      4  H21 UNL     1      72.551  14.089  14.825  1.00  0.00     0.277 HD
ATOM      5  H22 UNL     1      73.581  14.660  15.154  1.00  0.00     0.277 HD
ENDROOT
BRANCH   1   6
HETATM    6  C1  UNL     1      75.693  12.645  14.587  1.00  0.00     0.180 C 
BRANCH   6   7
HETATM    7  N1  UNL     1      76.127  13.398  13.463  1.00  0.00    -0.303 N 
ATOM      8  H1  UNL     1      77.101  13.688  13.389  1.00  0.00     0.187 HD
BRANCH   7   9
HETATM    9  O1  UNL     1      75.349  13.688  12.607  1.00  0.00    -0.294 OA
ATOM     10  H1  UNL     1      74.718  13.045  12.305  1.00  0.00     0.244 HD
ENDBRANCH   7   9
ENDBRANCH   6   7
ENDBRANCH   1   6
TORSDOF 3
ENDMDL
MODEL 5
REMARK VINA RESULT: -3.188577635      5.503      5.745
REMARK  3 active torsions:
REMARK  status: ('A' for Active; 'I' for Inactive)
REMARK    1  A    between atoms: O1_1  and  N1_3 
REMARK    2  A    between atoms: N1_3  and  C1_5 
REMARK    3  A    between atoms: C1_5  and  C2_6 
ROOT
HETATM    1  C2  UNL     1      75.572  11.885  14.283  1.00  0.00     0.230 A 
HETATM    2  C3  UNL     1      76.481  10.706  13.982  1.00  0.00     0.267 A 
HETATM    3  N2  UNL     1      76.939  12.079  13.938  1.00  0.00    -0.066 N 
ATOM      4  H21 UNL     1      77.707  12.569  14.398  1.00  0.00     0.277 HD
ATOM      5  H22 UNL     1      77.401  12.633  13.216  1.00  0.00     0.277 HD
ENDROOT
BRANCH   1   6
HETATM    6  C1  UNL     1      74.485  12.052  13.232  1.00  0.00     0.180 C 
BRANCH   6   7
HETATM    7  N1  UNL     1      74.506  13.334  12.621  1.00  0.00    -0.303 N 
ATOM      8  H1  UNL     1      73.709  13.962  12.723  1.00  0.00     0.187 HD
BRANCH   7   9
HETATM    9  O1  UNL     1      75.458  13.673  11.988  1.00  0.00    -0.294 OA
ATOM     10  H1  UNL     1      75.522  13.442  11.069  1.00  0.00     0.244 HD
ENDBRANCH   7   9
ENDBRANCH   6   7
ENDBRANCH   1   6
TORSDOF 3
ENDMDL
