MODEL 1
REMARK VINA RESULT: -5.414308416      0.000      0.000
REMARK  3 active torsions:
REMARK  status: ('A' for Active; 'I' for Inactive)
REMARK    1  A    between atoms: N1_1  and  S1_4 
REMARK    2  A    between atoms: C6_10  and  O1_11 
REMARK    3  A    between atoms: C7_13  and  N2_14 
ROOT
HETATM    1  S1  UNL     1      15.197  14.675  18.331  1.00  0.00    -0.121 SA
HETATM    2  C1  UNL     1      15.140  16.244  18.940  1.00  0.00     0.108 A 
HETATM    3  C2  UNL     1      14.356  16.094  17.669  1.00  0.00     0.056 A 
HETATM    4  C3  UNL     1      14.910  16.601  16.375  1.00  0.00     0.024 C 
HETATM    5  C4  UNL     1      14.098  17.680  15.738  1.00  0.00     0.004 C 
HETATM    6  C5  UNL     1      12.635  17.410  15.679  1.00  0.00     0.034 C 
HETATM    7  C6  UNL     1      12.226  16.165  16.454  1.00  0.00     0.150 C 
HETATM    8  C7  UNL     1      12.880  16.257  17.808  1.00  0.00     0.232 C 
ENDROOT
BRANCH   1   9
HETATM    9  N1  UNL     1      14.423  13.442  18.847  1.00  0.00    -0.382 NA
ATOM     10  H12 UNL     1      14.280  12.617  18.264  1.00  0.00     0.163 HD
ATOM     11  H11 UNL     1      13.550  13.063  18.482  1.00  0.00     0.163 HD
ENDBRANCH   1   9
BRANCH   8  12
HETATM   12  N2  UNL     1      12.328  15.297  18.756  1.00  0.00    -0.071 N 
ATOM     13  H23 UNL     1      12.804  15.345  19.656  1.00  0.00     0.274 HD
ATOM     14  H22 UNL     1      11.392  15.566  19.059  1.00  0.00     0.274 HD
ATOM     15  H21 UNL     1      12.342  14.352  18.375  1.00  0.00     0.274 HD
ENDBRANCH   8  12
BRANCH   7  16
HETATM   16  O1  UNL     1      10.837  16.192  16.570  1.00  0.00    -0.393 OA
ATOM     17  H1  UNL     1      10.500  15.466  16.060  1.00  0.00     0.210 HD
ENDBRANCH   7  16
TORSDOF 3
ENDMDL
MODEL 2
REMARK VINA RESULT: -5.038383615      2.414      3.475
REMARK  3 active torsions:
REMARK  status: ('A' for Active; 'I' for Inactive)
REMARK    1  A    between atoms: N1_1  and  S1_4 
REMARK    2  A    between atoms: C6_10  and  O1_11 
REMARK    3  A    between atoms: C7_13  and  N2_14 
ROOT
HETATM    1  S1  UNL     1      12.228  16.590  16.124  1.00  0.00    -0.121 SA
HETATM    2  C1  UNL     1      13.189  15.368  15.478  1.00  0.00     0.108 A 
HETATM    3  C2  UNL     1      13.894  16.143  16.552  1.00  0.00     0.056 A 
HETATM    4  C3  UNL     1      14.927  17.164  16.193  1.00  0.00     0.024 C 
HETATM    5  C4  UNL     1      16.296  16.864  16.707  1.00  0.00     0.004 C 
HETATM    6  C5  UNL     1      16.351  16.458  18.138  1.00  0.00     0.034 C 
HETATM    7  C6  UNL     1      14.974  16.245  18.752  1.00  0.00     0.150 C 
HETATM    8  C7  UNL     1      14.198  15.377  17.796  1.00  0.00     0.232 C 
ENDROOT
BRANCH   1   9
HETATM    9  N1  UNL     1      11.064  16.434  17.127  1.00  0.00    -0.382 NA
ATOM     10  H12 UNL     1      10.706  15.516  17.395  1.00  0.00     0.163 HD
ATOM     11  H11 UNL     1      10.144  16.031  16.950  1.00  0.00     0.163 HD
ENDBRANCH   1   9
BRANCH   8  12
HETATM   12  N2  UNL     1      12.984  14.839  18.396  1.00  0.00    -0.071 N 
ATOM     13  H23 UNL     1      12.730  15.344  19.244  1.00  0.00     0.274 HD
ATOM     14  H22 UNL     1      12.161  15.055  17.833  1.00  0.00     0.274 HD
ATOM     15  H21 UNL     1      13.069  13.837  18.567  1.00  0.00     0.274 HD
ENDBRANCH   8  12
BRANCH   7  16
HETATM   16  O1  UNL     1      15.165  15.593  19.969  1.00  0.00    -0.393 OA
ATOM     17  H1  UNL     1      15.700  14.829  19.796  1.00  0.00     0.210 HD
ENDBRANCH   7  16
TORSDOF 3
ENDMDL
MODEL 3
REMARK VINA RESULT: -4.720029313      1.931      2.163
REMARK  3 active torsions:
REMARK  status: ('A' for Active; 'I' for Inactive)
REMARK    1  A    between atoms: N1_1  and  S1_4 
REMARK    2  A    between atoms: C6_10  and  O1_11 
REMARK    3  A    between atoms: C7_13  and  N2_14 
ROOT
HETATM    1  S1  UNL     1      15.330  15.002  18.695  1.00  0.00    -0.121 SA
HETATM    2  C1  UNL     1      14.383  16.393  18.640  1.00  0.00     0.108 A 
HETATM    3  C2  UNL     1      14.979  16.053  17.306  1.00  0.00     0.056 A 
HETATM    4  C3  UNL     1      16.156  16.818  16.788  1.00  0.00     0.024 C 
HETATM    5  C4  UNL     1      15.898  17.563  15.520  1.00  0.00     0.004 C 
HETATM    6  C5  UNL     1      15.204  16.777  14.463  1.00  0.00     0.034 C 
HETATM    7  C6  UNL     1      14.721  15.417  14.951  1.00  0.00     0.150 C 
HETATM    8  C7  UNL     1      14.002  15.649  16.254  1.00  0.00     0.232 C 
ENDROOT
BRANCH   1   9
HETATM    9  N1  UNL     1      14.842  13.538  18.747  1.00  0.00    -0.382 NA
ATOM     10  H12 UNL     1      14.802  12.956  17.910  1.00  0.00     0.163 HD
ATOM     11  H11 UNL     1      14.025  13.142  18.285  1.00  0.00     0.163 HD
ENDBRANCH   1   9
BRANCH   8  12
HETATM   12  N2  UNL     1      13.223  14.491  16.671  1.00  0.00    -0.071 N 
ATOM     13  H23 UNL     1      12.262  14.545  16.336  1.00  0.00     0.274 HD
ATOM     14  H22 UNL     1      13.514  13.647  16.178  1.00  0.00     0.274 HD
ATOM     15  H21 UNL     1      13.261  14.365  17.683  1.00  0.00     0.274 HD
ENDBRANCH   8  12
BRANCH   7  16
HETATM   16  O1  UNL     1      13.847  14.922  13.983  1.00  0.00    -0.393 OA
ATOM     17  H1  UNL     1      13.200  14.395  14.436  1.00  0.00     0.210 HD
ENDBRANCH   7  16
TORSDOF 3
ENDMDL
MODEL 4
REMARK VINA RESULT: -4.612161876      2.651      3.612
REMARK  3 active torsions:
REMARK  status: ('A' for Active; 'I' for Inactive)
REMARK    1  A    between atoms: N1_1  and  S1_4 
REMARK    2  A    between atoms: C6_10  and  O1_11 
REMARK    3  A    between atoms: C7_13  and  N2_14 
ROOT
HETATM    1  S1  UNL     1      12.996  17.407  14.644  1.00  0.00    -0.121 SA
HETATM    2  C1  UNL     1      13.961  16.072  14.292  1.00  0.00     0.108 A 
HETATM    3  C2  UNL     1      13.800  16.289  15.768  1.00  0.00     0.056 A 
HETATM    4  C3  UNL     1      14.910  16.897  16.567  1.00  0.00     0.024 C 
HETATM    5  C4  UNL     1      15.465  16.006  17.628  1.00  0.00     0.004 C 
HETATM    6  C5  UNL     1      14.444  15.327  18.473  1.00  0.00     0.034 C 
HETATM    7  C6  UNL     1      13.022  15.527  17.966  1.00  0.00     0.150 C 
HETATM    8  C7  UNL     1      13.037  15.230  16.489  1.00  0.00     0.232 C 
ENDROOT
BRANCH   1   9
HETATM    9  N1  UNL     1      11.457  17.500  14.556  1.00  0.00    -0.382 NA
ATOM     10  H12 UNL     1      10.863  17.341  15.370  1.00  0.00     0.163 HD
ATOM     11  H11 UNL     1      10.783  16.753  14.718  1.00  0.00     0.163 HD
ENDBRANCH   1   9
BRANCH   8  12
HETATM   12  N2  UNL     1      11.696  15.078  15.940  1.00  0.00    -0.071 N 
ATOM     13  H23 UNL     1      11.390  14.106  15.964  1.00  0.00     0.274 HD
ATOM     14  H22 UNL     1      10.991  15.479  16.558  1.00  0.00     0.274 HD
ATOM     15  H21 UNL     1      11.635  15.467  15.000  1.00  0.00     0.274 HD
ENDBRANCH   8  12
BRANCH   7  16
HETATM   16  O1  UNL     1      12.213  14.619  18.646  1.00  0.00    -0.393 OA
ATOM     17  H1  UNL     1      12.070  14.970  19.517  1.00  0.00     0.210 HD
ENDBRANCH   7  16
TORSDOF 3
ENDMDL
MODEL 5
REMARK VINA RESULT: -4.527187002      1.368      1.567
REMARK  3 active torsions:
REMARK  status: ('A' for Active; 'I' for Inactive)
REMARK    1  A    between atoms: N1_1  and  S1_4 
REMARK    2  A    between atoms: C6_10  and  O1_11 
REMARK    3  A    between atoms: C7_13  and  N2_14 
ROOT
HETATM    1  S1  UNL     1      13.808  14.823  18.126  1.00  0.00    -0.121 SA
HETATM    2  C1  UNL     1      14.514  16.334  18.359  1.00  0.00     0.108 A 
HETATM    3  C2  UNL     1      13.974  16.163  16.971  1.00  0.00     0.056 A 
HETATM    4  C3  UNL     1      14.900  15.892  15.827  1.00  0.00     0.024 C 
HETATM    5  C4  UNL     1      14.904  16.947  14.772  1.00  0.00     0.004 C 
HETATM    6  C5  UNL     1      13.553  17.397  14.333  1.00  0.00     0.034 C 
HETATM    7  C6  UNL     1      12.428  16.825  15.185  1.00  0.00     0.150 C 
HETATM    8  C7  UNL     1      12.816  17.038  16.624  1.00  0.00     0.232 C 
ENDROOT
BRANCH   1   9
HETATM    9  N1  UNL     1      12.425  14.349  18.624  1.00  0.00    -0.382 NA
ATOM     10  H12 UNL     1      11.990  14.748  19.455  1.00  0.00     0.163 HD
ATOM     11  H11 UNL     1      12.210  13.896  19.511  1.00  0.00     0.163 HD
ENDBRANCH   1   9
BRANCH   8  12
HETATM   12  N2  UNL     1      11.700  16.825  17.537  1.00  0.00    -0.071 N 
ATOM     13  H23 UNL     1      11.847  17.304  18.425  1.00  0.00     0.274 HD
ATOM     14  H22 UNL     1      10.864  17.320  17.228  1.00  0.00     0.274 HD
ATOM     15  H21 UNL     1      11.519  15.831  17.673  1.00  0.00     0.274 HD
ENDBRANCH   8  12
BRANCH   7  16
HETATM   16  O1  UNL     1      11.273  17.541  14.871  1.00  0.00    -0.393 OA
ATOM     17  H1  UNL     1      10.639  17.361  15.555  1.00  0.00     0.210 HD
ENDBRANCH   7  16
TORSDOF 3
ENDMDL
