MODEL 1
REMARK VINA RESULT: -4.774689900      0.000      0.000
REMARK  1 active torsions:
REMARK  status: ('A' for Active; 'I' for Inactive)
REMARK    1  A    between atoms: O1_1  and  C1_3 
ROOT
HETATM    1  C1  UNL     1      12.532  16.043  17.683  1.00  0.00     0.130 C 
HETATM    2  C2  UNL     1      12.466  14.696  16.953  1.00  0.00     0.108 C 
HETATM    3  S1  UNL     1      12.561  15.282  15.213  1.00  0.00    -0.138 SA
HETATM    4  C3  UNL     1      13.195  16.974  15.561  1.00  0.00     0.097 C 
HETATM    5  C4  UNL     1      14.321  17.338  14.663  1.00  0.00     0.041 C 
HETATM    6  C5  UNL     1      13.958  18.170  13.487  1.00  0.00     0.020 C 
HETATM    7  C6  UNL     1      12.689  18.941  13.621  1.00  0.00     0.130 C 
HETATM    8  N1  UNL     1      11.663  18.144  14.280  1.00  0.00    -0.147 NA
HETATM    9  N2  UNL     1      12.122  17.916  15.586  1.00  0.00    -0.127 NA
HETATM   10  C7  UNL     1      13.680  16.740  16.997  1.00  0.00     0.072 C 
ENDROOT
BRANCH   1  11
HETATM   11  O1  UNL     1      11.348  16.729  17.627  1.00  0.00    -0.395 OA
ATOM     12  H1  UNL     1      11.093  17.084  18.470  1.00  0.00     0.210 HD
ENDBRANCH   1  11
TORSDOF 1
ENDMDL
MODEL 2
REMARK VINA RESULT: -4.741748347      3.233      3.778
REMARK  1 active torsions:
REMARK  status: ('A' for Active; 'I' for Inactive)
REMARK    1  A    between atoms: O1_1  and  C1_3 
ROOT
HETATM    1  C1  UNL     1      15.661  15.523  18.608  1.00  0.00     0.130 C 
HETATM    2  C2  UNL     1      16.335  16.438  17.580  1.00  0.00     0.108 C 
HETATM    3  S1  UNL     1      14.943  16.658  16.401  1.00  0.00    -0.138 SA
HETATM    4  C3  UNL     1      13.591  16.092  17.513  1.00  0.00     0.097 C 
HETATM    5  C4  UNL     1      12.420  17.004  17.469  1.00  0.00     0.041 C 
HETATM    6  C5  UNL     1      11.305  16.575  16.585  1.00  0.00     0.020 C 
HETATM    7  C6  UNL     1      11.262  15.116  16.282  1.00  0.00     0.130 C 
HETATM    8  N1  UNL     1      12.602  14.592  16.052  1.00  0.00    -0.147 NA
HETATM    9  N2  UNL     1      13.286  14.718  17.271  1.00  0.00    -0.127 NA
HETATM   10  C7  UNL     1      14.337  16.205  18.847  1.00  0.00     0.072 C 
ENDROOT
BRANCH   1  11
HETATM   11  O1  UNL     1      15.551  14.230  18.168  1.00  0.00    -0.395 OA
ATOM     12  H1  UNL     1      15.323  14.178  17.247  1.00  0.00     0.210 HD
ENDBRANCH   1  11
TORSDOF 1
ENDMDL
MODEL 3
REMARK VINA RESULT: -4.527370066      2.366      2.914
REMARK  1 active torsions:
REMARK  status: ('A' for Active; 'I' for Inactive)
REMARK    1  A    between atoms: O1_1  and  C1_3 
ROOT
HETATM    1  C1  UNL     1      12.248  14.699  16.037  1.00  0.00     0.130 C 
HETATM    2  C2  UNL     1      11.338  15.820  16.554  1.00  0.00     0.108 C 
HETATM    3  S1  UNL     1      12.548  17.202  16.605  1.00  0.00    -0.138 SA
HETATM    4  C3  UNL     1      13.829  16.445  15.524  1.00  0.00     0.097 C 
HETATM    5  C4  UNL     1      14.333  17.403  14.507  1.00  0.00     0.041 C 
HETATM    6  C5  UNL     1      15.614  18.078  14.842  1.00  0.00     0.020 C 
HETATM    7  C6  UNL     1      16.463  17.368  15.841  1.00  0.00     0.130 C 
HETATM    8  N1  UNL     1      15.649  16.804  16.909  1.00  0.00    -0.147 NA
HETATM    9  N2  UNL     1      14.845  15.821  16.311  1.00  0.00    -0.127 NA
HETATM   10  C7  UNL     1      12.963  15.354  14.882  1.00  0.00     0.072 C 
ENDROOT
BRANCH   1  11
HETATM   11  O1  UNL     1      13.084  14.213  17.008  1.00  0.00    -0.395 OA
ATOM     12  H1  UNL     1      12.615  13.941  17.788  1.00  0.00     0.210 HD
ENDBRANCH   1  11
TORSDOF 1
ENDMDL
MODEL 4
REMARK VINA RESULT: -4.489841451      2.950      4.028
REMARK  1 active torsions:
REMARK  status: ('A' for Active; 'I' for Inactive)
REMARK    1  A    between atoms: O1_1  and  C1_3 
ROOT
HETATM    1  C1  UNL     1      12.609  15.168  15.060  1.00  0.00     0.130 C 
HETATM    2  C2  UNL     1      11.843  16.447  15.417  1.00  0.00     0.108 C 
HETATM    3  S1  UNL     1      12.808  16.985  16.886  1.00  0.00    -0.138 SA
HETATM    4  C3  UNL     1      14.298  15.948  16.592  1.00  0.00     0.097 C 
HETATM    5  C4  UNL     1      15.554  16.721  16.766  1.00  0.00     0.041 C 
HETATM    6  C5  UNL     1      16.222  16.569  18.084  1.00  0.00     0.020 C 
HETATM    7  C6  UNL     1      15.874  15.328  18.833  1.00  0.00     0.130 C 
HETATM    8  N1  UNL     1      14.454  15.029  18.711  1.00  0.00    -0.147 NA
HETATM    9  N2  UNL     1      14.229  14.743  17.356  1.00  0.00    -0.127 NA
HETATM   10  C7  UNL     1      14.049  15.612  15.117  1.00  0.00     0.072 C 
ENDROOT
BRANCH   1  11
HETATM   11  O1  UNL     1      12.312  14.127  15.899  1.00  0.00    -0.395 OA
ATOM     12  H1  UNL     1      13.033  13.516  15.990  1.00  0.00     0.210 HD
ENDBRANCH   1  11
TORSDOF 1
ENDMDL
MODEL 5
REMARK VINA RESULT: -4.482618487      2.077      3.609
REMARK  1 active torsions:
REMARK  status: ('A' for Active; 'I' for Inactive)
REMARK    1  A    between atoms: O1_1  and  C1_3 
ROOT
HETATM    1  C1  UNL     1      14.604  18.575  14.263  1.00  0.00     0.130 C 
HETATM    2  C2  UNL     1      15.765  18.084  15.135  1.00  0.00     0.108 C 
HETATM    3  S1  UNL     1      14.875  16.856  16.173  1.00  0.00    -0.138 SA
HETATM    4  C3  UNL     1      13.380  16.682  15.115  1.00  0.00     0.097 C 
HETATM    5  C4  UNL     1      13.001  15.259  14.921  1.00  0.00     0.041 C 
HETATM    6  C5  UNL     1      11.920  14.757  15.807  1.00  0.00     0.020 C 
HETATM    7  C6  UNL     1      11.028  15.806  16.379  1.00  0.00     0.130 C 
HETATM    8  N1  UNL     1      11.795  16.979  16.776  1.00  0.00    -0.147 NA
HETATM    9  N2  UNL     1      12.327  17.519  15.595  1.00  0.00    -0.127 NA
HETATM   10  C7  UNL     1      13.945  17.290  13.827  1.00  0.00     0.072 C 
ENDROOT
BRANCH   1  11
HETATM   11  O1  UNL     1      13.770  19.431  14.933  1.00  0.00    -0.395 OA
ATOM     12  H1  UNL     1      13.788  20.311  14.576  1.00  0.00     0.210 HD
ENDBRANCH   1  11
TORSDOF 1
ENDMDL
