MODEL 1
REMARK VINA RESULT: -5.381856437      0.000      0.000
REMARK  3 active torsions:
REMARK  status: ('A' for Active; 'I' for Inactive)
REMARK    1  A    between atoms: C3_4  and  C4_5 
REMARK    2  A    between atoms: C4_5  and  O2_6 
REMARK    3  A    between atoms: C6_9  and  O3_10 
ROOT
HETATM    1  C1  UNL     1      14.078  16.360  14.045  1.00  0.00     0.040 C 
HETATM    2  C2  UNL     1      14.122  16.562  15.496  1.00  0.00     0.125 C 
HETATM    3  O1  UNL     1      14.555  15.469  16.235  1.00  0.00    -0.372 OA
HETATM    4  C3  UNL     1      13.743  15.321  17.332  1.00  0.00     0.088 C 
HETATM    5  C5  UNL     1      12.436  14.725  16.848  1.00  0.00     0.073 C 
HETATM    6  C6  UNL     1      11.849  15.864  16.005  1.00  0.00     0.128 C 
HETATM    7  C7  UNL     1      12.836  16.981  16.144  1.00  0.00     0.050 C 
HETATM    8  C8  UNL     1      13.317  16.751  17.588  1.00  0.00     0.027 C 
HETATM    9  C9  UNL     1      12.272  16.923  18.595  1.00  0.00     0.014 C 
ENDROOT
BRANCH   4  10
HETATM   10  C4  UNL     1      14.328  14.635  18.492  1.00  0.00     0.202 C 
BRANCH  10  11
HETATM   11  O2  UNL     1      15.530  14.043  18.170  1.00  0.00    -0.398 OA
ATOM     12  H2  UNL     1      16.262  14.538  18.519  1.00  0.00     0.209 HD
ENDBRANCH  10  11
ENDBRANCH   4  10
BRANCH   6  13
HETATM   13  O3  UNL     1      10.573  16.199  16.424  1.00  0.00    -0.395 OA
ATOM     14  H3  UNL     1      10.582  16.963  16.990  1.00  0.00     0.210 HD
ENDBRANCH   6  13
TORSDOF 3
ENDMDL
MODEL 2
REMARK VINA RESULT: -5.154253633      1.230      3.054
REMARK  3 active torsions:
REMARK  status: ('A' for Active; 'I' for Inactive)
REMARK    1  A    between atoms: C3_4  and  C4_5 
REMARK    2  A    between atoms: C4_5  and  O2_6 
REMARK    3  A    between atoms: C6_9  and  O3_10 
ROOT
HETATM    1  C1  UNL     1      15.427  16.139  18.897  1.00  0.00     0.040 C 
HETATM    2  C2  UNL     1      14.743  15.471  17.786  1.00  0.00     0.125 C 
HETATM    3  O1  UNL     1      15.030  15.974  16.524  1.00  0.00    -0.372 OA
HETATM    4  C3  UNL     1      13.864  16.074  15.807  1.00  0.00     0.088 C 
HETATM    5  C5  UNL     1      13.114  17.282  16.333  1.00  0.00     0.073 C 
HETATM    6  C6  UNL     1      12.732  16.838  17.751  1.00  0.00     0.128 C 
HETATM    7  C7  UNL     1      13.246  15.435  17.856  1.00  0.00     0.050 C 
HETATM    8  C8  UNL     1      13.042  14.954  16.409  1.00  0.00     0.027 C 
HETATM    9  C9  UNL     1      11.642  14.910  15.991  1.00  0.00     0.014 C 
ENDROOT
BRANCH   4  10
HETATM   10  C4  UNL     1      13.988  16.030  14.343  1.00  0.00     0.202 C 
BRANCH  10  11
HETATM   11  O2  UNL     1      14.401  14.788  13.913  1.00  0.00    -0.398 OA
ATOM     12  H2  UNL     1      13.796  14.424  13.278  1.00  0.00     0.209 HD
ENDBRANCH  10  11
ENDBRANCH   4  10
BRANCH   6  13
HETATM   13  O3  UNL     1      11.370  16.946  17.967  1.00  0.00    -0.395 OA
ATOM     14  H3  UNL     1      11.181  17.344  18.809  1.00  0.00     0.210 HD
ENDBRANCH   6  13
TORSDOF 3
ENDMDL
MODEL 3
REMARK VINA RESULT: -5.128730945      1.489      3.585
REMARK  3 active torsions:
REMARK  status: ('A' for Active; 'I' for Inactive)
REMARK    1  A    between atoms: C3_4  and  C4_5 
REMARK    2  A    between atoms: C4_5  and  O2_6 
REMARK    3  A    between atoms: C6_9  and  O3_10 
ROOT
HETATM    1  C1  UNL     1      14.118  14.069  18.567  1.00  0.00     0.040 C 
HETATM    2  C2  UNL     1      13.215  15.135  18.125  1.00  0.00     0.125 C 
HETATM    3  O1  UNL     1      12.241  14.748  17.213  1.00  0.00    -0.372 OA
HETATM    4  C3  UNL     1      12.153  15.696  16.225  1.00  0.00     0.088 C 
HETATM    5  C5  UNL     1      13.354  15.513  15.318  1.00  0.00     0.073 C 
HETATM    6  C6  UNL     1      14.518  15.922  16.229  1.00  0.00     0.128 C 
HETATM    7  C7  UNL     1      13.863  16.339  17.510  1.00  0.00     0.050 C 
HETATM    8  C8  UNL     1      12.558  16.950  16.970  1.00  0.00     0.027 C 
HETATM    9  C9  UNL     1      12.758  18.136  16.140  1.00  0.00     0.014 C 
ENDROOT
BRANCH   4  10
HETATM   10  C4  UNL     1      10.869  15.787  15.516  1.00  0.00     0.202 C 
BRANCH  10  11
HETATM   11  O2  UNL     1       9.827  15.997  16.393  1.00  0.00    -0.398 OA
ATOM     12  H2  UNL     1       9.475  16.875  16.306  1.00  0.00     0.209 HD
ENDBRANCH  10  11
ENDBRANCH   4  10
BRANCH   6  13
HETATM   13  O3  UNL     1      15.288  16.917  15.653  1.00  0.00    -0.395 OA
ATOM     14  H3  UNL     1      15.459  17.623  16.266  1.00  0.00     0.210 HD
ENDBRANCH   6  13
TORSDOF 3
ENDMDL
MODEL 4
REMARK VINA RESULT: -5.121432077      1.828      3.438
REMARK  3 active torsions:
REMARK  status: ('A' for Active; 'I' for Inactive)
REMARK    1  A    between atoms: C3_4  and  C4_5 
REMARK    2  A    between atoms: C4_5  and  O2_6 
REMARK    3  A    between atoms: C6_9  and  O3_10 
ROOT
HETATM    1  C1  UNL     1      16.015  16.427  18.133  1.00  0.00     0.040 C 
HETATM    2  C2  UNL     1      15.149  16.145  16.986  1.00  0.00     0.125 C 
HETATM    3  O1  UNL     1      14.559  17.257  16.399  1.00  0.00    -0.372 OA
HETATM    4  C3  UNL     1      13.242  16.976  16.132  1.00  0.00     0.088 C 
HETATM    5  C5  UNL     1      12.494  17.029  17.449  1.00  0.00     0.073 C 
HETATM    6  C6  UNL     1      13.067  15.821  18.201  1.00  0.00     0.128 C 
HETATM    7  C7  UNL     1      14.017  15.191  17.229  1.00  0.00     0.050 C 
HETATM    8  C8  UNL     1      13.293  15.481  15.902  1.00  0.00     0.027 C 
HETATM    9  C9  UNL     1      11.994  14.821  15.780  1.00  0.00     0.014 C 
ENDROOT
BRANCH   4  10
HETATM   10  C4  UNL     1      12.615  17.745  15.048  1.00  0.00     0.202 C 
BRANCH  10  11
HETATM   11  O2  UNL     1      12.310  19.026  15.456  1.00  0.00    -0.398 OA
ATOM     12  H2  UNL     1      12.967  19.363  16.053  1.00  0.00     0.209 HD
ENDBRANCH  10  11
ENDBRANCH   4  10
BRANCH   6  13
HETATM   13  O3  UNL     1      12.066  14.967  18.626  1.00  0.00    -0.395 OA
ATOM     14  H3  UNL     1      11.825  14.346  17.947  1.00  0.00     0.210 HD
ENDBRANCH   6  13
TORSDOF 3
ENDMDL
MODEL 5
REMARK VINA RESULT: -4.997787212      1.458      3.159
REMARK  3 active torsions:
REMARK  status: ('A' for Active; 'I' for Inactive)
REMARK    1  A    between atoms: C3_4  and  C4_5 
REMARK    2  A    between atoms: C4_5  and  O2_6 
REMARK    3  A    between atoms: C6_9  and  O3_10 
ROOT
HETATM    1  C1  UNL     1      10.298  16.167  14.641  1.00  0.00     0.040 C 
HETATM    2  C2  UNL     1      10.863  15.785  15.938  1.00  0.00     0.125 C 
HETATM    3  O1  UNL     1      11.204  16.842  16.771  1.00  0.00    -0.372 OA
HETATM    4  C3  UNL     1      12.427  16.585  17.341  1.00  0.00     0.088 C 
HETATM    5  C5  UNL     1      13.479  16.827  16.277  1.00  0.00     0.073 C 
HETATM    6  C6  UNL     1      13.202  15.695  15.279  1.00  0.00     0.128 C 
HETATM    7  C7  UNL     1      12.083  14.915  15.898  1.00  0.00     0.050 C 
HETATM    8  C8  UNL     1      12.425  15.073  17.390  1.00  0.00     0.027 C 
HETATM    9  C9  UNL     1      13.694  14.457  17.776  1.00  0.00     0.014 C 
ENDROOT
BRANCH   4  10
HETATM   10  C4  UNL     1      12.703  17.245  18.625  1.00  0.00     0.202 C 
BRANCH  10  11
HETATM   11  O2  UNL     1      11.773  16.893  19.578  1.00  0.00    -0.398 OA
ATOM     12  H2  UNL     1      11.436  17.658  20.029  1.00  0.00     0.209 HD
ENDBRANCH  10  11
ENDBRANCH   4  10
BRANCH   6  13
HETATM   13  O3  UNL     1      14.336  14.940  15.041  1.00  0.00    -0.395 OA
ATOM     14  H3  UNL     1      14.127  14.130  14.588  1.00  0.00     0.210 HD
ENDBRANCH   6  13
TORSDOF 3
ENDMDL
