MODEL 1
REMARK VINA RESULT: -4.980424286      0.000      0.000
REMARK  1 active torsions:
REMARK  status: ('A' for Active; 'I' for Inactive)
REMARK    1  A    between atoms: C7_13  and  O1_14 
ROOT
HETATM    1  C1  UNL     1      14.658  15.413  14.040  1.00  0.00     0.014 C 
HETATM    2  C2  UNL     1      14.155  16.548  14.855  1.00  0.00     0.032 C 
HETATM    3  C3  UNL     1      15.269  17.431  15.328  1.00  0.00     0.084 C 
HETATM    4  S1  UNL     1      15.446  16.496  16.880  1.00  0.00    -0.135 SA
HETATM    5  C4  UNL     1      13.747  16.235  16.276  1.00  0.00     0.107 C 
HETATM    6  N1  UNL     1      13.306  14.900  16.451  1.00  0.00    -0.380 N 
ATOM      7  H1  UNL     1      13.541  14.161  15.789  1.00  0.00     0.156 HD
HETATM    8  C5  UNL     1      12.513  14.652  17.612  1.00  0.00     0.351 C 
HETATM    9  N2  UNL     1      12.561  15.696  18.598  1.00  0.00    -0.057 N 
ATOM     10  H21 UNL     1      13.488  15.769  19.018  1.00  0.00     0.279 HD
ATOM     11  H22 UNL     1      12.028  15.446  19.431  1.00  0.00     0.279 HD
HETATM   12  C6  UNL     1      12.131  16.955  18.061  1.00  0.00     0.269 C 
HETATM   13  C7  UNL     1      12.818  17.290  16.782  1.00  0.00     0.182 C 
ENDROOT
BRANCH  13  14
HETATM   14  O1  UNL     1      11.921  17.690  15.770  1.00  0.00    -0.391 OA
ATOM     15  H1  UNL     1      11.306  18.333  16.103  1.00  0.00     0.210 HD
ENDBRANCH  13  14
TORSDOF 1
ENDMDL
MODEL 2
REMARK VINA RESULT: -4.865706289      1.957      2.222
REMARK  1 active torsions:
REMARK  status: ('A' for Active; 'I' for Inactive)
REMARK    1  A    between atoms: C7_13  and  O1_14 
ROOT
HETATM    1  C1  UNL     1      14.836  16.086  13.906  1.00  0.00     0.014 C 
HETATM    2  C2  UNL     1      13.584  15.743  14.627  1.00  0.00     0.032 C 
HETATM    3  C3  UNL     1      12.614  16.885  14.633  1.00  0.00     0.084 C 
HETATM    4  S1  UNL     1      13.260  17.516  16.215  1.00  0.00    -0.135 SA
HETATM    5  C4  UNL     1      13.649  15.737  16.137  1.00  0.00     0.107 C 
HETATM    6  N1  UNL     1      14.940  15.440  16.641  1.00  0.00    -0.380 N 
ATOM      7  H1  UNL     1      15.780  15.540  16.071  1.00  0.00     0.156 HD
HETATM    8  C5  UNL     1      14.993  14.992  17.995  1.00  0.00     0.351 C 
HETATM    9  N2  UNL     1      13.791  15.230  18.747  1.00  0.00    -0.057 N 
ATOM     10  H21 UNL     1      13.631  16.227  18.887  1.00  0.00     0.279 HD
ATOM     11  H22 UNL     1      13.899  14.947  19.721  1.00  0.00     0.279 HD
HETATM   12  C6  UNL     1      12.652  14.599  18.143  1.00  0.00     0.269 C 
HETATM   13  C7  UNL     1      12.537  14.909  16.690  1.00  0.00     0.182 C 
ENDROOT
BRANCH  13  14
HETATM   14  O1  UNL     1      12.335  13.757  15.902  1.00  0.00    -0.391 OA
ATOM     15  H1  UNL     1      13.045  13.137  16.025  1.00  0.00     0.210 HD
ENDBRANCH  13  14
TORSDOF 1
ENDMDL
MODEL 3
REMARK VINA RESULT: -4.464925047      2.223      2.593
REMARK  1 active torsions:
REMARK  status: ('A' for Active; 'I' for Inactive)
REMARK    1  A    between atoms: C7_13  and  O1_14 
ROOT
HETATM    1  C1  UNL     1      11.756  14.594  15.833  1.00  0.00     0.014 C 
HETATM    2  C2  UNL     1      12.283  15.751  16.602  1.00  0.00     0.032 C 
HETATM    3  C3  UNL     1      12.901  16.780  15.706  1.00  0.00     0.084 C 
HETATM    4  S1  UNL     1      14.551  16.024  15.861  1.00  0.00    -0.135 SA
HETATM    5  C4  UNL     1      13.589  15.542  17.332  1.00  0.00     0.107 C 
HETATM    6  N1  UNL     1      13.812  14.194  17.709  1.00  0.00    -0.380 N 
ATOM      7  H1  UNL     1      13.319  13.420  17.265  1.00  0.00     0.156 HD
HETATM    8  C5  UNL     1      14.767  13.988  18.750  1.00  0.00     0.351 C 
HETATM    9  N2  UNL     1      15.603  15.125  19.023  1.00  0.00    -0.057 N 
ATOM     10  H21 UNL     1      16.223  15.327  18.239  1.00  0.00     0.279 HD
ATOM     11  H22 UNL     1      16.306  14.908  19.730  1.00  0.00     0.279 HD
HETATM   12  C6  UNL     1      14.831  16.277  19.390  1.00  0.00     0.269 C 
HETATM   13  C7  UNL     1      13.726  16.547  18.428  1.00  0.00     0.182 C 
ENDROOT
BRANCH  13  14
HETATM   14  O1  UNL     1      12.486  16.757  19.068  1.00  0.00    -0.391 OA
ATOM     15  H1  UNL     1      12.217  17.665  18.988  1.00  0.00     0.210 HD
ENDBRANCH  13  14
TORSDOF 1
ENDMDL
MODEL 4
REMARK VINA RESULT: -4.459388365      2.338      3.727
REMARK  1 active torsions:
REMARK  status: ('A' for Active; 'I' for Inactive)
REMARK    1  A    between atoms: C7_13  and  O1_14 
ROOT
HETATM    1  C1  UNL     1      10.547  15.407  16.078  1.00  0.00     0.014 C 
HETATM    2  C2  UNL     1      11.980  15.032  15.963  1.00  0.00     0.032 C 
HETATM    3  C3  UNL     1      12.574  14.688  17.295  1.00  0.00     0.084 C 
HETATM    4  S1  UNL     1      13.125  16.401  17.571  1.00  0.00    -0.135 SA
HETATM    5  C4  UNL     1      12.964  16.162  15.771  1.00  0.00     0.107 C 
HETATM    6  N1  UNL     1      12.404  17.289  15.120  1.00  0.00    -0.380 N 
ATOM      7  H1  UNL     1      11.397  17.447  15.082  1.00  0.00     0.156 HD
HETATM    8  C5  UNL     1      13.335  18.191  14.523  1.00  0.00     0.351 C 
HETATM    9  N2  UNL     1      14.695  18.013  14.953  1.00  0.00    -0.057 N 
ATOM     10  H21 UNL     1      14.807  18.255  15.937  1.00  0.00     0.279 HD
ATOM     11  H22 UNL     1      15.309  18.717  14.544  1.00  0.00     0.279 HD
HETATM   12  C6  UNL     1      15.168  16.686  14.683  1.00  0.00     0.269 C 
HETATM   13  C7  UNL     1      14.229  15.639  15.174  1.00  0.00     0.182 C 
ENDROOT
BRANCH  13  14
HETATM   14  O1  UNL     1      13.950  14.657  14.200  1.00  0.00    -0.391 OA
ATOM     15  H1  UNL     1      14.745  14.398  13.748  1.00  0.00     0.210 HD
ENDBRANCH  13  14
TORSDOF 1
ENDMDL
MODEL 5
REMARK VINA RESULT: -4.420817412      1.989      2.283
REMARK  1 active torsions:
REMARK  status: ('A' for Active; 'I' for Inactive)
REMARK    1  A    between atoms: C7_13  and  O1_14 
ROOT
HETATM    1  C1  UNL     1      15.888  17.319  15.264  1.00  0.00     0.014 C 
HETATM    2  C2  UNL     1      14.607  16.765  14.756  1.00  0.00     0.032 C 
HETATM    3  C3  UNL     1      13.933  17.704  13.803  1.00  0.00     0.084 C 
HETATM    4  S1  UNL     1      12.975  18.486  15.140  1.00  0.00    -0.135 SA
HETATM    5  C4  UNL     1      13.426  16.810  15.698  1.00  0.00     0.107 C 
HETATM    6  N1  UNL     1      13.798  16.774  17.065  1.00  0.00    -0.380 N 
ATOM      7  H1  UNL     1      14.739  17.015  17.376  1.00  0.00     0.156 HD
HETATM    8  C5  UNL     1      12.776  16.379  17.979  1.00  0.00     0.351 C 
HETATM    9  N2  UNL     1      11.447  16.406  17.432  1.00  0.00    -0.057 N 
ATOM     10  H21 UNL     1      11.151  17.359  17.223  1.00  0.00     0.279 HD
ATOM     11  H22 UNL     1      10.749  16.174  18.139  1.00  0.00     0.279 HD
HETATM   12  C6  UNL     1      11.328  15.557  16.282  1.00  0.00     0.269 C 
HETATM   13  C7  UNL     1      12.405  15.802  15.283  1.00  0.00     0.182 C 
ENDROOT
BRANCH  13  14
HETATM   14  O1  UNL     1      13.028  14.613  14.850  1.00  0.00    -0.391 OA
ATOM     15  H1  UNL     1      12.641  13.857  15.277  1.00  0.00     0.210 HD
ENDBRANCH  13  14
TORSDOF 1
ENDMDL
