MODEL 1
REMARK VINA RESULT: -4.007407860      0.000      0.000
REMARK  1 active torsions:
REMARK  status: ('A' for Active; 'I' for Inactive)
REMARK    1  A    between atoms: O1_1  and  C1_3 
ROOT
HETATM    1  C1  UNL     1      12.313  17.076  16.795  1.00  0.00     0.173 C 
HETATM    2  C2  UNL     1      12.321  16.891  18.282  1.00  0.00     0.266 C 
HETATM    3  N1  UNL     1      12.600  15.518  18.573  1.00  0.00    -0.072 N 
ATOM      4  H11 UNL     1      11.911  14.903  18.141  1.00  0.00     0.277 HD
ATOM      5  H12 UNL     1      12.418  15.305  19.554  1.00  0.00     0.277 HD
HETATM    6  C3  UNL     1      13.948  15.139  18.197  1.00  0.00     0.240 C 
HETATM    7  C4  UNL     1      14.348  15.598  16.840  1.00  0.00     0.053 C 
HETATM    8  C5  UNL     1      15.211  16.821  16.755  1.00  0.00     0.084 C 
HETATM    9  S1  UNL     1      14.484  17.115  15.096  1.00  0.00    -0.143 SA
HETATM   10  C6  UNL     1      13.227  16.196  16.044  1.00  0.00     0.099 C 
HETATM   11  S2  UNL     1      12.396  14.895  15.076  1.00  0.00    -0.071 SA
ENDROOT
BRANCH   1  12
HETATM   12  O1  UNL     1      12.505  18.432  16.488  1.00  0.00    -0.391 OA
ATOM     13  H1  UNL     1      11.824  18.724  15.893  1.00  0.00     0.210 HD
ENDBRANCH   1  12
TORSDOF 1
ENDMDL
MODEL 2
REMARK VINA RESULT: -4.005575477      1.900      2.235
REMARK  1 active torsions:
REMARK  status: ('A' for Active; 'I' for Inactive)
REMARK    1  A    between atoms: O1_1  and  C1_3 
ROOT
HETATM    1  C1  UNL     1      12.386  15.100  15.660  1.00  0.00     0.173 C 
HETATM    2  C2  UNL     1      12.522  14.688  17.095  1.00  0.00     0.266 C 
HETATM    3  N1  UNL     1      13.896  14.805  17.479  1.00  0.00    -0.072 N 
ATOM      4  H11 UNL     1      14.494  14.230  16.885  1.00  0.00     0.277 HD
ATOM      5  H12 UNL     1      14.068  14.349  18.375  1.00  0.00     0.277 HD
HETATM    6  C3  UNL     1      14.347  16.182  17.498  1.00  0.00     0.240 C 
HETATM    7  C4  UNL     1      13.951  16.964  16.296  1.00  0.00     0.053 C 
HETATM    8  C5  UNL     1      12.771  17.880  16.429  1.00  0.00     0.084 C 
HETATM    9  S1  UNL     1      12.500  17.654  14.628  1.00  0.00    -0.143 SA
HETATM   10  C6  UNL     1      13.331  16.139  15.209  1.00  0.00     0.099 C 
HETATM   11  S2  UNL     1      14.625  15.541  14.074  1.00  0.00    -0.071 SA
ENDROOT
BRANCH   1  12
HETATM   12  O1  UNL     1      11.051  15.440  15.392  1.00  0.00    -0.391 OA
ATOM     13  H1  UNL     1      11.019  16.273  14.936  1.00  0.00     0.210 HD
ENDBRANCH   1  12
TORSDOF 1
ENDMDL
MODEL 3
REMARK VINA RESULT: -3.962439047      1.897      2.743
REMARK  1 active torsions:
REMARK  status: ('A' for Active; 'I' for Inactive)
REMARK    1  A    between atoms: O1_1  and  C1_3 
ROOT
HETATM    1  C1  UNL     1      13.875  16.237  16.991  1.00  0.00     0.173 C 
HETATM    2  C2  UNL     1      12.792  15.703  17.879  1.00  0.00     0.266 C 
HETATM    3  N1  UNL     1      11.560  16.347  17.539  1.00  0.00    -0.072 N 
ATOM      4  H11 UNL     1      11.635  17.360  17.638  1.00  0.00     0.277 HD
ATOM      5  H12 UNL     1      10.843  16.166  18.242  1.00  0.00     0.277 HD
HETATM    6  C3  UNL     1      11.096  15.985  16.214  1.00  0.00     0.240 C 
HETATM    7  C4  UNL     1      12.153  16.037  15.169  1.00  0.00     0.053 C 
HETATM    8  C5  UNL     1      12.775  14.736  14.755  1.00  0.00     0.084 C 
HETATM    9  S1  UNL     1      14.279  15.692  14.320  1.00  0.00    -0.143 SA
HETATM   10  C6  UNL     1      13.446  16.635  15.638  1.00  0.00     0.099 C 
HETATM   11  S2  UNL     1      13.434  18.433  15.348  1.00  0.00    -0.071 SA
ENDROOT
BRANCH   1  12
HETATM   12  O1  UNL     1      14.951  15.336  16.967  1.00  0.00    -0.391 OA
ATOM     13  H1  UNL     1      14.662  14.485  17.276  1.00  0.00     0.210 HD
ENDBRANCH   1  12
TORSDOF 1
ENDMDL
MODEL 4
REMARK VINA RESULT: -3.906942966      1.837      2.656
REMARK  1 active torsions:
REMARK  status: ('A' for Active; 'I' for Inactive)
REMARK    1  A    between atoms: O1_1  and  C1_3 
ROOT
HETATM    1  C1  UNL     1      13.321  14.861  16.475  1.00  0.00     0.173 C 
HETATM    2  C2  UNL     1      12.191  14.750  17.453  1.00  0.00     0.266 C 
HETATM    3  N1  UNL     1      12.379  15.722  18.486  1.00  0.00    -0.072 N 
ATOM      4  H11 UNL     1      13.274  15.588  18.958  1.00  0.00     0.277 HD
ATOM      5  H12 UNL     1      11.752  15.551  19.272  1.00  0.00     0.277 HD
HETATM    6  C3  UNL     1      12.245  17.079  17.995  1.00  0.00     0.240 C 
HETATM    7  C4  UNL     1      12.984  17.340  16.731  1.00  0.00     0.053 C 
HETATM    8  C5  UNL     1      12.189  17.341  15.458  1.00  0.00     0.084 C 
HETATM    9  S1  UNL     1      13.730  16.837  14.597  1.00  0.00    -0.143 SA
HETATM   10  C6  UNL     1      13.878  16.215  16.304  1.00  0.00     0.099 C 
HETATM   11  S2  UNL     1      15.539  16.444  17.017  1.00  0.00    -0.071 SA
ENDROOT
BRANCH   1  12
HETATM   12  O1  UNL     1      12.947  14.279  15.254  1.00  0.00    -0.391 OA
ATOM     13  H1  UNL     1      13.696  14.255  14.669  1.00  0.00     0.210 HD
ENDBRANCH   1  12
TORSDOF 1
ENDMDL
MODEL 5
REMARK VINA RESULT: -3.883807776      2.109      2.734
REMARK  1 active torsions:
REMARK  status: ('A' for Active; 'I' for Inactive)
REMARK    1  A    between atoms: O1_1  and  C1_3 
ROOT
HETATM    1  C1  UNL     1      12.833  14.958  16.421  1.00  0.00     0.173 C 
HETATM    2  C2  UNL     1      11.522  15.615  16.730  1.00  0.00     0.266 C 
HETATM    3  N1  UNL     1      11.770  16.788  17.513  1.00  0.00    -0.072 N 
ATOM      4  H11 UNL     1      12.265  16.558  18.375  1.00  0.00     0.277 HD
ATOM      5  H12 UNL     1      10.905  17.152  17.913  1.00  0.00     0.277 HD
HETATM    6  C3  UNL     1      12.471  17.812  16.765  1.00  0.00     0.240 C 
HETATM    7  C4  UNL     1      13.636  17.303  15.992  1.00  0.00     0.053 C 
HETATM    8  C5  UNL     1      13.440  17.077  14.522  1.00  0.00     0.084 C 
HETATM    9  S1  UNL     1      14.753  15.800  14.630  1.00  0.00    -0.143 SA
HETATM   10  C6  UNL     1      13.981  15.873  16.280  1.00  0.00     0.099 C 
HETATM   11  S2  UNL     1      15.183  15.792  17.647  1.00  0.00    -0.071 SA
ENDROOT
BRANCH   1  12
HETATM   12  O1  UNL     1      12.686  14.111  15.311  1.00  0.00    -0.391 OA
ATOM     13  H1  UNL     1      12.911  14.583  14.518  1.00  0.00     0.210 HD
ENDBRANCH   1  12
TORSDOF 1
ENDMDL
