MODEL 1
REMARK VINA RESULT: -5.615960861      0.000      0.000
REMARK  3 active torsions:
REMARK  status: ('A' for Active; 'I' for Inactive)
REMARK    1  A    between atoms: C2_2  and  O1_3 
REMARK    2  A    between atoms: C5_7  and  O2_8 
REMARK    3  A    between atoms: C6_10  and  O3_11 
ROOT
HETATM    1  C1  UNL     1      12.396  16.299  16.697  1.00  0.00     0.046 C 
HETATM    2  C2  UNL     1      13.009  15.988  18.071  1.00  0.00     0.058 C 
HETATM    3  C3  UNL     1      12.948  14.528  18.265  1.00  0.00     0.040 C 
HETATM    4  C4  UNL     1      14.008  13.929  19.114  1.00  0.00     0.038 C 
HETATM    5  C5  UNL     1      15.354  14.452  18.682  1.00  0.00     0.167 C 
HETATM    6  C6  UNL     1      15.358  15.943  18.968  1.00  0.00     0.174 C 
HETATM    7  C7  UNL     1      16.686  16.463  18.578  1.00  0.00     0.100 C 
HETATM    8  N1  UNL     1      17.716  16.885  18.264  1.00  0.00    -0.194 NA
HETATM    9  C8  UNL     1      14.344  16.616  18.119  1.00  0.00     0.093 C 
ENDROOT
BRANCH   6  10
HETATM   10  O3  UNL     1      15.177  16.117  20.319  1.00  0.00    -0.373 OA
ATOM     11  H3  UNL     1      14.273  15.908  20.522  1.00  0.00     0.212 HD
ENDBRANCH   6  10
BRANCH   5  12
HETATM   12  O2  UNL     1      15.517  14.295  17.320  1.00  0.00    -0.391 OA
ATOM     13  H2  UNL     1      15.291  15.098  16.864  1.00  0.00     0.210 HD
ENDBRANCH   5  12
BRANCH   2  14
HETATM   14  O1  UNL     1      12.161  16.637  18.997  1.00  0.00    -0.390 OA
ATOM     15  H1  UNL     1      12.633  16.603  19.820  1.00  0.00     0.210 HD
ENDBRANCH   2  14
TORSDOF 3
ENDMDL
MODEL 2
REMARK VINA RESULT: -5.545888196      2.347      3.421
REMARK  3 active torsions:
REMARK  status: ('A' for Active; 'I' for Inactive)
REMARK    1  A    between atoms: C2_2  and  O1_3 
REMARK    2  A    between atoms: C5_7  and  O2_8 
REMARK    3  A    between atoms: C6_10  and  O3_11 
ROOT
HETATM    1  C1  UNL     1      13.689  17.300  14.433  1.00  0.00     0.046 C 
HETATM    2  C2  UNL     1      12.796  17.100  15.668  1.00  0.00     0.058 C 
HETATM    3  C3  UNL     1      11.564  16.427  15.221  1.00  0.00     0.040 C 
HETATM    4  C4  UNL     1      10.890  15.555  16.215  1.00  0.00     0.038 C 
HETATM    5  C5  UNL     1      11.906  14.647  16.858  1.00  0.00     0.167 C 
HETATM    6  C6  UNL     1      12.860  15.536  17.635  1.00  0.00     0.174 C 
HETATM    7  C7  UNL     1      13.844  14.653  18.298  1.00  0.00     0.100 C 
HETATM    8  N1  UNL     1      14.629  13.975  18.811  1.00  0.00    -0.194 NA
HETATM    9  C8  UNL     1      13.602  16.413  16.696  1.00  0.00     0.093 C 
ENDROOT
BRANCH   6  10
HETATM   10  O3  UNL     1      12.133  16.207  18.588  1.00  0.00    -0.373 OA
ATOM     11  H3  UNL     1      12.183  15.712  19.397  1.00  0.00     0.212 HD
ENDBRANCH   6  10
BRANCH   5  12
HETATM   12  O2  UNL     1      12.648  13.994  15.893  1.00  0.00    -0.391 OA
ATOM     13  H2  UNL     1      13.169  14.616  15.398  1.00  0.00     0.210 HD
ENDBRANCH   5  12
BRANCH   2  14
HETATM   14  O1  UNL     1      12.502  18.409  16.113  1.00  0.00    -0.390 OA
ATOM     15  H1  UNL     1      12.113  18.837  15.360  1.00  0.00     0.210 HD
ENDBRANCH   2  14
TORSDOF 3
ENDMDL
MODEL 3
REMARK VINA RESULT: -5.362899022      3.506      4.877
REMARK  3 active torsions:
REMARK  status: ('A' for Active; 'I' for Inactive)
REMARK    1  A    between atoms: C2_2  and  O1_3 
REMARK    2  A    between atoms: C5_7  and  O2_8 
REMARK    3  A    between atoms: C6_10  and  O3_11 
ROOT
HETATM    1  C1  UNL     1      14.489  17.231  13.771  1.00  0.00     0.046 C 
HETATM    2  C2  UNL     1      14.218  16.228  14.903  1.00  0.00     0.058 C 
HETATM    3  C3  UNL     1      14.782  16.793  16.142  1.00  0.00     0.040 C 
HETATM    4  C4  UNL     1      14.112  16.407  17.409  1.00  0.00     0.038 C 
HETATM    5  C5  UNL     1      12.621  16.576  17.261  1.00  0.00     0.167 C 
HETATM    6  C6  UNL     1      12.169  15.579  16.209  1.00  0.00     0.174 C 
HETATM    7  C7  UNL     1      10.702  15.711  16.077  1.00  0.00     0.100 C 
HETATM    8  N1  UNL     1       9.557  15.814  15.954  1.00  0.00    -0.194 NA
HETATM    9  C8  UNL     1      12.772  15.928  14.899  1.00  0.00     0.093 C 
ENDROOT
BRANCH   6  10
HETATM   10  O3  UNL     1      12.476  14.318  16.660  1.00  0.00    -0.373 OA
ATOM     11  H3  UNL     1      13.421  14.251  16.722  1.00  0.00     0.212 HD
ENDBRANCH   6  10
BRANCH   5  12
HETATM   12  O2  UNL     1      12.323  17.837  16.784  1.00  0.00    -0.391 OA
ATOM     13  H2  UNL     1      12.287  17.834  15.835  1.00  0.00     0.210 HD
ENDBRANCH   5  12
BRANCH   2  14
HETATM   14  O1  UNL     1      14.930  15.065  14.531  1.00  0.00    -0.390 OA
ATOM     15  H1  UNL     1      14.742  14.437  15.218  1.00  0.00     0.210 HD
ENDBRANCH   2  14
TORSDOF 3
ENDMDL
MODEL 4
REMARK VINA RESULT: -5.347518276      2.491      4.092
REMARK  3 active torsions:
REMARK  status: ('A' for Active; 'I' for Inactive)
REMARK    1  A    between atoms: C2_2  and  O1_3 
REMARK    2  A    between atoms: C5_7  and  O2_8 
REMARK    3  A    between atoms: C6_10  and  O3_11 
ROOT
HETATM    1  C1  UNL     1      14.899  16.281  18.830  1.00  0.00     0.046 C 
HETATM    2  C2  UNL     1      14.393  15.430  17.654  1.00  0.00     0.058 C 
HETATM    3  C3  UNL     1      13.018  15.005  17.971  1.00  0.00     0.040 C 
HETATM    4  C4  UNL     1      12.112  14.785  16.817  1.00  0.00     0.038 C 
HETATM    5  C5  UNL     1      12.207  15.955  15.872  1.00  0.00     0.167 C 
HETATM    6  C6  UNL     1      13.622  15.959  15.320  1.00  0.00     0.174 C 
HETATM    7  C7  UNL     1      13.719  17.085  14.366  1.00  0.00     0.100 C 
HETATM    8  N1  UNL     1      13.813  17.970  13.627  1.00  0.00    -0.194 NA
HETATM    9  C8  UNL     1      14.585  16.216  16.418  1.00  0.00     0.093 C 
ENDROOT
BRANCH   6  10
HETATM   10  O3  UNL     1      13.820  14.775  14.652  1.00  0.00    -0.373 OA
ATOM     11  H3  UNL     1      14.325  14.202  15.216  1.00  0.00     0.212 HD
ENDBRANCH   6  10
BRANCH   5  12
HETATM   12  O2  UNL     1      12.031  17.142  16.555  1.00  0.00    -0.391 OA
ATOM     13  H2  UNL     1      12.230  17.882  15.993  1.00  0.00     0.210 HD
ENDBRANCH   5  12
BRANCH   2  14
HETATM   14  O1  UNL     1      15.254  14.310  17.625  1.00  0.00    -0.390 OA
ATOM     15  H1  UNL     1      16.066  14.620  18.007  1.00  0.00     0.210 HD
ENDBRANCH   2  14
TORSDOF 3
ENDMDL
MODEL 5
REMARK VINA RESULT: -5.343957495      2.918      4.307
REMARK  3 active torsions:
REMARK  status: ('A' for Active; 'I' for Inactive)
REMARK    1  A    between atoms: C2_2  and  O1_3 
REMARK    2  A    between atoms: C5_7  and  O2_8 
REMARK    3  A    between atoms: C6_10  and  O3_11 
ROOT
HETATM    1  C1  UNL     1      14.232  14.001  18.730  1.00  0.00     0.046 C 
HETATM    2  C2  UNL     1      13.991  15.401  18.142  1.00  0.00     0.058 C 
HETATM    3  C3  UNL     1      14.958  15.594  17.047  1.00  0.00     0.040 C 
HETATM    4  C4  UNL     1      14.533  16.489  15.941  1.00  0.00     0.038 C 
HETATM    5  C5  UNL     1      13.144  16.112  15.495  1.00  0.00     0.167 C 
HETATM    6  C6  UNL     1      12.217  16.394  16.664  1.00  0.00     0.174 C 
HETATM    7  C7  UNL     1      10.844  16.059  16.228  1.00  0.00     0.100 C 
HETATM    8  N1  UNL     1       9.767  15.788  15.905  1.00  0.00    -0.194 NA
HETATM    9  C8  UNL     1      12.559  15.503  17.799  1.00  0.00     0.093 C 
ENDROOT
BRANCH   6  10
HETATM   10  O3  UNL     1      12.291  17.736  16.950  1.00  0.00    -0.373 OA
ATOM     11  H3  UNL     1      12.262  17.837  17.894  1.00  0.00     0.212 HD
ENDBRANCH   6  10
BRANCH   5  12
HETATM   12  O2  UNL     1      13.072  14.758  15.234  1.00  0.00    -0.391 OA
ATOM     13  H2  UNL     1      13.867  14.459  14.808  1.00  0.00     0.210 HD
ENDBRANCH   5  12
BRANCH   2  14
HETATM   14  O1  UNL     1      14.275  16.289  19.204  1.00  0.00    -0.390 OA
ATOM     15  H1  UNL     1      13.719  15.998  19.916  1.00  0.00     0.210 HD
ENDBRANCH   2  14
TORSDOF 3
ENDMDL
