MODEL 1
REMARK VINA RESULT: -5.083448668      0.000      0.000
REMARK  2 active torsions:
REMARK  status: ('A' for Active; 'I' for Inactive)
REMARK    1  A    between atoms: C2_3  and  C3_4 
REMARK    2  A    between atoms: C3_4  and  N2_5 
ROOT
HETATM    1  N1  UNL     1      27.147  23.669  72.382  1.00  0.00    -0.197 NA
HETATM    2  C1  UNL     1      27.501  23.679  71.274  1.00  0.00     0.060 C 
HETATM    3  C2  UNL     1      27.932  23.674  69.881  1.00  0.00     0.144 C 
ENDROOT
BRANCH   3   4
HETATM    4  C3  UNL     1      29.069  24.686  69.690  1.00  0.00     0.143 C 
BRANCH   4   5
HETATM    5  N2  UNL     1      29.792  24.286  68.495  1.00  0.00    -0.351 N 
HETATM    6  C4  UNL     1      29.300  23.455  67.539  1.00  0.00     0.108 A 
HETATM    7  C5  UNL     1      30.244  23.288  66.547  1.00  0.00     0.106 A 
HETATM    8  N3  UNL     1      31.307  24.026  66.914  1.00  0.00    -0.361 N 
HETATM    9  C6  UNL     1      31.018  24.621  68.091  1.00  0.00     0.182 A 
ATOM     10  H3  UNL     1      32.180  24.119  66.393  1.00  0.00     0.166 HD
ENDBRANCH   4   5
ENDBRANCH   3   4
TORSDOF 2
ENDMDL
MODEL 2
REMARK VINA RESULT: -4.724220617      0.746      1.255
REMARK  2 active torsions:
REMARK  status: ('A' for Active; 'I' for Inactive)
REMARK    1  A    between atoms: C2_3  and  C3_4 
REMARK    2  A    between atoms: C3_4  and  N2_5 
ROOT
HETATM    1  N1  UNL     1      27.323  23.686  72.567  1.00  0.00    -0.197 NA
HETATM    2  C1  UNL     1      27.523  23.707  71.421  1.00  0.00     0.060 C 
HETATM    3  C2  UNL     1      27.758  23.718  69.982  1.00  0.00     0.144 C 
ENDROOT
BRANCH   3   4
HETATM    4  C3  UNL     1      29.029  24.520  69.674  1.00  0.00     0.143 C 
BRANCH   4   5
HETATM    5  N2  UNL     1      29.500  24.080  68.372  1.00  0.00    -0.351 N 
HETATM    6  C4  UNL     1      30.673  24.469  67.806  1.00  0.00     0.108 A 
HETATM    7  C5  UNL     1      30.808  23.865  66.573  1.00  0.00     0.106 A 
HETATM    8  N3  UNL     1      29.708  23.110  66.403  1.00  0.00    -0.361 N 
HETATM    9  C6  UNL     1      28.930  23.251  67.497  1.00  0.00     0.182 A 
ATOM     10  H3  UNL     1      29.499  22.531  65.589  1.00  0.00     0.166 HD
ENDBRANCH   4   5
ENDBRANCH   3   4
TORSDOF 2
ENDMDL
MODEL 3
REMARK VINA RESULT: -4.524403800      0.754      1.415
REMARK  2 active torsions:
REMARK  status: ('A' for Active; 'I' for Inactive)
REMARK    1  A    between atoms: C2_3  and  C3_4 
REMARK    2  A    between atoms: C3_4  and  N2_5 
ROOT
HETATM    1  N1  UNL     1      26.704  23.137  71.697  1.00  0.00    -0.197 NA
HETATM    2  C1  UNL     1      27.449  23.625  70.949  1.00  0.00     0.060 C 
HETATM    3  C2  UNL     1      28.386  24.252  70.024  1.00  0.00     0.144 C 
ENDROOT
BRANCH   3   4
HETATM    4  C3  UNL     1      28.309  23.556  68.660  1.00  0.00     0.143 C 
BRANCH   4   5
HETATM    5  N2  UNL     1      29.587  23.770  68.004  1.00  0.00    -0.351 N 
HETATM    6  C4  UNL     1      30.585  24.548  68.499  1.00  0.00     0.108 A 
HETATM    7  C5  UNL     1      31.655  24.530  67.628  1.00  0.00     0.106 A 
HETATM    8  N3  UNL     1      31.292  23.734  66.606  1.00  0.00    -0.361 N 
HETATM    9  C6  UNL     1      30.042  23.285  66.849  1.00  0.00     0.182 A 
ATOM     10  H3  UNL     1      31.861  23.511  65.789  1.00  0.00     0.166 HD
ENDBRANCH   4   5
ENDBRANCH   3   4
TORSDOF 2
ENDMDL
MODEL 4
REMARK VINA RESULT: -4.470615273      2.308      6.165
REMARK  2 active torsions:
REMARK  status: ('A' for Active; 'I' for Inactive)
REMARK    1  A    between atoms: C2_3  and  C3_4 
REMARK    2  A    between atoms: C3_4  and  N2_5 
ROOT
HETATM    1  N1  UNL     1      28.676  23.411  68.675  1.00  0.00    -0.197 NA
HETATM    2  C1  UNL     1      28.206  23.657  69.710  1.00  0.00     0.060 C 
HETATM    3  C2  UNL     1      27.619  23.985  71.004  1.00  0.00     0.144 C 
ENDROOT
BRANCH   3   4
HETATM    4  C3  UNL     1      27.405  22.700  71.815  1.00  0.00     0.143 C 
BRANCH   4   5
HETATM    5  N2  UNL     1      26.188  22.886  72.586  1.00  0.00    -0.351 N 
HETATM    6  C4  UNL     1      24.973  22.388  72.236  1.00  0.00     0.108 A 
HETATM    7  C5  UNL     1      24.040  22.749  73.187  1.00  0.00     0.106 A 
HETATM    8  N3  UNL     1      24.704  23.468  74.109  1.00  0.00    -0.361 N 
HETATM    9  C6  UNL     1      25.998  23.541  73.731  1.00  0.00     0.182 A 
ATOM     10  H3  UNL     1      24.300  23.885  74.948  1.00  0.00     0.166 HD
ENDBRANCH   4   5
ENDBRANCH   3   4
TORSDOF 2
ENDMDL
MODEL 5
REMARK VINA RESULT: -4.394426119      2.289      6.219
REMARK  2 active torsions:
REMARK  status: ('A' for Active; 'I' for Inactive)
REMARK    1  A    between atoms: C2_3  and  C3_4 
REMARK    2  A    between atoms: C3_4  and  N2_5 
ROOT
HETATM    1  N1  UNL     1      29.034  23.533  68.752  1.00  0.00    -0.197 NA
HETATM    2  C1  UNL     1      28.381  23.737  69.693  1.00  0.00     0.060 C 
HETATM    3  C2  UNL     1      27.563  24.014  70.868  1.00  0.00     0.144 C 
ENDROOT
BRANCH   3   4
HETATM    4  C3  UNL     1      27.432  22.743  71.716  1.00  0.00     0.143 C 
BRANCH   4   5
HETATM    5  N2  UNL     1      26.196  22.866  72.471  1.00  0.00    -0.351 N 
HETATM    6  C4  UNL     1      26.096  23.452  73.693  1.00  0.00     0.108 A 
HETATM    7  C5  UNL     1      24.786  23.397  74.120  1.00  0.00     0.106 A 
HETATM    8  N3  UNL     1      24.099  22.774  73.146  1.00  0.00    -0.361 N 
HETATM    9  C6  UNL     1      24.966  22.460  72.159  1.00  0.00     0.182 A 
ATOM     10  H3  UNL     1      23.099  22.572  73.153  1.00  0.00     0.166 HD
ENDBRANCH   4   5
ENDBRANCH   3   4
TORSDOF 2
ENDMDL
