MODEL 1
REMARK VINA RESULT: -5.847936507      0.000      0.000
REMARK  1 active torsions:
REMARK  status: ('A' for Active; 'I' for Inactive)
REMARK    1  A    between atoms: N2_4  and  N3_6 
ROOT
HETATM    1  N3  UNL     1      27.694  24.101  71.183  1.00  0.00    -0.295 N 
ATOM      2  H3  UNL     1      28.429  24.746  71.472  1.00  0.00     0.187 HD
HETATM    3  C1  UNL     1      27.076  23.489  72.097  1.00  0.00     0.010 C 
HETATM    4  C2  UNL     1      27.295  23.601  73.540  1.00  0.00     0.060 C 
HETATM    5  C3  UNL     1      25.846  23.668  74.048  1.00  0.00     0.058 C 
HETATM    6  C4  UNL     1      25.110  22.825  73.069  1.00  0.00    -0.015 C 
HETATM    7  N4  UNL     1      23.910  22.424  73.202  1.00  0.00    -0.405 N 
ATOM      8  H41 UNL     1      23.405  21.845  72.530  1.00  0.00     0.155 HD
ATOM      9  H42 UNL     1      23.306  22.633  73.997  1.00  0.00     0.155 HD
HETATM   10  C5  UNL     1      25.991  22.521  71.910  1.00  0.00     0.106 C 
ENDROOT
BRANCH   1  11
HETATM   11  N2  UNL     1      27.464  23.974  69.828  1.00  0.00    -0.249 N 
HETATM   12  N1  UNL     1      28.466  23.957  69.040  1.00  0.00    -0.331 N 
ATOM     13  H12 UNL     1      29.410  24.036  69.418  1.00  0.00     0.178 HD
ATOM     14  H11 UNL     1      28.296  23.864  68.038  1.00  0.00     0.178 HD
ATOM     15  H2  UNL     1      26.514  23.896  69.465  1.00  0.00     0.207 HD
ENDBRANCH   1  11
TORSDOF 1
ENDMDL
MODEL 2
REMARK VINA RESULT: -5.243455872      1.653      2.035
REMARK  1 active torsions:
REMARK  status: ('A' for Active; 'I' for Inactive)
REMARK    1  A    between atoms: N2_4  and  N3_6 
ROOT
HETATM    1  N3  UNL     1      26.793  23.945  70.585  1.00  0.00    -0.295 N 
ATOM      2  H3  UNL     1      26.033  24.121  69.927  1.00  0.00     0.187 HD
HETATM    3  C1  UNL     1      26.486  23.418  71.689  1.00  0.00     0.010 C 
HETATM    4  C2  UNL     1      25.151  23.024  72.139  1.00  0.00     0.060 C 
HETATM    5  C3  UNL     1      25.448  21.650  72.760  1.00  0.00     0.058 C 
HETATM    6  C4  UNL     1      26.827  21.815  73.290  1.00  0.00    -0.015 C 
HETATM    7  N4  UNL     1      27.417  21.000  74.068  1.00  0.00    -0.405 N 
ATOM      8  H41 UNL     1      28.363  21.113  74.433  1.00  0.00     0.155 HD
ATOM      9  H42 UNL     1      27.015  20.132  74.423  1.00  0.00     0.155 HD
HETATM   10  C5  UNL     1      27.412  23.081  72.773  1.00  0.00     0.106 C 
ENDROOT
BRANCH   1  11
HETATM   11  N2  UNL     1      28.065  24.306  70.187  1.00  0.00    -0.249 N 
HETATM   12  N1  UNL     1      28.466  23.948  69.031  1.00  0.00    -0.331 N 
ATOM     13  H12 UNL     1      27.848  23.408  68.425  1.00  0.00     0.178 HD
ATOM     14  H11 UNL     1      29.406  24.214  68.738  1.00  0.00     0.178 HD
ATOM     15  H2  UNL     1      28.671  24.846  70.805  1.00  0.00     0.207 HD
ENDBRANCH   1  11
TORSDOF 1
ENDMDL
MODEL 3
REMARK VINA RESULT: -4.907980412     10.148     10.816
REMARK  1 active torsions:
REMARK  status: ('A' for Active; 'I' for Inactive)
REMARK    1  A    between atoms: N2_4  and  N3_6 
ROOT
HETATM    1  N3  UNL     1      18.019  19.772  77.861  1.00  0.00    -0.295 N 
ATOM      2  H3  UNL     1      17.931  19.184  78.690  1.00  0.00     0.187 HD
HETATM    3  C1  UNL     1      17.647  20.973  77.967  1.00  0.00     0.010 C 
HETATM    4  C2  UNL     1      17.098  21.626  79.156  1.00  0.00     0.060 C 
HETATM    5  C3  UNL     1      17.857  22.962  79.128  1.00  0.00     0.058 C 
HETATM    6  C4  UNL     1      18.041  23.211  77.675  1.00  0.00    -0.015 C 
HETATM    7  N4  UNL     1      18.443  24.304  77.162  1.00  0.00    -0.405 N 
ATOM      8  H41 UNL     1      18.569  24.475  76.164  1.00  0.00     0.155 HD
ATOM      9  H42 UNL     1      18.688  25.143  77.687  1.00  0.00     0.155 HD
HETATM   10  C5  UNL     1      17.683  21.987  76.909  1.00  0.00     0.106 C 
ENDROOT
BRANCH   1  11
HETATM   11  N2  UNL     1      18.534  19.184  76.723  1.00  0.00    -0.249 N 
HETATM   12  N1  UNL     1      19.529  18.395  76.843  1.00  0.00    -0.331 N 
ATOM     13  H12 UNL     1      19.924  18.214  77.765  1.00  0.00     0.178 HD
ATOM     14  H11 UNL     1      19.910  17.961  76.002  1.00  0.00     0.178 HD
ATOM     15  H2  UNL     1      18.128  19.375  75.807  1.00  0.00     0.207 HD
ENDBRANCH   1  11
TORSDOF 1
ENDMDL
MODEL 4
REMARK VINA RESULT: -4.783277842      4.266      5.966
REMARK  1 active torsions:
REMARK  status: ('A' for Active; 'I' for Inactive)
REMARK    1  A    between atoms: N2_4  and  N3_6 
ROOT
HETATM    1  N3  UNL     1      28.698  24.397  69.902  1.00  0.00    -0.295 N 
ATOM      2  H3  UNL     1      29.188  24.796  70.703  1.00  0.00     0.187 HD
HETATM    3  C1  UNL     1      29.271  24.476  68.781  1.00  0.00     0.010 C 
HETATM    4  C2  UNL     1      30.572  25.081  68.494  1.00  0.00     0.060 C 
HETATM    5  C3  UNL     1      31.180  24.028  67.554  1.00  0.00     0.058 C 
HETATM    6  C4  UNL     1      29.992  23.490  66.842  1.00  0.00    -0.015 C 
HETATM    7  N4  UNL     1      30.028  22.735  65.819  1.00  0.00    -0.405 N 
ATOM      8  H41 UNL     1      29.212  22.366  65.329  1.00  0.00     0.155 HD
ATOM      9  H42 UNL     1      30.879  22.405  65.363  1.00  0.00     0.155 HD
HETATM   10  C5  UNL     1      28.751  23.972  67.506  1.00  0.00     0.106 C 
ENDROOT
BRANCH   1  11
HETATM   11  N2  UNL     1      27.468  23.818  70.142  1.00  0.00    -0.249 N 
HETATM   12  N1  UNL     1      27.064  23.724  71.348  1.00  0.00    -0.331 N 
ATOM     13  H12 UNL     1      27.649  24.074  72.106  1.00  0.00     0.178 HD
ATOM     14  H11 UNL     1      26.155  23.296  71.525  1.00  0.00     0.178 HD
ATOM     15  H2  UNL     1      26.895  23.472  69.372  1.00  0.00     0.207 HD
ENDBRANCH   1  11
TORSDOF 1
ENDMDL
MODEL 5
REMARK VINA RESULT: -4.590583447      4.114      6.089
REMARK  1 active torsions:
REMARK  status: ('A' for Active; 'I' for Inactive)
REMARK    1  A    between atoms: N2_4  and  N3_6 
ROOT
HETATM    1  N3  UNL     1      27.641  23.890  69.212  1.00  0.00    -0.295 N 
ATOM      2  H3  UNL     1      26.708  23.842  68.800  1.00  0.00     0.187 HD
HETATM    3  C1  UNL     1      28.615  23.608  68.462  1.00  0.00     0.010 C 
HETATM    4  C2  UNL     1      28.560  23.215  67.053  1.00  0.00     0.060 C 
HETATM    5  C3  UNL     1      29.712  24.053  66.475  1.00  0.00     0.058 C 
HETATM    6  C4  UNL     1      30.677  24.117  67.604  1.00  0.00    -0.015 C 
HETATM    7  N4  UNL     1      31.875  24.539  67.523  1.00  0.00    -0.405 N 
ATOM      8  H41 UNL     1      32.537  24.583  68.297  1.00  0.00     0.155 HD
ATOM      9  H42 UNL     1      32.318  24.886  66.672  1.00  0.00     0.155 HD
HETATM   10  C5  UNL     1      30.030  23.612  68.844  1.00  0.00     0.106 C 
ENDROOT
BRANCH   1  11
HETATM   11  N2  UNL     1      27.724  24.258  70.540  1.00  0.00    -0.249 N 
HETATM   12  N1  UNL     1      27.092  23.565  71.404  1.00  0.00    -0.331 N 
ATOM     13  H12 UNL     1      26.543  22.760  71.105  1.00  0.00     0.178 HD
ATOM     14  H11 UNL     1      27.153  23.837  72.386  1.00  0.00     0.178 HD
ATOM     15  H2  UNL     1      28.277  25.066  70.824  1.00  0.00     0.207 HD
ENDBRANCH   1  11
TORSDOF 1
ENDMDL
