MODEL 1
REMARK VINA RESULT: -5.828073862      0.000      0.000
REMARK  2 active torsions:
REMARK  status: ('A' for Active; 'I' for Inactive)
REMARK    1  A    between atoms: C1_2  and  N1_3 
REMARK    2  A    between atoms: C2_5  and  C3_6 
ROOT
HETATM    1  C3  UNL     1      26.573  23.689  72.204  1.00  0.00     0.024 C 
HETATM    2  C4  UNL     1      27.174  23.358  73.551  1.00  0.00     0.010 C 
HETATM    3  C5  UNL     1      26.008  22.995  74.452  1.00  0.00     0.001 C 
HETATM    4  C6  UNL     1      24.773  23.102  73.568  1.00  0.00     0.001 C 
HETATM    5  C7  UNL     1      25.326  22.876  72.152  1.00  0.00     0.010 C 
ENDROOT
BRANCH   1   6
HETATM    6  C2  UNL     1      27.522  23.428  71.102  1.00  0.00     0.068 C 
HETATM    7  N1  UNL     1      27.647  24.146  70.066  1.00  0.00    -0.348 N 
ATOM      8  H1  UNL     1      27.060  24.974  69.959  1.00  0.00     0.167 HD
BRANCH   7   9
HETATM    9  C1  UNL     1      28.587  23.823  69.051  1.00  0.00     0.352 C 
HETATM   10  O1  UNL     1      28.274  23.336  67.937  1.00  0.00    -0.283 OA
ENDBRANCH   7   9
ENDBRANCH   1   6
TORSDOF 2
ENDMDL
MODEL 2
REMARK VINA RESULT: -5.816706949      0.870      1.514
REMARK  2 active torsions:
REMARK  status: ('A' for Active; 'I' for Inactive)
REMARK    1  A    between atoms: C1_2  and  N1_3 
REMARK    2  A    between atoms: C2_5  and  C3_6 
ROOT
HETATM    1  C3  UNL     1      26.570  22.754  72.571  1.00  0.00     0.024 C 
HETATM    2  C4  UNL     1      25.188  22.436  72.049  1.00  0.00     0.010 C 
HETATM    3  C5  UNL     1      24.223  22.822  73.155  1.00  0.00     0.001 C 
HETATM    4  C6  UNL     1      25.097  23.383  74.267  1.00  0.00     0.001 C 
HETATM    5  C7  UNL     1      26.348  23.876  73.525  1.00  0.00     0.010 C 
ENDROOT
BRANCH   1   6
HETATM    6  C2  UNL     1      27.512  23.059  71.475  1.00  0.00     0.068 C 
HETATM    7  N1  UNL     1      27.385  24.014  70.653  1.00  0.00    -0.348 N 
ATOM      8  H1  UNL     1      26.579  24.636  70.730  1.00  0.00     0.167 HD
BRANCH   7   9
HETATM    9  C1  UNL     1      28.340  24.239  69.625  1.00  0.00     0.352 C 
HETATM   10  O1  UNL     1      28.994  23.325  69.065  1.00  0.00    -0.283 OA
ENDBRANCH   7   9
ENDBRANCH   1   6
TORSDOF 2
ENDMDL
MODEL 3
REMARK VINA RESULT: -5.758784977      1.471      1.553
REMARK  2 active torsions:
REMARK  status: ('A' for Active; 'I' for Inactive)
REMARK    1  A    between atoms: C1_2  and  N1_3 
REMARK    2  A    between atoms: C2_5  and  C3_6 
ROOT
HETATM    1  C3  UNL     1      26.995  23.229  71.650  1.00  0.00     0.024 C 
HETATM    2  C4  UNL     1      27.358  24.201  72.748  1.00  0.00     0.010 C 
HETATM    3  C5  UNL     1      27.013  23.508  74.053  1.00  0.00     0.001 C 
HETATM    4  C6  UNL     1      26.490  22.137  73.649  1.00  0.00     0.001 C 
HETATM    5  C7  UNL     1      27.150  21.890  72.283  1.00  0.00     0.010 C 
ENDROOT
BRANCH   1   6
HETATM    6  C2  UNL     1      27.819  23.434  70.441  1.00  0.00     0.068 C 
HETATM    7  N1  UNL     1      28.499  24.475  70.194  1.00  0.00    -0.348 N 
ATOM      8  H1  UNL     1      28.494  25.245  70.863  1.00  0.00     0.167 HD
BRANCH   7   9
HETATM    9  C1  UNL     1      29.267  24.592  69.005  1.00  0.00     0.352 C 
HETATM   10  O1  UNL     1      30.521  24.537  68.973  1.00  0.00    -0.283 OA
ENDBRANCH   7   9
ENDBRANCH   1   6
TORSDOF 2
ENDMDL
MODEL 4
REMARK VINA RESULT: -5.344486884      2.339      5.678
REMARK  2 active torsions:
REMARK  status: ('A' for Active; 'I' for Inactive)
REMARK    1  A    between atoms: C1_2  and  N1_3 
REMARK    2  A    between atoms: C2_5  and  C3_6 
ROOT
HETATM    1  C3  UNL     1      29.165  24.338  68.683  1.00  0.00     0.024 C 
HETATM    2  C4  UNL     1      28.888  23.230  67.695  1.00  0.00     0.010 C 
HETATM    3  C5  UNL     1      30.030  23.262  66.698  1.00  0.00     0.001 C 
HETATM    4  C6  UNL     1      30.946  24.380  67.177  1.00  0.00     0.001 C 
HETATM    5  C7  UNL     1      30.649  24.465  68.681  1.00  0.00     0.010 C 
ENDROOT
BRANCH   1   6
HETATM    6  C2  UNL     1      28.576  24.052  70.008  1.00  0.00     0.068 C 
HETATM    7  N1  UNL     1      27.339  23.901  70.234  1.00  0.00    -0.348 N 
ATOM      8  H1  UNL     1      26.676  23.978  69.462  1.00  0.00     0.167 HD
BRANCH   7   9
HETATM    9  C1  UNL     1      26.854  23.627  71.541  1.00  0.00     0.352 C 
HETATM   10  O1  UNL     1      25.715  23.155  71.781  1.00  0.00    -0.283 OA
ENDBRANCH   7   9
ENDBRANCH   1   6
TORSDOF 2
ENDMDL
MODEL 5
REMARK VINA RESULT: -5.110304322      2.244      5.368
REMARK  2 active torsions:
REMARK  status: ('A' for Active; 'I' for Inactive)
REMARK    1  A    between atoms: C1_2  and  N1_3 
REMARK    2  A    between atoms: C2_5  and  C3_6 
ROOT
HETATM    1  C3  UNL     1      29.004  23.526  69.008  1.00  0.00     0.024 C 
HETATM    2  C4  UNL     1      30.082  24.584  68.985  1.00  0.00     0.010 C 
HETATM    3  C5  UNL     1      30.686  24.537  67.593  1.00  0.00     0.001 C 
HETATM    4  C6  UNL     1      29.899  23.463  66.854  1.00  0.00     0.001 C 
HETATM    5  C7  UNL     1      28.552  23.436  67.592  1.00  0.00     0.010 C 
ENDROOT
BRANCH   1   6
HETATM    6  C2  UNL     1      27.934  23.855  69.973  1.00  0.00     0.068 C 
HETATM    7  N1  UNL     1      27.661  23.182  71.011  1.00  0.00    -0.348 N 
ATOM      8  H1  UNL     1      28.204  22.344  71.221  1.00  0.00     0.167 HD
BRANCH   7   9
HETATM    9  C1  UNL     1      26.614  23.569  71.890  1.00  0.00     0.352 C 
HETATM   10  O1  UNL     1      25.413  23.236  71.737  1.00  0.00    -0.283 OA
ENDBRANCH   7   9
ENDBRANCH   1   6
TORSDOF 2
ENDMDL
