MODEL 1
REMARK VINA RESULT: -6.944607398      0.000      0.000
REMARK  13 active torsions:
REMARK  status: ('A' for Active; 'I' for Inactive)
REMARK    1  A    between atoms: N1_1  and  C1_4 
REMARK    2  A    between atoms: N3_8  and  C3_10 
REMARK    3  A    between atoms: C3_10  and  C4_11 
REMARK    4  A    between atoms: C4_11  and  C5_12 
REMARK    5  A    between atoms: C5_12  and  C6_13 
REMARK    6  A    between atoms: C6_13  and  N4_14 
REMARK    7  A    between atoms: N4_14  and  C7_16 
REMARK    8  A    between atoms: C7_16  and  C8_17 
REMARK    9  A    between atoms: C8_17  and  N5_18 
REMARK   10  A    between atoms: N7_26  and  C11_27 
REMARK   11  A    between atoms: C11_27  and  C12_28 
REMARK   12  A    between atoms: C13_31  and  N9_32 
REMARK   13  A    between atoms: N9_32  and  N10_33 
ROOT
HETATM    1  C1  UNL     1      -5.508  77.490  32.791  1.00  0.00     0.678 A 
HETATM    2  N2  UNL     1      -5.015  77.282  31.565  1.00  0.00    -0.175 N 
ATOM      3  H2  UNL     1      -5.667  77.268  30.782  1.00  0.00     0.186 HD
HETATM    4  C2  UNL     1      -3.710  77.090  31.306  1.00  0.00     0.146 A 
HETATM    5  N3  UNL     1      -3.242  76.888  30.123  1.00  0.00    -0.374 N 
ATOM      6  H3  UNL     1      -2.244  76.745  29.971  1.00  0.00     0.161 HD
HETATM    7  C9  UNL     1      -2.858  77.115  32.410  1.00  0.00     0.110 A 
HETATM    8  N6  UNL     1      -1.547  76.937  32.271  1.00  0.00    -0.347 N 
ATOM      9  H6  UNL     1      -1.159  76.778  31.342  1.00  0.00     0.167 HD
HETATM   10  C10 UNL     1      -0.725  76.965  33.333  1.00  0.00     0.186 A 
HETATM   11  N7  UNL     1      -1.175  77.169  34.579  1.00  0.00    -0.306 N 
HETATM   12  C13 UNL     1      -2.510  77.361  34.814  1.00  0.00     0.236 A 
HETATM   13  C14 UNL     1      -3.336  77.326  33.679  1.00  0.00     0.140 A 
HETATM   14  N11 UNL     1      -4.666  77.511  33.848  1.00  0.00    -0.185 N 
ATOM     15  H11 UNL     1      -5.037  77.668  34.785  1.00  0.00     0.184 HD
ENDROOT
BRANCH   5  16
HETATM   16  C3  UNL     1      -4.167  76.869  29.020  1.00  0.00     0.121 C 
BRANCH  16  17
HETATM   17  C4  UNL     1      -3.498  76.983  27.687  1.00  0.00     0.021 C 
BRANCH  17  18
HETATM   18  C5  UNL     1      -4.060  78.068  26.824  1.00  0.00     0.021 C 
BRANCH  18  19
HETATM   19  C6  UNL     1      -3.007  78.428  25.754  1.00  0.00     0.113 C 
BRANCH  19  20
HETATM   20  N4  UNL     1      -3.638  79.213  24.760  1.00  0.00    -0.420 N 
ATOM     21  H4  UNL     1      -3.248  79.262  23.819  1.00  0.00     0.153 HD
BRANCH  20  22
HETATM   22  C7  UNL     1      -4.816  79.931  25.083  1.00  0.00     0.141 C 
BRANCH  22  23
HETATM   23  C8  UNL     1      -5.228  81.035  24.163  1.00  0.00     0.248 C 
BRANCH  23  24
HETATM   24  N5  UNL     1      -4.229  81.428  23.234  1.00  0.00    -0.078 N 
ATOM     25  H53 UNL     1      -3.653  80.628  22.971  1.00  0.00     0.274 HD
ATOM     26  H52 UNL     1      -4.649  81.646  22.330  1.00  0.00     0.274 HD
ATOM     27  H51 UNL     1      -3.641  82.200  23.548  1.00  0.00     0.274 HD
ENDBRANCH  23  24
ENDBRANCH  22  23
ENDBRANCH  20  22
ENDBRANCH  19  20
ENDBRANCH  18  19
ENDBRANCH  17  18
ENDBRANCH  16  17
ENDBRANCH   5  16
BRANCH   1  28
HETATM   28  N1  UNL     1      -6.777  77.677  33.026  1.00  0.00    -0.234 N 
ATOM     29  H12 UNL     1      -7.083  78.626  33.242  1.00  0.00     0.174 HD
ATOM     30  H11 UNL     1      -7.466  76.924  33.003  1.00  0.00     0.174 HD
ENDBRANCH   1  28
BRANCH  12  31
HETATM   31  N9  UNL     1      -2.936  77.544  35.899  1.00  0.00    -0.312 NA
BRANCH  31  32
HETATM   32  N10 UNL     1      -3.453  77.550  37.089  1.00  0.00    -0.278 N 
ATOM     33 2H10 UNL     1      -3.432  76.530  37.050  1.00  0.00     0.191 HD
ATOM     34 1H10 UNL     1      -3.855  77.712  38.013  1.00  0.00     0.191 HD
ENDBRANCH  31  32
ENDBRANCH  12  31
BRANCH  11  35
HETATM   35  C11 UNL     1      -0.274  77.195  35.690  1.00  0.00     0.231 C 
BRANCH  35  36
HETATM   36  C12 UNL     1       0.722  78.277  35.585  1.00  0.00     0.249 C 
HETATM   37  N8  UNL     1       0.582  79.500  36.277  1.00  0.00    -0.061 NA
HETATM   38  O1  UNL     1       1.752  78.130  34.854  1.00  0.00    -0.275 OA
ENDBRANCH  35  36
ENDBRANCH  11  35
TORSDOF 13
ENDMDL
MODEL 2
REMARK VINA RESULT: -6.897882349      1.211      1.486
REMARK  13 active torsions:
REMARK  status: ('A' for Active; 'I' for Inactive)
REMARK    1  A    between atoms: N1_1  and  C1_4 
REMARK    2  A    between atoms: N3_8  and  C3_10 
REMARK    3  A    between atoms: C3_10  and  C4_11 
REMARK    4  A    between atoms: C4_11  and  C5_12 
REMARK    5  A    between atoms: C5_12  and  C6_13 
REMARK    6  A    between atoms: C6_13  and  N4_14 
REMARK    7  A    between atoms: N4_14  and  C7_16 
REMARK    8  A    between atoms: C7_16  and  C8_17 
REMARK    9  A    between atoms: C8_17  and  N5_18 
REMARK   10  A    between atoms: N7_26  and  C11_27 
REMARK   11  A    between atoms: C11_27  and  C12_28 
REMARK   12  A    between atoms: C13_31  and  N9_32 
REMARK   13  A    between atoms: N9_32  and  N10_33 
ROOT
HETATM    1  C1  UNL     1      -5.718  77.396  32.448  1.00  0.00     0.678 A 
HETATM    2  N2  UNL     1      -5.096  77.128  31.295  1.00  0.00    -0.175 N 
ATOM      3  H2  UNL     1      -5.650  77.132  30.439  1.00  0.00     0.186 HD
HETATM    4  C2  UNL     1      -3.784  76.855  31.199  1.00  0.00     0.146 A 
HETATM    5  N3  UNL     1      -3.191  76.596  30.084  1.00  0.00    -0.374 N 
ATOM      6  H3  UNL     1      -2.193  76.393  30.057  1.00  0.00     0.161 HD
HETATM    7  C9  UNL     1      -3.069  76.861  32.396  1.00  0.00     0.110 A 
HETATM    8  N6  UNL     1      -1.764  76.605  32.419  1.00  0.00    -0.347 N 
ATOM      9  H6  UNL     1      -1.279  76.399  31.546  1.00  0.00     0.167 HD
HETATM   10  C10 UNL     1      -1.074  76.613  33.572  1.00  0.00     0.186 A 
HETATM   11  N7  UNL     1      -1.657  76.875  34.750  1.00  0.00    -0.306 N 
HETATM   12  C13 UNL     1      -2.996  77.149  34.820  1.00  0.00     0.236 A 
HETATM   13  C14 UNL     1      -3.681  77.132  33.594  1.00  0.00     0.140 A 
HETATM   14  N11 UNL     1      -5.008  77.396  33.598  1.00  0.00    -0.185 N 
ATOM     15  H11 UNL     1      -5.478  77.599  34.480  1.00  0.00     0.184 HD
ENDROOT
BRANCH   5  16
HETATM   16  C3  UNL     1      -3.977  76.602  28.878  1.00  0.00     0.121 C 
BRANCH  16  17
HETATM   17  C4  UNL     1      -3.188  76.961  27.660  1.00  0.00     0.021 C 
BRANCH  17  18
HETATM   18  C5  UNL     1      -3.834  78.011  26.814  1.00  0.00     0.021 C 
BRANCH  18  19
HETATM   19  C6  UNL     1      -2.841  78.415  25.703  1.00  0.00     0.113 C 
BRANCH  19  20
HETATM   20  N4  UNL     1      -3.550  79.149  24.722  1.00  0.00    -0.420 N 
ATOM     21  H4  UNL     1      -3.223  79.167  23.756  1.00  0.00     0.153 HD
BRANCH  20  22
HETATM   22  C7  UNL     1      -4.719  79.858  25.093  1.00  0.00     0.141 C 
BRANCH  22  23
HETATM   23  C8  UNL     1      -5.251  80.869  24.127  1.00  0.00     0.248 C 
BRANCH  23  24
HETATM   24  N5  UNL     1      -4.281  81.390  23.230  1.00  0.00    -0.078 N 
ATOM     25  H53 UNL     1      -3.678  80.644  22.886  1.00  0.00     0.274 HD
ATOM     26  H52 UNL     1      -4.723  81.676  22.357  1.00  0.00     0.274 HD
ATOM     27  H51 UNL     1      -3.721  82.152  23.612  1.00  0.00     0.274 HD
ENDBRANCH  23  24
ENDBRANCH  22  23
ENDBRANCH  20  22
ENDBRANCH  19  20
ENDBRANCH  18  19
ENDBRANCH  17  18
ENDBRANCH  16  17
ENDBRANCH   5  16
BRANCH   1  28
HETATM   28  N1  UNL     1      -6.993  77.661  32.525  1.00  0.00    -0.234 N 
ATOM     29  H12 UNL     1      -7.557  77.520  31.686  1.00  0.00     0.174 HD
ATOM     30  H11 UNL     1      -7.442  77.999  33.377  1.00  0.00     0.174 HD
ENDBRANCH   1  28
BRANCH  12  31
HETATM   31  N9  UNL     1      -3.536  77.384  35.841  1.00  0.00    -0.312 NA
BRANCH  31  32
HETATM   32  N10 UNL     1      -4.076  77.456  37.020  1.00  0.00    -0.278 N 
ATOM     33 2H10 UNL     1      -3.627  76.563  37.226  1.00  0.00     0.191 HD
ATOM     34 1H10 UNL     1      -4.562  77.650  37.896  1.00  0.00     0.191 HD
ENDBRANCH  31  32
ENDBRANCH  12  31
BRANCH  11  35
HETATM   35  C11 UNL     1      -0.893  76.878  35.961  1.00  0.00     0.231 C 
BRANCH  35  36
HETATM   36  C12 UNL     1      -0.770  75.534  36.554  1.00  0.00     0.249 C 
HETATM   37  N8  UNL     1      -1.810  74.943  37.306  1.00  0.00    -0.061 NA
HETATM   38  O1  UNL     1       0.298  74.862  36.399  1.00  0.00    -0.275 OA
ENDBRANCH  35  36
ENDBRANCH  11  35
TORSDOF 13
ENDMDL
MODEL 3
REMARK VINA RESULT: -6.786602328      4.035     10.205
REMARK  13 active torsions:
REMARK  status: ('A' for Active; 'I' for Inactive)
REMARK    1  A    between atoms: N1_1  and  C1_4 
REMARK    2  A    between atoms: N3_8  and  C3_10 
REMARK    3  A    between atoms: C3_10  and  C4_11 
REMARK    4  A    between atoms: C4_11  and  C5_12 
REMARK    5  A    between atoms: C5_12  and  C6_13 
REMARK    6  A    between atoms: C6_13  and  N4_14 
REMARK    7  A    between atoms: N4_14  and  C7_16 
REMARK    8  A    between atoms: C7_16  and  C8_17 
REMARK    9  A    between atoms: C8_17  and  N5_18 
REMARK   10  A    between atoms: N7_26  and  C11_27 
REMARK   11  A    between atoms: C11_27  and  C12_28 
REMARK   12  A    between atoms: C13_31  and  N9_32 
REMARK   13  A    between atoms: N9_32  and  N10_33 
ROOT
HETATM    1  C1  UNL     1      -2.784  78.437  25.632  1.00  0.00     0.678 A 
HETATM    2  N2  UNL     1      -3.295  77.860  26.725  1.00  0.00    -0.175 N 
ATOM      3  H2  UNL     1      -2.709  77.202  27.238  1.00  0.00     0.186 HD
HETATM    4  C2  UNL     1      -4.535  78.098  27.187  1.00  0.00     0.146 A 
HETATM    5  N3  UNL     1      -5.020  77.536  28.240  1.00  0.00    -0.374 N 
ATOM      6  H3  UNL     1      -5.968  77.745  28.555  1.00  0.00     0.161 HD
HETATM    7  C9  UNL     1      -5.297  79.004  26.450  1.00  0.00     0.110 A 
HETATM    8  N6  UNL     1      -6.538  79.315  26.816  1.00  0.00    -0.347 N 
ATOM      9  H6  UNL     1      -6.938  78.881  27.648  1.00  0.00     0.167 HD
HETATM   10  C10 UNL     1      -7.273  80.189  26.110  1.00  0.00     0.186 A 
HETATM   11  N7  UNL     1      -6.802  80.790  25.008  1.00  0.00    -0.306 N 
HETATM   12  C13 UNL     1      -5.536  80.530  24.559  1.00  0.00     0.236 A 
HETATM   13  C14 UNL     1      -4.800  79.611  25.325  1.00  0.00     0.140 A 
HETATM   14  N11 UNL     1      -3.540  79.313  24.932  1.00  0.00    -0.185 N 
ATOM     15  H11 UNL     1      -3.155  79.754  24.097  1.00  0.00     0.184 HD
ENDROOT
BRANCH   5  16
HETATM   16  C3  UNL     1      -4.190  76.607  28.960  1.00  0.00     0.121 C 
BRANCH  16  17
HETATM   17  C4  UNL     1      -3.854  77.066  30.344  1.00  0.00     0.021 C 
BRANCH  17  18
HETATM   18  C5  UNL     1      -4.397  76.180  31.419  1.00  0.00     0.021 C 
BRANCH  18  19
HETATM   19  C6  UNL     1      -3.600  74.858  31.404  1.00  0.00     0.113 C 
BRANCH  19  20
HETATM   20  N4  UNL     1      -2.353  75.087  32.032  1.00  0.00    -0.420 N 
ATOM     21  H4  UNL     1      -1.484  74.944  31.518  1.00  0.00     0.153 HD
BRANCH  20  22
HETATM   22  C7  UNL     1      -2.321  75.518  33.382  1.00  0.00     0.141 C 
BRANCH  22  23
HETATM   23  C8  UNL     1      -1.508  76.732  33.702  1.00  0.00     0.248 C 
BRANCH  23  24
HETATM   24  N5  UNL     1      -0.893  77.340  32.576  1.00  0.00    -0.078 N 
ATOM     25  H53 UNL     1      -0.715  76.646  31.850  1.00  0.00     0.274 HD
ATOM     26  H52 UNL     1      -1.559  77.937  32.087  1.00  0.00     0.274 HD
ATOM     27  H51 UNL     1      -0.041  77.858  32.790  1.00  0.00     0.274 HD
ENDBRANCH  23  24
ENDBRANCH  22  23
ENDBRANCH  20  22
ENDBRANCH  19  20
ENDBRANCH  18  19
ENDBRANCH  17  18
ENDBRANCH  16  17
ENDBRANCH   5  16
BRANCH   1  28
HETATM   28  N1  UNL     1      -1.578  78.198  25.197  1.00  0.00    -0.234 N 
ATOM     29  H12 UNL     1      -1.426  77.335  24.674  1.00  0.00     0.174 HD
ATOM     30  H11 UNL     1      -0.792  78.829  25.357  1.00  0.00     0.174 HD
ENDBRANCH   1  28
BRANCH  12  31
HETATM   31  N9  UNL     1      -5.094  81.043  23.594  1.00  0.00    -0.312 NA
BRANCH  31  32
HETATM   32  N10 UNL     1      -4.651  81.435  22.438  1.00  0.00    -0.278 N 
ATOM     33 2H10 UNL     1      -3.903  80.750  22.548  1.00  0.00     0.191 HD
ATOM     34 1H10 UNL     1      -4.426  81.844  21.531  1.00  0.00     0.191 HD
ENDBRANCH  31  32
ENDBRANCH  12  31
BRANCH  11  35
HETATM   35  C11 UNL     1      -7.609  81.720  24.278  1.00  0.00     0.231 C 
BRANCH  35  36
HETATM   36  C12 UNL     1      -8.354  81.080  23.179  1.00  0.00     0.249 C 
HETATM   37  N8  UNL     1      -7.970  81.216  21.826  1.00  0.00    -0.061 NA
HETATM   38  O1  UNL     1      -9.382  80.374  23.428  1.00  0.00    -0.275 OA
ENDBRANCH  35  36
ENDBRANCH  11  35
TORSDOF 13
ENDMDL
MODEL 4
REMARK VINA RESULT: -6.714745326      6.704     10.480
REMARK  13 active torsions:
REMARK  status: ('A' for Active; 'I' for Inactive)
REMARK    1  A    between atoms: N1_1  and  C1_4 
REMARK    2  A    between atoms: N3_8  and  C3_10 
REMARK    3  A    between atoms: C3_10  and  C4_11 
REMARK    4  A    between atoms: C4_11  and  C5_12 
REMARK    5  A    between atoms: C5_12  and  C6_13 
REMARK    6  A    between atoms: C6_13  and  N4_14 
REMARK    7  A    between atoms: N4_14  and  C7_16 
REMARK    8  A    between atoms: C7_16  and  C8_17 
REMARK    9  A    between atoms: C8_17  and  N5_18 
REMARK   10  A    between atoms: N7_26  and  C11_27 
REMARK   11  A    between atoms: C11_27  and  C12_28 
REMARK   12  A    between atoms: C13_31  and  N9_32 
REMARK   13  A    between atoms: N9_32  and  N10_33 
ROOT
HETATM    1  C1  UNL     1      -3.326  81.306  38.578  1.00  0.00     0.678 A 
HETATM    2  N2  UNL     1      -2.188  81.987  38.407  1.00  0.00    -0.175 N 
ATOM      3  H2  UNL     1      -2.124  82.923  38.808  1.00  0.00     0.186 HD
HETATM    4  C2  UNL     1      -1.124  81.511  37.738  1.00  0.00     0.146 A 
HETATM    5  N3  UNL     1      -0.031  82.174  37.576  1.00  0.00    -0.374 N 
ATOM      6  H3  UNL     1       0.752  81.775  37.059  1.00  0.00     0.161 HD
HETATM    7  C9  UNL     1      -1.260  80.228  37.207  1.00  0.00     0.110 A 
HETATM    8  N6  UNL     1      -0.270  79.657  36.527  1.00  0.00    -0.347 N 
ATOM      9  H6  UNL     1       0.602  80.167  36.390  1.00  0.00     0.167 HD
HETATM   10  C10 UNL     1      -0.399  78.421  36.018  1.00  0.00     0.186 A 
HETATM   11  N7  UNL     1      -1.520  77.702  36.164  1.00  0.00    -0.306 N 
HETATM   12  C13 UNL     1      -2.590  78.212  36.850  1.00  0.00     0.236 A 
HETATM   13  C14 UNL     1      -2.416  79.506  37.367  1.00  0.00     0.140 A 
HETATM   14  N11 UNL     1      -3.438  80.063  38.056  1.00  0.00    -0.185 N 
ATOM     15  H11 UNL     1      -4.304  79.540  38.183  1.00  0.00     0.184 HD
ENDROOT
BRANCH   5  16
HETATM   16  C3  UNL     1       0.054  83.495  38.142  1.00  0.00     0.121 C 
BRANCH  16  17
HETATM   17  C4  UNL     1       1.460  83.950  38.368  1.00  0.00     0.021 C 
BRANCH  17  18
HETATM   18  C5  UNL     1       1.750  84.327  39.786  1.00  0.00     0.021 C 
BRANCH  18  19
HETATM   19  C6  UNL     1       2.826  85.433  39.782  1.00  0.00     0.113 C 
BRANCH  19  20
HETATM   20  N4  UNL     1       3.835  85.064  38.861  1.00  0.00    -0.420 N 
ATOM     21  H4  UNL     1       3.598  84.871  37.888  1.00  0.00     0.153 HD
BRANCH  20  22
HETATM   22  C7  UNL     1       5.178  84.963  39.302  1.00  0.00     0.141 C 
BRANCH  22  23
HETATM   23  C8  UNL     1       5.475  83.989  40.399  1.00  0.00     0.248 C 
BRANCH  23  24
HETATM   24  N5  UNL     1       6.069  84.567  41.551  1.00  0.00    -0.078 N 
ATOM     25  H53 UNL     1       7.041  84.815  41.364  1.00  0.00     0.274 HD
ATOM     26  H52 UNL     1       5.683  85.495  41.724  1.00  0.00     0.274 HD
ATOM     27  H51 UNL     1       6.005  83.993  42.391  1.00  0.00     0.274 HD
ENDBRANCH  23  24
ENDBRANCH  22  23
ENDBRANCH  20  22
ENDBRANCH  19  20
ENDBRANCH  18  19
ENDBRANCH  17  18
ENDBRANCH  16  17
ENDBRANCH   5  16
BRANCH   1  28
HETATM   28  N1  UNL     1      -4.350  81.781  39.232  1.00  0.00    -0.234 N 
ATOM     29  H12 UNL     1      -4.183  82.147  40.170  1.00  0.00     0.174 HD
ATOM     30  H11 UNL     1      -5.295  81.800  38.850  1.00  0.00     0.174 HD
ENDBRANCH   1  28
BRANCH  12  31
HETATM   31  N9  UNL     1      -3.589  77.604  36.996  1.00  0.00    -0.312 NA
BRANCH  31  32
HETATM   32  N10 UNL     1      -4.582  76.815  37.277  1.00  0.00    -0.278 N 
ATOM     33 2H10 UNL     1      -5.165  77.651  37.332  1.00  0.00     0.191 HD
ATOM     34 1H10 UNL     1      -5.256  76.078  37.485  1.00  0.00     0.191 HD
ENDBRANCH  31  32
ENDBRANCH  12  31
BRANCH  11  35
HETATM   35  C11 UNL     1      -1.626  76.387  35.612  1.00  0.00     0.231 C 
BRANCH  35  36
HETATM   36  C12 UNL     1      -1.144  75.344  36.536  1.00  0.00     0.249 C 
HETATM   37  N8  UNL     1       0.209  74.941  36.579  1.00  0.00    -0.061 NA
HETATM   38  O1  UNL     1      -1.952  74.773  37.334  1.00  0.00    -0.275 OA
ENDBRANCH  35  36
ENDBRANCH  11  35
TORSDOF 13
ENDMDL
MODEL 5
REMARK VINA RESULT: -6.596433815      3.246      8.493
REMARK  13 active torsions:
REMARK  status: ('A' for Active; 'I' for Inactive)
REMARK    1  A    between atoms: N1_1  and  C1_4 
REMARK    2  A    between atoms: N3_8  and  C3_10 
REMARK    3  A    between atoms: C3_10  and  C4_11 
REMARK    4  A    between atoms: C4_11  and  C5_12 
REMARK    5  A    between atoms: C5_12  and  C6_13 
REMARK    6  A    between atoms: C6_13  and  N4_14 
REMARK    7  A    between atoms: N4_14  and  C7_16 
REMARK    8  A    between atoms: C7_16  and  C8_17 
REMARK    9  A    between atoms: C8_17  and  N5_18 
REMARK   10  A    between atoms: N7_26  and  C11_27 
REMARK   11  A    between atoms: C11_27  and  C12_28 
REMARK   12  A    between atoms: C13_31  and  N9_32 
REMARK   13  A    between atoms: N9_32  and  N10_33 
ROOT
HETATM    1  C1  UNL     1      -1.614  75.943  35.458  1.00  0.00     0.678 A 
HETATM    2  N2  UNL     1      -2.285  76.998  35.930  1.00  0.00    -0.175 N 
ATOM      3  H2  UNL     1      -2.071  77.320  36.874  1.00  0.00     0.186 HD
HETATM    4  C2  UNL     1      -3.226  77.660  35.234  1.00  0.00     0.146 A 
HETATM    5  N3  UNL     1      -3.870  78.675  35.697  1.00  0.00    -0.374 N 
ATOM      6  H3  UNL     1      -4.578  79.147  35.134  1.00  0.00     0.161 HD
HETATM    7  C9  UNL     1      -3.484  77.181  33.950  1.00  0.00     0.110 A 
HETATM    8  N6  UNL     1      -4.395  77.759  33.171  1.00  0.00    -0.347 N 
ATOM      9  H6  UNL     1      -4.913  78.565  33.520  1.00  0.00     0.167 HD
HETATM   10  C10 UNL     1      -4.643  77.301  31.933  1.00  0.00     0.186 A 
HETATM   11  N7  UNL     1      -3.995  76.247  31.419  1.00  0.00    -0.306 N 
HETATM   12  C13 UNL     1      -3.042  75.591  32.151  1.00  0.00     0.236 A 
HETATM   13  C14 UNL     1      -2.811  76.100  33.439  1.00  0.00     0.140 A 
HETATM   14  N11 UNL     1      -1.879  75.494  34.210  1.00  0.00    -0.185 N 
ATOM     15  H11 UNL     1      -1.370  74.689  33.846  1.00  0.00     0.184 HD
ENDROOT
BRANCH   5  16
HETATM   16  C3  UNL     1      -3.565  79.125  37.029  1.00  0.00     0.121 C 
BRANCH  16  17
HETATM   17  C4  UNL     1      -4.076  80.500  37.319  1.00  0.00     0.021 C 
BRANCH  17  18
HETATM   18  C5  UNL     1      -3.153  81.319  38.164  1.00  0.00     0.021 C 
BRANCH  18  19
HETATM   19  C6  UNL     1      -1.744  80.692  38.086  1.00  0.00     0.113 C 
BRANCH  19  20
HETATM   20  N4  UNL     1      -0.872  81.636  37.493  1.00  0.00    -0.420 N 
ATOM     21  H4  UNL     1      -0.251  81.357  36.735  1.00  0.00     0.153 HD
BRANCH  20  22
HETATM   22  C7  UNL     1      -0.871  82.973  37.963  1.00  0.00     0.141 C 
BRANCH  22  23
HETATM   23  C8  UNL     1       0.450  83.668  38.066  1.00  0.00     0.248 C 
BRANCH  23  24
HETATM   24  N5  UNL     1       1.464  83.129  37.231  1.00  0.00    -0.078 N 
ATOM     25  H53 UNL     1       1.750  83.815  36.532  1.00  0.00     0.274 HD
ATOM     26  H52 UNL     1       2.337  83.032  37.749  1.00  0.00     0.274 HD
ATOM     27  H51 UNL     1       1.216  82.248  36.783  1.00  0.00     0.274 HD
ENDBRANCH  23  24
ENDBRANCH  22  23
ENDBRANCH  20  22
ENDBRANCH  19  20
ENDBRANCH  18  19
ENDBRANCH  17  18
ENDBRANCH  16  17
ENDBRANCH   5  16
BRANCH   1  28
HETATM   28  N1  UNL     1      -0.702  75.312  36.145  1.00  0.00    -0.234 N 
ATOM     29  H12 UNL     1      -0.995  74.496  36.682  1.00  0.00     0.174 HD
ATOM     30  H11 UNL     1       0.277  75.598  36.166  1.00  0.00     0.174 HD
ENDBRANCH   1  28
BRANCH  12  31
HETATM   31  N9  UNL     1      -2.455  74.661  31.726  1.00  0.00    -0.312 NA
BRANCH  31  32
HETATM   32  N10 UNL     1      -1.968  73.610  31.138  1.00  0.00    -0.278 N 
ATOM     33 2H10 UNL     1      -2.923  73.385  30.860  1.00  0.00     0.191 HD
ATOM     34 1H10 UNL     1      -1.445  72.836  30.728  1.00  0.00     0.191 HD
ENDBRANCH  31  32
ENDBRANCH  12  31
BRANCH  11  35
HETATM   35  C11 UNL     1      -4.280  75.784  30.096  1.00  0.00     0.231 C 
BRANCH  35  36
HETATM   36  C12 UNL     1      -3.800  76.712  29.056  1.00  0.00     0.249 C 
HETATM   37  N8  UNL     1      -4.601  77.761  28.551  1.00  0.00    -0.061 NA
HETATM   38  O1  UNL     1      -2.627  76.588  28.580  1.00  0.00    -0.275 OA
ENDBRANCH  35  36
ENDBRANCH  11  35
TORSDOF 13
ENDMDL
