MODEL 1
REMARK VINA RESULT: -7.556035725      0.000      0.000
REMARK  11 active torsions:
REMARK  status: ('A' for Active; 'I' for Inactive)
REMARK    1  A    between atoms: C2_2  and  C3_3 
REMARK    2  A    between atoms: C3_3  and  C4_4 
REMARK    3  A    between atoms: C4_4  and  N1_5 
REMARK    4  A    between atoms: N1_5  and  C5_7 
REMARK    5  A    between atoms: C5_7  and  C6_8 
REMARK    6  A    between atoms: C6_8  and  C7_9 
REMARK    7  A    between atoms: C7_9  and  N2_10 
REMARK    8  A    between atoms: C9_15  and  N4_16 
REMARK    9  A    between atoms: N4_16  and  C10_18 
REMARK   10  A    between atoms: C10_18  and  C11_19 
REMARK   11  A    between atoms: C14_34  and  N10_35 
ROOT
HETATM    1  N2  UNL     1       0.591  83.289  38.196  1.00  0.00    -0.205 N 
ATOM      2  H2  UNL     1       1.212  82.500  38.021  1.00  0.00     0.183 HD
HETATM    3  C8  UNL     1      -0.581  82.945  37.992  1.00  0.00     0.698 C 
HETATM    4  N3  UNL     1      -0.803  81.651  37.595  1.00  0.00    -0.022 N 
ATOM      5  H3  UNL     1      -0.010  81.211  37.127  1.00  0.00     0.203 HD
HETATM    6  C9  UNL     1      -1.892  80.858  37.717  1.00  0.00     0.694 C 
HETATM    7  N8  UNL     1      -3.105  81.180  38.228  1.00  0.00    -0.173 N 
ATOM      8  H8  UNL     1      -3.852  80.494  38.123  1.00  0.00     0.186 HD
HETATM    9  C13 UNL     1      -3.415  82.350  38.875  1.00  0.00     0.159 C 
HETATM   10  N9  UNL     1      -4.369  82.251  39.742  1.00  0.00    -0.382 N 
ATOM     11  H91 UNL     1      -4.599  83.120  40.223  1.00  0.00     0.157 HD
ATOM     12  H92 UNL     1      -4.808  81.340  39.877  1.00  0.00     0.157 HD
HETATM   13  C14 UNL     1      -2.823  83.578  38.693  1.00  0.00     0.159 C 
HETATM   14  N11 UNL     1      -1.599  83.811  38.154  1.00  0.00    -0.173 N 
ATOM     15  H11 UNL     1      -1.430  84.763  37.830  1.00  0.00     0.186 HD
ENDROOT
BRANCH   6  16
HETATM   16  N4  UNL     1      -1.780  79.647  37.307  1.00  0.00    -0.218 N 
ATOM     17  H4  UNL     1      -0.828  79.316  37.145  1.00  0.00     0.178 HD
BRANCH  16  18
HETATM   18  C10 UNL     1      -2.813  78.715  37.053  1.00  0.00     0.216 C 
BRANCH  18  19
HETATM   19  C11 UNL     1      -2.349  77.291  37.043  1.00  0.00     0.118 A 
HETATM   20  N5  UNL     1      -3.169  76.232  37.007  1.00  0.00    -0.283 N 
HETATM   21  N6  UNL     1      -2.428  75.137  37.014  1.00  0.00    -0.250 N 
ATOM     22  H5  UNL     1      -4.188  76.265  36.980  1.00  0.00     0.188 HD
HETATM   23  C12 UNL     1      -1.128  75.476  37.054  1.00  0.00     0.340 A 
ATOM     24  H6  UNL     1      -2.787  74.182  36.992  1.00  0.00     0.192 HD
HETATM   25  O1  UNL     1      -0.122  74.687  37.071  1.00  0.00    -0.245 OA
HETATM   26  N7  UNL     1      -1.103  76.818  37.072  1.00  0.00    -0.294 N 
ATOM     27  H7  UNL     1      -0.259  77.389  37.103  1.00  0.00     0.172 HD
ENDBRANCH  18  19
ENDBRANCH  16  18
ENDBRANCH   6  16
BRANCH   1  28
HETATM   28  C7  UNL     1       1.341  84.385  38.582  1.00  0.00     0.080 C 
BRANCH  28  29
HETATM   29  C6  UNL     1       1.953  84.407  39.941  1.00  0.00     0.065 C 
BRANCH  29  30
HETATM   30  C5  UNL     1       3.161  85.387  39.977  1.00  0.00     0.124 C 
BRANCH  30  31
HETATM   31  N1  UNL     1       4.081  85.013  40.950  1.00  0.00    -0.402 N 
ATOM     32  H1  UNL     1       3.790  85.129  41.921  1.00  0.00     0.158 HD
BRANCH  31  33
HETATM   33  C4  UNL     1       5.341  84.504  40.741  1.00  0.00     0.055 C 
BRANCH  33  34
HETATM   34  C3  UNL     1       5.532  83.219  40.037  1.00  0.00     0.044 C 
BRANCH  34  35
HETATM   35  C2  UNL     1       6.562  83.166  38.972  1.00  0.00     0.001 C 
HETATM   36  C1  UNL     1       5.850  82.903  37.626  1.00  0.00     0.005 C 
ENDBRANCH  34  35
ENDBRANCH  33  34
ENDBRANCH  31  33
ENDBRANCH  30  31
ENDBRANCH  29  30
ENDBRANCH  28  29
ENDBRANCH   1  28
BRANCH  13  37
HETATM   37  N10 UNL     1      -3.526  84.585  39.080  1.00  0.00    -0.382 N 
ATOM     38 2H10 UNL     1      -3.218  85.522  38.819  1.00  0.00     0.157 HD
ATOM     39 1H10 UNL     1      -4.354  84.349  39.627  1.00  0.00     0.157 HD
ENDBRANCH  13  37
TORSDOF 11
ENDMDL
MODEL 2
REMARK VINA RESULT: -7.311757600      4.652      7.459
REMARK  11 active torsions:
REMARK  status: ('A' for Active; 'I' for Inactive)
REMARK    1  A    between atoms: C2_2  and  C3_3 
REMARK    2  A    between atoms: C3_3  and  C4_4 
REMARK    3  A    between atoms: C4_4  and  N1_5 
REMARK    4  A    between atoms: N1_5  and  C5_7 
REMARK    5  A    between atoms: C5_7  and  C6_8 
REMARK    6  A    between atoms: C6_8  and  C7_9 
REMARK    7  A    between atoms: C7_9  and  N2_10 
REMARK    8  A    between atoms: C9_15  and  N4_16 
REMARK    9  A    between atoms: N4_16  and  C10_18 
REMARK   10  A    between atoms: C10_18  and  C11_19 
REMARK   11  A    between atoms: C14_34  and  N10_35 
ROOT
HETATM    1  N2  UNL     1      -4.012  77.973  36.486  1.00  0.00    -0.205 N 
ATOM      2  H2  UNL     1      -4.921  77.742  36.086  1.00  0.00     0.183 HD
HETATM    3  C8  UNL     1      -3.122  77.397  35.845  1.00  0.00     0.698 C 
HETATM    4  N3  UNL     1      -3.508  76.612  34.788  1.00  0.00    -0.022 N 
ATOM      5  H3  UNL     1      -4.459  76.251  34.855  1.00  0.00     0.203 HD
HETATM    6  C9  UNL     1      -2.843  76.235  33.672  1.00  0.00     0.694 C 
HETATM    7  N8  UNL     1      -1.556  76.499  33.338  1.00  0.00    -0.173 N 
ATOM      8  H8  UNL     1      -1.181  76.025  32.517  1.00  0.00     0.186 HD
HETATM    9  C13 UNL     1      -0.715  77.350  34.011  1.00  0.00     0.159 C 
HETATM   10  N9  UNL     1       0.203  77.891  33.278  1.00  0.00    -0.382 N 
ATOM     11  H91 UNL     1       0.828  78.523  33.777  1.00  0.00     0.157 HD
ATOM     12  H92 UNL     1       0.234  77.653  32.286  1.00  0.00     0.157 HD
HETATM   13  C14 UNL     1      -0.757  77.671  35.347  1.00  0.00     0.159 C 
HETATM   14  N11 UNL     1      -1.824  77.538  36.174  1.00  0.00    -0.173 N 
ATOM     15  H11 UNL     1      -1.617  77.546  37.173  1.00  0.00     0.186 HD
ENDROOT
BRANCH   6  16
HETATM   16  N4  UNL     1      -3.496  75.544  32.810  1.00  0.00    -0.218 N 
ATOM     17  H4  UNL     1      -3.276  74.548  32.776  1.00  0.00     0.178 HD
BRANCH  16  18
HETATM   18  C10 UNL     1      -4.484  75.993  31.902  1.00  0.00     0.216 C 
BRANCH  18  19
HETATM   19  C11 UNL     1      -4.027  76.006  30.476  1.00  0.00     0.118 A 
HETATM   20  N5  UNL     1      -3.277  75.046  29.917  1.00  0.00    -0.283 N 
HETATM   21  N6  UNL     1      -3.056  75.378  28.657  1.00  0.00    -0.250 N 
ATOM     22  H5  UNL     1      -2.937  74.205  30.384  1.00  0.00     0.188 HD
HETATM   23  C12 UNL     1      -3.657  76.550  28.390  1.00  0.00     0.340 A 
ATOM     24  H6  UNL     1      -2.513  74.829  27.989  1.00  0.00     0.192 HD
HETATM   25  O1  UNL     1      -3.664  77.182  27.278  1.00  0.00    -0.245 OA
HETATM   26  N7  UNL     1      -4.253  76.921  29.534  1.00  0.00    -0.294 N 
ATOM     27  H7  UNL     1      -4.797  77.774  29.662  1.00  0.00     0.172 HD
ENDBRANCH  18  19
ENDBRANCH  16  18
ENDBRANCH   6  16
BRANCH   1  28
HETATM   28  C7  UNL     1      -4.187  78.823  37.563  1.00  0.00     0.080 C 
BRANCH  28  29
HETATM   29  C6  UNL     1      -4.199  80.295  37.335  1.00  0.00     0.065 C 
BRANCH  29  30
HETATM   30  C5  UNL     1      -3.120  80.990  38.213  1.00  0.00     0.124 C 
BRANCH  30  31
HETATM   31  N1  UNL     1      -1.843  80.556  37.873  1.00  0.00    -0.402 N 
ATOM     32  H1  UNL     1      -1.655  79.559  37.985  1.00  0.00     0.158 HD
BRANCH  31  33
HETATM   33  C4  UNL     1      -0.807  81.328  37.403  1.00  0.00     0.055 C 
BRANCH  33  34
HETATM   34  C3  UNL     1      -0.621  82.716  37.876  1.00  0.00     0.044 C 
BRANCH  34  35
HETATM   35  C2  UNL     1       0.739  83.298  37.778  1.00  0.00     0.001 C 
HETATM   36  C1  UNL     1       0.859  84.421  38.834  1.00  0.00     0.005 C 
ENDBRANCH  34  35
ENDBRANCH  33  34
ENDBRANCH  31  33
ENDBRANCH  30  31
ENDBRANCH  29  30
ENDBRANCH  28  29
ENDBRANCH   1  28
BRANCH  13  37
HETATM   37  N10 UNL     1       0.341  78.137  35.831  1.00  0.00    -0.382 N 
ATOM     38 2H10 UNL     1       1.218  77.685  35.572  1.00  0.00     0.157 HD
ATOM     39 1H10 UNL     1       0.234  78.943  36.447  1.00  0.00     0.157 HD
ENDBRANCH  13  37
TORSDOF 11
ENDMDL
MODEL 3
REMARK VINA RESULT: -7.311268645      4.894      7.926
REMARK  11 active torsions:
REMARK  status: ('A' for Active; 'I' for Inactive)
REMARK    1  A    between atoms: C2_2  and  C3_3 
REMARK    2  A    between atoms: C3_3  and  C4_4 
REMARK    3  A    between atoms: C4_4  and  N1_5 
REMARK    4  A    between atoms: N1_5  and  C5_7 
REMARK    5  A    between atoms: C5_7  and  C6_8 
REMARK    6  A    between atoms: C6_8  and  C7_9 
REMARK    7  A    between atoms: C7_9  and  N2_10 
REMARK    8  A    between atoms: C9_15  and  N4_16 
REMARK    9  A    between atoms: N4_16  and  C10_18 
REMARK   10  A    between atoms: C10_18  and  C11_19 
REMARK   11  A    between atoms: C14_34  and  N10_35 
ROOT
HETATM    1  N2  UNL     1      -3.450  76.553  36.397  1.00  0.00    -0.205 N 
ATOM      2  H2  UNL     1      -4.283  76.254  35.891  1.00  0.00     0.183 HD
HETATM    3  C8  UNL     1      -2.466  76.484  35.647  1.00  0.00     0.698 C 
HETATM    4  N3  UNL     1      -2.676  76.047  34.364  1.00  0.00    -0.022 N 
ATOM      5  H3  UNL     1      -3.499  75.456  34.248  1.00  0.00     0.203 HD
HETATM    6  C9  UNL     1      -1.978  76.264  33.226  1.00  0.00     0.694 C 
HETATM    7  N8  UNL     1      -0.816  76.946  33.077  1.00  0.00    -0.173 N 
ATOM      8  H8  UNL     1      -0.362  76.900  32.165  1.00  0.00     0.186 HD
HETATM    9  C13 UNL     1      -0.198  77.693  34.049  1.00  0.00     0.159 C 
HETATM   10  N9  UNL     1       0.522  78.670  33.602  1.00  0.00    -0.382 N 
ATOM     11  H91 UNL     1       0.981  79.225  34.323  1.00  0.00     0.157 HD
ATOM     12  H92 UNL     1       0.576  78.809  32.592  1.00  0.00     0.157 HD
HETATM   13  C14 UNL     1      -0.271  77.506  35.409  1.00  0.00     0.159 C 
HETATM   14  N11 UNL     1      -1.237  76.826  36.078  1.00  0.00    -0.173 N 
ATOM     15  H11 UNL     1      -1.002  76.538  37.027  1.00  0.00     0.186 HD
ENDROOT
BRANCH   6  16
HETATM   16  N4  UNL     1      -2.462  75.776  32.143  1.00  0.00    -0.218 N 
ATOM     17  H4  UNL     1      -1.847  75.153  31.619  1.00  0.00     0.178 HD
BRANCH  16  18
HETATM   18  C10 UNL     1      -3.744  75.994  31.586  1.00  0.00     0.216 C 
BRANCH  18  19
HETATM   19  C11 UNL     1      -3.745  76.065  30.090  1.00  0.00     0.118 A 
HETATM   20  N5  UNL     1      -3.145  75.169  29.294  1.00  0.00    -0.283 N 
HETATM   21  N6  UNL     1      -3.338  75.539  28.039  1.00  0.00    -0.250 N 
ATOM     22  H5  UNL     1      -2.628  74.346  29.603  1.00  0.00     0.188 HD
HETATM   23  C12 UNL     1      -4.062  76.671  28.012  1.00  0.00     0.340 A 
ATOM     24  H6  UNL     1      -2.993  75.041  27.218  1.00  0.00     0.192 HD
HETATM   25  O1  UNL     1      -4.445  77.321  26.980  1.00  0.00    -0.245 OA
HETATM   26  N7  UNL     1      -4.303  76.979  29.296  1.00  0.00    -0.294 N 
ATOM     27  H7  UNL     1      -4.832  77.790  29.616  1.00  0.00     0.172 HD
ENDBRANCH  18  19
ENDBRANCH  16  18
ENDBRANCH   6  16
BRANCH   1  28
HETATM   28  C7  UNL     1      -3.798  76.900  37.690  1.00  0.00     0.080 C 
BRANCH  28  29
HETATM   29  C6  UNL     1      -3.880  78.341  38.061  1.00  0.00     0.065 C 
BRANCH  29  30
HETATM   30  C5  UNL     1      -2.553  78.808  38.724  1.00  0.00     0.124 C 
BRANCH  30  31
HETATM   31  N1  UNL     1      -1.902  79.749  37.934  1.00  0.00    -0.402 N 
ATOM     32  H1  UNL     1      -1.351  79.388  37.154  1.00  0.00     0.158 HD
BRANCH  31  33
HETATM   33  C4  UNL     1      -1.922  81.115  38.093  1.00  0.00     0.055 C 
BRANCH  33  34
HETATM   34  C3  UNL     1      -0.764  81.942  37.692  1.00  0.00     0.044 C 
BRANCH  34  35
HETATM   35  C2  UNL     1      -0.834  83.397  37.964  1.00  0.00     0.001 C 
HETATM   36  C1  UNL     1       0.611  83.946  38.023  1.00  0.00     0.005 C 
ENDBRANCH  34  35
ENDBRANCH  33  34
ENDBRANCH  31  33
ENDBRANCH  30  31
ENDBRANCH  29  30
ENDBRANCH  28  29
ENDBRANCH   1  28
BRANCH  13  37
HETATM   37  N10 UNL     1       0.686  78.037  36.085  1.00  0.00    -0.382 N 
ATOM     38 2H10 UNL     1       1.552  77.510  36.198  1.00  0.00     0.157 HD
ATOM     39 1H10 UNL     1       0.489  78.966  36.458  1.00  0.00     0.157 HD
ENDBRANCH  13  37
TORSDOF 11
ENDMDL
MODEL 4
REMARK VINA RESULT: -7.288817327      4.924      8.267
REMARK  11 active torsions:
REMARK  status: ('A' for Active; 'I' for Inactive)
REMARK    1  A    between atoms: C2_2  and  C3_3 
REMARK    2  A    between atoms: C3_3  and  C4_4 
REMARK    3  A    between atoms: C4_4  and  N1_5 
REMARK    4  A    between atoms: N1_5  and  C5_7 
REMARK    5  A    between atoms: C5_7  and  C6_8 
REMARK    6  A    between atoms: C6_8  and  C7_9 
REMARK    7  A    between atoms: C7_9  and  N2_10 
REMARK    8  A    between atoms: C9_15  and  N4_16 
REMARK    9  A    between atoms: N4_16  and  C10_18 
REMARK   10  A    between atoms: C10_18  and  C11_19 
REMARK   11  A    between atoms: C14_34  and  N10_35 
ROOT
HETATM    1  N2  UNL     1      -4.086  76.923  35.825  1.00  0.00    -0.205 N 
ATOM      2  H2  UNL     1      -4.823  76.578  35.210  1.00  0.00     0.183 HD
HETATM    3  C8  UNL     1      -2.983  76.714  35.302  1.00  0.00     0.698 C 
HETATM    4  N3  UNL     1      -2.968  76.099  34.076  1.00  0.00    -0.022 N 
ATOM      5  H3  UNL     1      -3.787  75.523  33.882  1.00  0.00     0.203 HD
HETATM    6  C9  UNL     1      -2.053  76.125  33.080  1.00  0.00     0.694 C 
HETATM    7  N8  UNL     1      -0.846  76.742  33.071  1.00  0.00    -0.173 N 
ATOM      8  H8  UNL     1      -0.229  76.548  32.282  1.00  0.00     0.186 HD
HETATM    9  C13 UNL     1      -0.383  77.605  34.033  1.00  0.00     0.159 C 
HETATM   10  N9  UNL     1       0.465  78.483  33.606  1.00  0.00    -0.382 N 
ATOM     11  H91 UNL     1       0.809  79.124  34.321  1.00  0.00     0.157 HD
ATOM     12  H92 UNL     1       0.720  78.469  32.618  1.00  0.00     0.157 HD
HETATM   13  C14 UNL     1      -0.727  77.623  35.364  1.00  0.00     0.159 C 
HETATM   14  N11 UNL     1      -1.841  77.079  35.916  1.00  0.00    -0.173 N 
ATOM     15  H11 UNL     1      -1.810  76.926  36.924  1.00  0.00     0.186 HD
ENDROOT
BRANCH   6  16
HETATM   16  N4  UNL     1      -2.349  75.497  32.000  1.00  0.00    -0.218 N 
ATOM     17  H4  UNL     1      -1.568  75.060  31.509  1.00  0.00     0.178 HD
BRANCH  16  18
HETATM   18  C10 UNL     1      -3.623  75.337  31.407  1.00  0.00     0.216 C 
BRANCH  18  19
HETATM   19  C11 UNL     1      -3.757  76.016  30.078  1.00  0.00     0.118 A 
HETATM   20  N5  UNL     1      -3.472  75.434  28.905  1.00  0.00    -0.283 N 
HETATM   21  N6  UNL     1      -3.696  76.315  27.945  1.00  0.00    -0.250 N 
ATOM     22  H5  UNL     1      -3.140  74.479  28.776  1.00  0.00     0.188 HD
HETATM   23  C12 UNL     1      -4.126  77.468  28.486  1.00  0.00     0.340 A 
ATOM     24  H6  UNL     1      -3.564  76.146  26.947  1.00  0.00     0.192 HD
HETATM   25  O1  UNL     1      -4.443  78.543  27.869  1.00  0.00    -0.245 OA
HETATM   26  N7  UNL     1      -4.155  77.259  29.811  1.00  0.00    -0.294 N 
ATOM     27  H7  UNL     1      -4.439  77.947  30.508  1.00  0.00     0.172 HD
ENDBRANCH  18  19
ENDBRANCH  16  18
ENDBRANCH   6  16
BRANCH   1  28
HETATM   28  C7  UNL     1      -4.655  77.467  36.962  1.00  0.00     0.080 C 
BRANCH  28  29
HETATM   29  C6  UNL     1      -4.488  76.766  38.267  1.00  0.00     0.065 C 
BRANCH  29  30
HETATM   30  C5  UNL     1      -3.700  77.660  39.266  1.00  0.00     0.124 C 
BRANCH  30  31
HETATM   31  N1  UNL     1      -3.460  78.920  38.731  1.00  0.00    -0.402 N 
ATOM     32  H1  UNL     1      -4.227  79.348  38.211  1.00  0.00     0.158 HD
BRANCH  31  33
HETATM   33  C4  UNL     1      -2.299  79.651  38.828  1.00  0.00     0.055 C 
BRANCH  33  34
HETATM   34  C3  UNL     1      -1.927  80.625  37.780  1.00  0.00     0.044 C 
BRANCH  34  35
HETATM   35  C2  UNL     1      -1.804  82.047  38.179  1.00  0.00     0.001 C 
HETATM   36  C1  UNL     1      -0.388  82.534  37.796  1.00  0.00     0.005 C 
ENDBRANCH  34  35
ENDBRANCH  33  34
ENDBRANCH  31  33
ENDBRANCH  30  31
ENDBRANCH  29  30
ENDBRANCH  28  29
ENDBRANCH   1  28
BRANCH  13  37
HETATM   37  N10 UNL     1       0.113  78.218  36.136  1.00  0.00    -0.382 N 
ATOM     38 2H10 UNL     1       1.011  78.507  35.748  1.00  0.00     0.157 HD
ATOM     39 1H10 UNL     1      -0.204  78.355  37.097  1.00  0.00     0.157 HD
ENDBRANCH  13  37
TORSDOF 11
ENDMDL
MODEL 5
REMARK VINA RESULT: -7.242302522      6.493      9.319
REMARK  11 active torsions:
REMARK  status: ('A' for Active; 'I' for Inactive)
REMARK    1  A    between atoms: C2_2  and  C3_3 
REMARK    2  A    between atoms: C3_3  and  C4_4 
REMARK    3  A    between atoms: C4_4  and  N1_5 
REMARK    4  A    between atoms: N1_5  and  C5_7 
REMARK    5  A    between atoms: C5_7  and  C6_8 
REMARK    6  A    between atoms: C6_8  and  C7_9 
REMARK    7  A    between atoms: C7_9  and  N2_10 
REMARK    8  A    between atoms: C9_15  and  N4_16 
REMARK    9  A    between atoms: N4_16  and  C10_18 
REMARK   10  A    between atoms: C10_18  and  C11_19 
REMARK   11  A    between atoms: C14_34  and  N10_35 
ROOT
HETATM    1  N2  UNL     1      -0.962  77.374  33.678  1.00  0.00    -0.205 N 
ATOM      2  H2  UNL     1      -0.274  77.257  32.934  1.00  0.00     0.183 HD
HETATM    3  C8  UNL     1      -2.101  77.356  33.191  1.00  0.00     0.698 C 
HETATM    4  N3  UNL     1      -2.208  77.191  31.833  1.00  0.00    -0.022 N 
ATOM      5  H3  UNL     1      -1.389  77.491  31.305  1.00  0.00     0.203 HD
HETATM    6  C9  UNL     1      -3.214  76.701  31.074  1.00  0.00     0.694 C 
HETATM    7  N8  UNL     1      -4.441  76.290  31.479  1.00  0.00    -0.173 N 
ATOM      8  H8  UNL     1      -5.122  76.069  30.753  1.00  0.00     0.186 HD
HETATM    9  C13 UNL     1      -4.845  76.145  32.783  1.00  0.00     0.159 C 
HETATM   10  N9  UNL     1      -5.766  75.255  32.967  1.00  0.00    -0.382 N 
ATOM     11  H91 UNL     1      -6.066  75.148  33.935  1.00  0.00     0.157 HD
ATOM     12  H92 UNL     1      -6.114  74.744  32.155  1.00  0.00     0.157 HD
HETATM   13  C14 UNL     1      -4.376  76.834  33.876  1.00  0.00     0.159 C 
HETATM   14  N11 UNL     1      -3.192  77.492  33.967  1.00  0.00    -0.173 N 
ATOM     15  H11 UNL     1      -3.121  78.177  34.719  1.00  0.00     0.186 HD
ENDROOT
BRANCH   6  16
HETATM   16  N4  UNL     1      -2.998  76.600  29.813  1.00  0.00    -0.218 N 
ATOM     17  H4  UNL     1      -2.019  76.593  29.527  1.00  0.00     0.178 HD
BRANCH  16  18
HETATM   18  C10 UNL     1      -3.950  76.498  28.772  1.00  0.00     0.216 C 
BRANCH  18  19
HETATM   19  C11 UNL     1      -3.562  77.238  27.529  1.00  0.00     0.118 A 
HETATM   20  N5  UNL     1      -2.321  77.261  27.023  1.00  0.00    -0.283 N 
HETATM   21  N6  UNL     1      -2.335  78.008  25.932  1.00  0.00    -0.250 N 
ATOM     22  H5  UNL     1      -1.508  76.785  27.413  1.00  0.00     0.188 HD
HETATM   23  C12 UNL     1      -3.579  78.473  25.724  1.00  0.00     0.340 A 
ATOM     24  H6  UNL     1      -1.527  78.202  25.340  1.00  0.00     0.192 HD
HETATM   25  O1  UNL     1      -3.975  79.225  24.768  1.00  0.00    -0.245 OA
HETATM   26  N7  UNL     1      -4.323  77.982  26.727  1.00  0.00    -0.294 N 
ATOM     27  H7  UNL     1      -5.320  78.154  26.856  1.00  0.00     0.172 HD
ENDBRANCH  18  19
ENDBRANCH  16  18
ENDBRANCH   6  16
BRANCH   1  28
HETATM   28  C7  UNL     1      -0.310  77.500  34.891  1.00  0.00     0.080 C 
BRANCH  28  29
HETATM   29  C6  UNL     1      -0.280  76.340  35.826  1.00  0.00     0.065 C 
BRANCH  29  30
HETATM   30  C5  UNL     1      -1.443  76.441  36.854  1.00  0.00     0.124 C 
BRANCH  30  31
HETATM   31  N1  UNL     1      -1.154  77.368  37.849  1.00  0.00    -0.402 N 
ATOM     32  H1  UNL     1      -0.280  77.232  38.359  1.00  0.00     0.158 HD
BRANCH  31  33
HETATM   33  C4  UNL     1      -1.921  78.447  38.219  1.00  0.00     0.055 C 
BRANCH  33  34
HETATM   34  C3  UNL     1      -1.810  79.737  37.504  1.00  0.00     0.044 C 
BRANCH  34  35
HETATM   35  C2  UNL     1      -2.077  80.974  38.276  1.00  0.00     0.001 C 
HETATM   36  C1  UNL     1      -1.010  82.023  37.888  1.00  0.00     0.005 C 
ENDBRANCH  34  35
ENDBRANCH  33  34
ENDBRANCH  31  33
ENDBRANCH  30  31
ENDBRANCH  29  30
ENDBRANCH  28  29
ENDBRANCH   1  28
BRANCH  13  37
HETATM   37  N10 UNL     1      -5.162  76.840  34.896  1.00  0.00    -0.382 N 
ATOM     38 2H10 UNL     1      -6.024  76.297  34.848  1.00  0.00     0.157 HD
ATOM     39 1H10 UNL     1      -4.842  77.401  35.685  1.00  0.00     0.157 HD
ENDBRANCH  13  37
TORSDOF 11
ENDMDL
