MODEL 1
REMARK VINA RESULT: -10.471033034      0.000      0.000
REMARK  5 active torsions:
REMARK  status: ('A' for Active; 'I' for Inactive)
REMARK    1  A    between atoms: C2_2  and  C3_3 
REMARK    2  A    between atoms: C2_2  and  C10_12 
REMARK    3  A    between atoms: C3_3  and  N1_4 
REMARK    4  A    between atoms: N1_4  and  C4_6 
REMARK    5  A    between atoms: C13_15  and  C14_16 
ROOT
HETATM    1  C10 UNL     1      31.262  18.787  49.531  1.00  0.00    -0.053 A 
HETATM    2  C11 UNL     1      32.579  18.944  49.149  1.00  0.00     0.008 A 
HETATM    3  C12 UNL     1      33.615  18.864  50.088  1.00  0.00     0.013 A 
HETATM    4  C13 UNL     1      33.327  18.626  51.422  1.00  0.00    -0.026 A 
HETATM    5  C20 UNL     1      32.028  18.470  51.805  1.00  0.00     0.013 A 
HETATM    6  C21 UNL     1      31.027  18.551  50.865  1.00  0.00     0.008 A 
ENDROOT
BRANCH   1   7
HETATM    7  C2  UNL     1      30.200  18.872  48.545  1.00  0.00     0.032 C 
HETATM    8  C1  UNL     1      29.262  20.006  48.962  1.00  0.00     0.017 C 
BRANCH   7   9
HETATM    9  C3  UNL     1      30.645  19.103  47.136  1.00  0.00     0.129 C 
BRANCH   9  10
HETATM   10  N1  UNL     1      29.731  19.959  46.405  1.00  0.00    -0.389 N 
ATOM     11  H1  UNL     1      28.783  19.643  46.199  1.00  0.00     0.159 HD
BRANCH  10  12
HETATM   12  C4  UNL     1      30.164  21.243  45.978  1.00  0.00     0.027 A 
HETATM   13  C5  UNL     1      29.643  21.793  44.827  1.00  0.00     0.029 A 
HETATM   14  C6  UNL     1      30.060  23.050  44.399  1.00  0.00     0.002 A 
HETATM   15  C7  UNL     1      30.997  23.775  45.105  1.00  0.00     0.000 A 
HETATM   16  C8  UNL     1      31.519  23.228  46.255  1.00  0.00     0.002 A 
HETATM   17  C9  UNL     1      31.098  21.973  46.674  1.00  0.00     0.029 A 
ENDBRANCH  10  12
ENDBRANCH   9  10
ENDBRANCH   7   9
ENDBRANCH   1   7
BRANCH   4  18
HETATM   18  C14 UNL     1      34.408  18.543  52.398  1.00  0.00    -0.026 A 
HETATM   19  C15 UNL     1      35.644  18.049  52.016  1.00  0.00     0.012 A 
HETATM   20  C16 UNL     1      36.690  17.957  52.913  1.00  0.00     0.001 A 
HETATM   21  C17 UNL     1      36.546  18.352  54.226  1.00  0.00     0.000 A 
HETATM   22  C18 UNL     1      35.314  18.845  54.605  1.00  0.00     0.001 A 
HETATM   23  C19 UNL     1      34.263  18.939  53.708  1.00  0.00     0.012 A 
ENDBRANCH   4  18
TORSDOF 5
ENDMDL
MODEL 2
REMARK VINA RESULT: -10.465561512      0.027      1.006
REMARK  5 active torsions:
REMARK  status: ('A' for Active; 'I' for Inactive)
REMARK    1  A    between atoms: C2_2  and  C3_3 
REMARK    2  A    between atoms: C2_2  and  C10_12 
REMARK    3  A    between atoms: C3_3  and  N1_4 
REMARK    4  A    between atoms: N1_4  and  C4_6 
REMARK    5  A    between atoms: C13_15  and  C14_16 
ROOT
HETATM    1  C10 UNL     1      31.272  18.799  49.511  1.00  0.00    -0.053 A 
HETATM    2  C11 UNL     1      30.997  18.557  50.842  1.00  0.00     0.008 A 
HETATM    3  C12 UNL     1      32.027  18.478  51.787  1.00  0.00     0.013 A 
HETATM    4  C13 UNL     1      33.345  18.642  51.392  1.00  0.00    -0.026 A 
HETATM    5  C20 UNL     1      33.623  18.881  50.079  1.00  0.00     0.013 A 
HETATM    6  C21 UNL     1      32.594  18.956  49.170  1.00  0.00     0.008 A 
ENDROOT
BRANCH   1   7
HETATM    7  C2  UNL     1      30.191  18.879  48.544  1.00  0.00     0.032 C 
HETATM    8  C1  UNL     1      29.259  20.012  48.975  1.00  0.00     0.017 C 
BRANCH   7   9
HETATM    9  C3  UNL     1      30.610  19.107  47.126  1.00  0.00     0.129 C 
BRANCH   9  10
HETATM   10  N1  UNL     1      29.697  19.984  46.419  1.00  0.00    -0.389 N 
ATOM     11  H1  UNL     1      28.740  19.686  46.233  1.00  0.00     0.159 HD
BRANCH  10  12
HETATM   12  C4  UNL     1      30.147  21.260  45.987  1.00  0.00     0.027 A 
HETATM   13  C5  UNL     1      29.623  21.818  44.841  1.00  0.00     0.029 A 
HETATM   14  C6  UNL     1      30.055  23.068  44.409  1.00  0.00     0.002 A 
HETATM   15  C7  UNL     1      31.010  23.778  45.105  1.00  0.00     0.000 A 
HETATM   16  C8  UNL     1      31.535  23.224  46.250  1.00  0.00     0.002 A 
HETATM   17  C9  UNL     1      31.098  21.976  46.673  1.00  0.00     0.029 A 
ENDBRANCH  10  12
ENDBRANCH   9  10
ENDBRANCH   7   9
ENDBRANCH   1   7
BRANCH   4  18
HETATM   18  C14 UNL     1      34.418  18.559  52.379  1.00  0.00    -0.026 A 
HETATM   19  C15 UNL     1      35.662  18.081  52.003  1.00  0.00     0.012 A 
HETATM   20  C16 UNL     1      36.700  17.989  52.909  1.00  0.00     0.001 A 
HETATM   21  C17 UNL     1      36.540  18.369  54.225  1.00  0.00     0.000 A 
HETATM   22  C18 UNL     1      35.300  18.847  54.597  1.00  0.00     0.001 A 
HETATM   23  C19 UNL     1      34.257  18.940  53.691  1.00  0.00     0.012 A 
ENDBRANCH   4  18
TORSDOF 5
ENDMDL
MODEL 3
REMARK VINA RESULT: -10.443420649      0.033      1.008
REMARK  5 active torsions:
REMARK  status: ('A' for Active; 'I' for Inactive)
REMARK    1  A    between atoms: C2_2  and  C3_3 
REMARK    2  A    between atoms: C2_2  and  C10_12 
REMARK    3  A    between atoms: C3_3  and  N1_4 
REMARK    4  A    between atoms: N1_4  and  C4_6 
REMARK    5  A    between atoms: C13_15  and  C14_16 
ROOT
HETATM    1  C10 UNL     1      31.248  18.803  49.547  1.00  0.00    -0.053 A 
HETATM    2  C11 UNL     1      32.564  18.974  49.164  1.00  0.00     0.008 A 
HETATM    3  C12 UNL     1      33.603  18.889  50.099  1.00  0.00     0.013 A 
HETATM    4  C13 UNL     1      33.319  18.630  51.430  1.00  0.00    -0.026 A 
HETATM    5  C20 UNL     1      32.022  18.461  51.814  1.00  0.00     0.013 A 
HETATM    6  C21 UNL     1      31.019  18.548  50.878  1.00  0.00     0.008 A 
ENDROOT
BRANCH   1   7
HETATM    7  C2  UNL     1      30.183  18.895  48.564  1.00  0.00     0.032 C 
HETATM    8  C1  UNL     1      29.248  20.028  48.990  1.00  0.00     0.017 C 
BRANCH   7   9
HETATM    9  C3  UNL     1      30.624  19.132  47.155  1.00  0.00     0.129 C 
BRANCH   9  10
HETATM   10  N1  UNL     1      29.698  19.977  46.426  1.00  0.00    -0.389 N 
ATOM     11  H1  UNL     1      28.749  19.657  46.238  1.00  0.00     0.159 HD
BRANCH  10  12
HETATM   12  C4  UNL     1      30.125  21.255  45.974  1.00  0.00     0.027 A 
HETATM   13  C5  UNL     1      31.076  21.950  46.689  1.00  0.00     0.029 A 
HETATM   14  C6  UNL     1      31.502  23.202  46.255  1.00  0.00     0.002 A 
HETATM   15  C7  UNL     1      30.991  23.779  45.112  1.00  0.00     0.000 A 
HETATM   16  C8  UNL     1      30.041  23.086  44.396  1.00  0.00     0.002 A 
HETATM   17  C9  UNL     1      29.622  21.838  44.836  1.00  0.00     0.029 A 
ENDBRANCH  10  12
ENDBRANCH   9  10
ENDBRANCH   7   9
ENDBRANCH   1   7
BRANCH   4  18
HETATM   18  C14 UNL     1      34.403  18.542  52.403  1.00  0.00    -0.026 A 
HETATM   19  C15 UNL     1      35.647  18.079  52.006  1.00  0.00     0.012 A 
HETATM   20  C16 UNL     1      36.696  17.982  52.899  1.00  0.00     0.001 A 
HETATM   21  C17 UNL     1      36.548  18.341  54.222  1.00  0.00     0.000 A 
HETATM   22  C18 UNL     1      35.308  18.803  54.615  1.00  0.00     0.001 A 
HETATM   23  C19 UNL     1      34.254  18.901  53.722  1.00  0.00     0.012 A 
ENDBRANCH   4  18
TORSDOF 5
ENDMDL
MODEL 4
REMARK VINA RESULT: -10.443315468      0.039      1.424
REMARK  5 active torsions:
REMARK  status: ('A' for Active; 'I' for Inactive)
REMARK    1  A    between atoms: C2_2  and  C3_3 
REMARK    2  A    between atoms: C2_2  and  C10_12 
REMARK    3  A    between atoms: C3_3  and  N1_4 
REMARK    4  A    between atoms: N1_4  and  C4_6 
REMARK    5  A    between atoms: C13_15  and  C14_16 
ROOT
HETATM    1  C10 UNL     1      31.279  18.802  49.520  1.00  0.00    -0.053 A 
HETATM    2  C11 UNL     1      31.009  18.543  50.849  1.00  0.00     0.008 A 
HETATM    3  C12 UNL     1      32.041  18.463  51.791  1.00  0.00     0.013 A 
HETATM    4  C13 UNL     1      33.357  18.643  51.397  1.00  0.00    -0.026 A 
HETATM    5  C20 UNL     1      33.630  18.899  50.086  1.00  0.00     0.013 A 
HETATM    6  C21 UNL     1      32.599  18.974  49.179  1.00  0.00     0.008 A 
ENDROOT
BRANCH   1   7
HETATM    7  C2  UNL     1      30.196  18.882  48.556  1.00  0.00     0.032 C 
HETATM    8  C1  UNL     1      29.257  20.005  48.998  1.00  0.00     0.017 C 
BRANCH   7   9
HETATM    9  C3  UNL     1      30.611  19.125  47.139  1.00  0.00     0.129 C 
BRANCH   9  10
HETATM   10  N1  UNL     1      29.683  19.991  46.438  1.00  0.00    -0.389 N 
ATOM     11  H1  UNL     1      28.725  19.688  46.269  1.00  0.00     0.159 HD
BRANCH  10  12
HETATM   12  C4  UNL     1      30.120  21.266  45.986  1.00  0.00     0.027 A 
HETATM   13  C5  UNL     1      31.082  21.950  46.697  1.00  0.00     0.029 A 
HETATM   14  C6  UNL     1      31.518  23.199  46.265  1.00  0.00     0.002 A 
HETATM   15  C7  UNL     1      31.007  23.783  45.126  1.00  0.00     0.000 A 
HETATM   16  C8  UNL     1      30.046  23.102  44.414  1.00  0.00     0.002 A 
HETATM   17  C9  UNL     1      29.617  21.857  44.853  1.00  0.00     0.029 A 
ENDBRANCH  10  12
ENDBRANCH   9  10
ENDBRANCH   7   9
ENDBRANCH   1   7
BRANCH   4  18
HETATM   18  C14 UNL     1      34.432  18.559  52.380  1.00  0.00    -0.026 A 
HETATM   19  C15 UNL     1      35.674  18.077  52.002  1.00  0.00     0.012 A 
HETATM   20  C16 UNL     1      36.714  17.984  52.906  1.00  0.00     0.001 A 
HETATM   21  C17 UNL     1      36.558  18.367  54.221  1.00  0.00     0.000 A 
HETATM   22  C18 UNL     1      35.321  18.849  54.596  1.00  0.00     0.001 A 
HETATM   23  C19 UNL     1      34.275  18.943  53.692  1.00  0.00     0.012 A 
ENDBRANCH   4  18
TORSDOF 5
ENDMDL
MODEL 5
REMARK VINA RESULT: -10.430863617      0.052      1.423
REMARK  5 active torsions:
REMARK  status: ('A' for Active; 'I' for Inactive)
REMARK    1  A    between atoms: C2_2  and  C3_3 
REMARK    2  A    between atoms: C2_2  and  C10_12 
REMARK    3  A    between atoms: C3_3  and  N1_4 
REMARK    4  A    between atoms: N1_4  and  C4_6 
REMARK    5  A    between atoms: C13_15  and  C14_16 
ROOT
HETATM    1  C10 UNL     1      31.248  18.803  49.525  1.00  0.00    -0.053 A 
HETATM    2  C11 UNL     1      32.562  18.957  49.132  1.00  0.00     0.008 A 
HETATM    3  C12 UNL     1      33.607  18.863  50.059  1.00  0.00     0.013 A 
HETATM    4  C13 UNL     1      33.331  18.614  51.393  1.00  0.00    -0.026 A 
HETATM    5  C20 UNL     1      32.035  18.462  51.788  1.00  0.00     0.013 A 
HETATM    6  C21 UNL     1      31.026  18.557  50.859  1.00  0.00     0.008 A 
ENDROOT
BRANCH   1   7
HETATM    7  C2  UNL     1      30.176  18.902  48.551  1.00  0.00     0.032 C 
HETATM    8  C1  UNL     1      29.255  20.045  48.982  1.00  0.00     0.017 C 
BRANCH   7   9
HETATM    9  C3  UNL     1      30.609  19.134  47.138  1.00  0.00     0.129 C 
BRANCH   9  10
HETATM   10  N1  UNL     1      29.685  19.987  46.415  1.00  0.00    -0.389 N 
ATOM     11  H1  UNL     1      28.733  19.673  46.230  1.00  0.00     0.159 HD
BRANCH  10  12
HETATM   12  C4  UNL     1      30.118  21.263  45.964  1.00  0.00     0.027 A 
HETATM   13  C5  UNL     1      31.075  21.952  46.678  1.00  0.00     0.029 A 
HETATM   14  C6  UNL     1      31.506  23.203  46.246  1.00  0.00     0.002 A 
HETATM   15  C7  UNL     1      30.996  23.784  45.105  1.00  0.00     0.000 A 
HETATM   16  C8  UNL     1      30.040  23.098  44.390  1.00  0.00     0.002 A 
HETATM   17  C9  UNL     1      29.616  21.852  44.829  1.00  0.00     0.029 A 
ENDBRANCH  10  12
ENDBRANCH   9  10
ENDBRANCH   7   9
ENDBRANCH   1   7
BRANCH   4  18
HETATM   18  C14 UNL     1      34.421  18.517  52.358  1.00  0.00    -0.026 A 
HETATM   19  C15 UNL     1      34.208  18.883  53.677  1.00  0.00     0.012 A 
HETATM   20  C16 UNL     1      35.216  18.803  54.617  1.00  0.00     0.001 A 
HETATM   21  C17 UNL     1      36.477  18.357  54.281  1.00  0.00     0.000 A 
HETATM   22  C18 UNL     1      36.688  17.992  52.968  1.00  0.00     0.001 A 
HETATM   23  C19 UNL     1      35.679  18.070  52.022  1.00  0.00     0.012 A 
ENDBRANCH   4  18
TORSDOF 5
ENDMDL
