MODEL 1
REMARK VINA RESULT: -8.285042867      0.000      0.000
REMARK  5 active torsions:
REMARK  status: ('A' for Active; 'I' for Inactive)
REMARK    1  A    between atoms: C2_2  and  N1_3 
REMARK    2  A    between atoms: N1_3  and  C3_5 
REMARK    3  A    between atoms: C3_5  and  C4_6 
REMARK    4  A    between atoms: C3_5  and  C10_12 
REMARK    5  A    between atoms: C3_5  and  C16_18 
ROOT
HETATM    1  C3  UNL     1      30.107  20.311  46.264  1.00  0.00     0.109 C 
ENDROOT
BRANCH   1   2
HETATM    2  N1  UNL     1      28.694  20.302  46.032  1.00  0.00    -0.402 N 
ATOM      3  H1  UNL     1      28.318  19.880  45.183  1.00  0.00     0.154 HD
BRANCH   2   4
HETATM    4  C2  UNL     1      27.830  20.874  46.973  1.00  0.00     0.111 C 
HETATM    5  C1  UNL     1      27.198  22.104  46.281  1.00  0.00     0.026 C 
ENDBRANCH   2   4
ENDBRANCH   1   2
BRANCH   1   6
HETATM    6  C4  UNL     1      30.858  19.406  45.377  1.00  0.00    -0.021 A 
HETATM    7  C5  UNL     1      31.554  18.317  45.858  1.00  0.00     0.010 A 
HETATM    8  C6  UNL     1      32.262  17.468  45.041  1.00  0.00     0.001 A 
HETATM    9  C7  UNL     1      32.261  17.737  43.690  1.00  0.00     0.000 A 
HETATM   10  C8  UNL     1      31.587  18.807  43.152  1.00  0.00     0.001 A 
HETATM   11  C9  UNL     1      30.891  19.629  44.024  1.00  0.00     0.010 A 
ENDBRANCH   1   6
BRANCH   1  12
HETATM   12  C10 UNL     1      30.536  21.716  46.047  1.00  0.00    -0.021 A 
HETATM   13  C11 UNL     1      30.081  22.360  44.921  1.00  0.00     0.010 A 
HETATM   14  C12 UNL     1      30.439  23.675  44.648  1.00  0.00     0.001 A 
HETATM   15  C13 UNL     1      31.254  24.348  45.501  1.00  0.00     0.000 A 
HETATM   16  C14 UNL     1      31.720  23.718  46.633  1.00  0.00     0.001 A 
HETATM   17  C15 UNL     1      31.355  22.394  46.901  1.00  0.00     0.010 A 
ENDBRANCH   1  12
BRANCH   1  18
HETATM   18  C16 UNL     1      30.348  19.893  47.675  1.00  0.00    -0.021 A 
HETATM   19  C17 UNL     1      29.476  19.041  48.319  1.00  0.00     0.010 A 
HETATM   20  C18 UNL     1      29.689  18.645  49.612  1.00  0.00     0.001 A 
HETATM   21  C19 UNL     1      30.799  19.104  50.284  1.00  0.00     0.000 A 
HETATM   22  C20 UNL     1      31.686  19.948  49.683  1.00  0.00     0.001 A 
HETATM   23  C21 UNL     1      31.432  20.327  48.368  1.00  0.00     0.010 A 
ENDBRANCH   1  18
TORSDOF 5
ENDMDL
MODEL 2
REMARK VINA RESULT: -8.212579855      0.787      4.727
REMARK  5 active torsions:
REMARK  status: ('A' for Active; 'I' for Inactive)
REMARK    1  A    between atoms: C2_2  and  N1_3 
REMARK    2  A    between atoms: N1_3  and  C3_5 
REMARK    3  A    between atoms: C3_5  and  C4_6 
REMARK    4  A    between atoms: C3_5  and  C10_12 
REMARK    5  A    between atoms: C3_5  and  C16_18 
ROOT
HETATM    1  C3  UNL     1      30.290  20.310  46.286  1.00  0.00     0.109 C 
ENDROOT
BRANCH   1   2
HETATM    2  N1  UNL     1      28.888  20.144  46.526  1.00  0.00    -0.402 N 
ATOM      3  H1  UNL     1      28.384  19.370  46.095  1.00  0.00     0.154 HD
BRANCH   2   4
HETATM    4  C2  UNL     1      28.212  21.048  47.353  1.00  0.00     0.111 C 
HETATM    5  C1  UNL     1      27.262  21.844  46.429  1.00  0.00     0.026 C 
ENDBRANCH   2   4
ENDBRANCH   1   2
BRANCH   1   6
HETATM    6  C4  UNL     1      30.689  21.708  46.050  1.00  0.00    -0.021 A 
HETATM    7  C5  UNL     1      31.416  22.431  46.973  1.00  0.00     0.010 A 
HETATM    8  C6  UNL     1      31.791  23.737  46.767  1.00  0.00     0.001 A 
HETATM    9  C7  UNL     1      31.414  24.326  45.580  1.00  0.00     0.000 A 
HETATM   10  C8  UNL     1      30.690  23.659  44.622  1.00  0.00     0.001 A 
HETATM   11  C9  UNL     1      30.339  22.344  44.886  1.00  0.00     0.010 A 
ENDBRANCH   1   6
BRANCH   1  12
HETATM   12  C10 UNL     1      30.966  19.782  47.498  1.00  0.00    -0.021 A 
HETATM   13  C11 UNL     1      30.192  19.150  48.441  1.00  0.00     0.010 A 
HETATM   14  C12 UNL     1      30.751  18.629  49.602  1.00  0.00     0.001 A 
HETATM   15  C13 UNL     1      32.087  18.741  49.822  1.00  0.00     0.000 A 
HETATM   16  C14 UNL     1      32.878  19.372  48.888  1.00  0.00     0.001 A 
HETATM   17  C15 UNL     1      32.307  19.893  47.722  1.00  0.00     0.010 A 
ENDBRANCH   1  12
BRANCH   1  18
HETATM   18  C16 UNL     1      30.654  19.509  45.082  1.00  0.00    -0.021 A 
HETATM   19  C17 UNL     1      29.800  19.428  44.003  1.00  0.00     0.010 A 
HETATM   20  C18 UNL     1      30.124  18.701  42.888  1.00  0.00     0.001 A 
HETATM   21  C19 UNL     1      31.328  18.036  42.844  1.00  0.00     0.000 A 
HETATM   22  C20 UNL     1      32.201  18.090  43.890  1.00  0.00     0.001 A 
HETATM   23  C21 UNL     1      31.833  18.841  45.004  1.00  0.00     0.010 A 
ENDBRANCH   1  18
TORSDOF 5
ENDMDL
MODEL 3
REMARK VINA RESULT: -8.210886242      0.053      1.017
REMARK  5 active torsions:
REMARK  status: ('A' for Active; 'I' for Inactive)
REMARK    1  A    between atoms: C2_2  and  N1_3 
REMARK    2  A    between atoms: N1_3  and  C3_5 
REMARK    3  A    between atoms: C3_5  and  C4_6 
REMARK    4  A    between atoms: C3_5  and  C10_12 
REMARK    5  A    between atoms: C3_5  and  C16_18 
ROOT
HETATM    1  C3  UNL     1      30.119  20.312  46.260  1.00  0.00     0.109 C 
ENDROOT
BRANCH   1   2
HETATM    2  N1  UNL     1      28.703  20.301  46.049  1.00  0.00    -0.402 N 
ATOM      3  H1  UNL     1      28.313  19.853  45.219  1.00  0.00     0.154 HD
BRANCH   2   4
HETATM    4  C2  UNL     1      27.854  20.908  46.982  1.00  0.00     0.111 C 
HETATM    5  C1  UNL     1      27.206  22.108  46.254  1.00  0.00     0.026 C 
ENDBRANCH   2   4
ENDBRANCH   1   2
BRANCH   1   6
HETATM    6  C4  UNL     1      30.859  19.415  45.357  1.00  0.00    -0.021 A 
HETATM    7  C5  UNL     1      30.900  19.615  43.993  1.00  0.00     0.010 A 
HETATM    8  C6  UNL     1      31.584  18.784  43.139  1.00  0.00     0.001 A 
HETATM    9  C7  UNL     1      32.248  17.711  43.693  1.00  0.00     0.000 A 
HETATM   10  C8  UNL     1      32.245  17.459  45.044  1.00  0.00     0.001 A 
HETATM   11  C9  UNL     1      31.537  18.331  45.856  1.00  0.00     0.010 A 
ENDBRANCH   1   6
BRANCH   1  12
HETATM   12  C10 UNL     1      30.542  21.719  46.045  1.00  0.00    -0.021 A 
HETATM   13  C11 UNL     1      30.106  22.354  44.907  1.00  0.00     0.010 A 
HETATM   14  C12 UNL     1      30.460  23.671  44.635  1.00  0.00     0.001 A 
HETATM   15  C13 UNL     1      31.251  24.354  45.503  1.00  0.00     0.000 A 
HETATM   16  C14 UNL     1      31.697  23.734  46.648  1.00  0.00     0.001 A 
HETATM   17  C15 UNL     1      31.337  22.408  46.914  1.00  0.00     0.010 A 
ENDBRANCH   1  12
BRANCH   1  18
HETATM   18  C16 UNL     1      30.382  19.886  47.665  1.00  0.00    -0.021 A 
HETATM   19  C17 UNL     1      29.478  19.098  48.345  1.00  0.00     0.010 A 
HETATM   20  C18 UNL     1      29.710  18.694  49.633  1.00  0.00     0.001 A 
HETATM   21  C19 UNL     1      30.871  19.082  50.262  1.00  0.00     0.000 A 
HETATM   22  C20 UNL     1      31.791  19.861  49.625  1.00  0.00     0.001 A 
HETATM   23  C21 UNL     1      31.516  20.250  48.316  1.00  0.00     0.010 A 
ENDBRANCH   1  18
TORSDOF 5
ENDMDL
MODEL 4
REMARK VINA RESULT: -8.206890183      0.774      4.799
REMARK  5 active torsions:
REMARK  status: ('A' for Active; 'I' for Inactive)
REMARK    1  A    between atoms: C2_2  and  N1_3 
REMARK    2  A    between atoms: N1_3  and  C3_5 
REMARK    3  A    between atoms: C3_5  and  C4_6 
REMARK    4  A    between atoms: C3_5  and  C10_12 
REMARK    5  A    between atoms: C3_5  and  C16_18 
ROOT
HETATM    1  C3  UNL     1      30.312  20.300  46.293  1.00  0.00     0.109 C 
ENDROOT
BRANCH   1   2
HETATM    2  N1  UNL     1      28.902  20.147  46.493  1.00  0.00    -0.402 N 
ATOM      3  H1  UNL     1      28.403  19.378  46.047  1.00  0.00     0.154 HD
BRANCH   2   4
HETATM    4  C2  UNL     1      28.212  21.056  47.304  1.00  0.00     0.111 C 
HETATM    5  C1  UNL     1      27.294  21.862  46.355  1.00  0.00     0.026 C 
ENDBRANCH   2   4
ENDBRANCH   1   2
BRANCH   1   6
HETATM    6  C4  UNL     1      30.732  21.697  46.085  1.00  0.00    -0.021 A 
HETATM    7  C5  UNL     1      31.427  22.406  47.042  1.00  0.00     0.010 A 
HETATM    8  C6  UNL     1      31.822  23.710  46.862  1.00  0.00     0.001 A 
HETATM    9  C7  UNL     1      31.497  24.312  45.666  1.00  0.00     0.000 A 
HETATM   10  C8  UNL     1      30.806  23.659  44.674  1.00  0.00     0.001 A 
HETATM   11  C9  UNL     1      30.434  22.345  44.913  1.00  0.00     0.010 A 
ENDBRANCH   1   6
BRANCH   1  12
HETATM   12  C10 UNL     1      30.949  19.751  47.516  1.00  0.00    -0.021 A 
HETATM   13  C11 UNL     1      30.146  19.102  48.423  1.00  0.00     0.010 A 
HETATM   14  C12 UNL     1      30.669  18.561  49.592  1.00  0.00     0.001 A 
HETATM   15  C13 UNL     1      31.997  18.667  49.854  1.00  0.00     0.000 A 
HETATM   16  C14 UNL     1      32.817  19.314  48.957  1.00  0.00     0.001 A 
HETATM   17  C15 UNL     1      32.283  19.856  47.783  1.00  0.00     0.010 A 
ENDBRANCH   1  12
BRANCH   1  18
HETATM   18  C16 UNL     1      30.699  19.510  45.089  1.00  0.00    -0.021 A 
HETATM   19  C17 UNL     1      31.898  18.832  45.045  1.00  0.00     0.010 A 
HETATM   20  C18 UNL     1      32.263  18.097  43.947  1.00  0.00     0.001 A 
HETATM   21  C19 UNL     1      31.414  18.035  42.866  1.00  0.00     0.000 A 
HETATM   22  C20 UNL     1      30.219  18.691  42.870  1.00  0.00     0.001 A 
HETATM   23  C21 UNL     1      29.886  19.427  44.005  1.00  0.00     0.010 A 
ENDBRANCH   1  18
TORSDOF 5
ENDMDL
MODEL 5
REMARK VINA RESULT: -8.058075946      0.730      4.484
REMARK  5 active torsions:
REMARK  status: ('A' for Active; 'I' for Inactive)
REMARK    1  A    between atoms: C2_2  and  N1_3 
REMARK    2  A    between atoms: N1_3  and  C3_5 
REMARK    3  A    between atoms: C3_5  and  C4_6 
REMARK    4  A    between atoms: C3_5  and  C10_12 
REMARK    5  A    between atoms: C3_5  and  C16_18 
ROOT
HETATM    1  C3  UNL     1      30.278  20.282  46.238  1.00  0.00     0.109 C 
ENDROOT
BRANCH   1   2
HETATM    2  N1  UNL     1      28.847  20.252  46.187  1.00  0.00    -0.402 N 
ATOM      3  H1  UNL     1      28.372  19.689  45.481  1.00  0.00     0.154 HD
BRANCH   2   4
HETATM    4  C2  UNL     1      28.102  20.995  47.109  1.00  0.00     0.111 C 
HETATM    5  C1  UNL     1      27.301  22.025  46.280  1.00  0.00     0.026 C 
ENDBRANCH   2   4
ENDBRANCH   1   2
BRANCH   1   6
HETATM    6  C4  UNL     1      30.837  19.749  47.492  1.00  0.00    -0.021 A 
HETATM    7  C5  UNL     1      32.182  19.823  47.787  1.00  0.00     0.010 A 
HETATM    8  C6  UNL     1      32.717  19.327  48.951  1.00  0.00     0.001 A 
HETATM    9  C7  UNL     1      31.852  18.735  49.846  1.00  0.00     0.000 A 
HETATM   10  C8  UNL     1      30.503  18.631  49.609  1.00  0.00     0.001 A 
HETATM   11  C9  UNL     1      30.021  19.149  48.417  1.00  0.00     0.010 A 
ENDBRANCH   1   6
BRANCH   1  12
HETATM   12  C10 UNL     1      30.733  19.464  45.086  1.00  0.00    -0.021 A 
HETATM   13  C11 UNL     1      29.919  19.400  43.981  1.00  0.00     0.010 A 
HETATM   14  C12 UNL     1      30.276  18.655  42.863  1.00  0.00     0.001 A 
HETATM   15  C13 UNL     1      31.451  17.973  42.849  1.00  0.00     0.000 A 
HETATM   16  C14 UNL     1      32.280  18.026  43.947  1.00  0.00     0.001 A 
HETATM   17  C15 UNL     1      31.913  18.778  45.068  1.00  0.00     0.010 A 
ENDBRANCH   1  12
BRANCH   1  18
HETATM   18  C16 UNL     1      30.718  21.699  46.093  1.00  0.00    -0.021 A 
HETATM   19  C17 UNL     1      31.377  22.343  47.119  1.00  0.00     0.010 A 
HETATM   20  C18 UNL     1      31.792  23.643  46.996  1.00  0.00     0.001 A 
HETATM   21  C19 UNL     1      31.546  24.321  45.825  1.00  0.00     0.000 A 
HETATM   22  C20 UNL     1      30.897  23.721  44.786  1.00  0.00     0.001 A 
HETATM   23  C21 UNL     1      30.491  22.399  44.952  1.00  0.00     0.010 A 
ENDBRANCH   1  18
TORSDOF 5
ENDMDL
