MODEL 1
REMARK VINA RESULT: -9.768257731      0.000      0.000
REMARK  5 active torsions:
REMARK  status: ('A' for Active; 'I' for Inactive)
REMARK    1  A    between atoms: C2_2  and  C3_3 
REMARK    2  A    between atoms: C7_7  and  N1_8 
REMARK    3  A    between atoms: N1_8  and  C8_10 
REMARK    4  A    between atoms: C8_10  and  C9_11 
REMARK    5  A    between atoms: C14_16  and  C15_17 
ROOT
HETATM    1  C9  UNL     1      31.497  18.574  49.593  1.00  0.00    -0.029 A 
HETATM    2  C10 UNL     1      30.175  18.564  49.220  1.00  0.00     0.010 A 
HETATM    3  C11 UNL     1      29.143  18.536  50.161  1.00  0.00     0.001 A 
HETATM    4  C12 UNL     1      29.380  18.519  51.512  1.00  0.00     0.001 A 
HETATM    5  C13 UNL     1      30.697  18.531  51.892  1.00  0.00     0.013 A 
HETATM    6  C14 UNL     1      31.738  18.558  50.969  1.00  0.00    -0.018 A 
ENDROOT
BRANCH   1   7
HETATM    7  C8  UNL     1      32.639  18.578  48.663  1.00  0.00     0.159 C 
BRANCH   7   8
HETATM    8  N1  UNL     1      32.759  19.791  47.931  1.00  0.00    -0.386 N 
ATOM      9  H1  UNL     1      33.458  20.488  48.188  1.00  0.00     0.160 HD
BRANCH   8  10
HETATM   10  C7  UNL     1      31.870  20.013  46.818  1.00  0.00     0.028 A 
HETATM   11  C6  UNL     1      31.612  18.995  45.926  1.00  0.00     0.029 A 
HETATM   12  C5  UNL     1      30.757  19.217  44.862  1.00  0.00     0.003 A 
HETATM   13  C4  UNL     1      30.148  20.438  44.662  1.00  0.00     0.007 A 
HETATM   14  C3  UNL     1      30.396  21.465  45.545  1.00  0.00    -0.056 A 
HETATM   15  C21 UNL     1      31.250  21.230  46.602  1.00  0.00     0.036 A 
BRANCH  14  16
HETATM   16  C2  UNL     1      29.801  22.812  45.433  1.00  0.00     0.034 C 
HETATM   17  C1  UNL     1      30.821  23.912  45.442  1.00  0.00     0.010 C 
ENDBRANCH  14  16
ENDBRANCH   8  10
ENDBRANCH   7   8
ENDBRANCH   1   7
BRANCH   6  18
HETATM   18  C15 UNL     1      33.097  18.596  51.493  1.00  0.00    -0.025 A 
HETATM   19  C16 UNL     1      33.980  17.563  51.431  1.00  0.00     0.012 A 
HETATM   20  C17 UNL     1      35.251  17.641  51.962  1.00  0.00     0.001 A 
HETATM   21  C18 UNL     1      35.678  18.791  52.582  1.00  0.00     0.000 A 
HETATM   22  C19 UNL     1      34.800  19.849  52.654  1.00  0.00     0.001 A 
HETATM   23  C20 UNL     1      33.544  19.757  52.126  1.00  0.00     0.012 A 
ENDBRANCH   6  18
TORSDOF 5
ENDMDL
MODEL 2
REMARK VINA RESULT: -9.676624497      0.062      1.003
REMARK  5 active torsions:
REMARK  status: ('A' for Active; 'I' for Inactive)
REMARK    1  A    between atoms: C2_2  and  C3_3 
REMARK    2  A    between atoms: C7_7  and  N1_8 
REMARK    3  A    between atoms: N1_8  and  C8_10 
REMARK    4  A    between atoms: C8_10  and  C9_11 
REMARK    5  A    between atoms: C14_16  and  C15_17 
ROOT
HETATM    1  C9  UNL     1      31.501  18.589  49.605  1.00  0.00    -0.029 A 
HETATM    2  C10 UNL     1      30.191  18.533  49.194  1.00  0.00     0.010 A 
HETATM    3  C11 UNL     1      29.133  18.490  50.105  1.00  0.00     0.001 A 
HETATM    4  C12 UNL     1      29.332  18.502  51.462  1.00  0.00     0.001 A 
HETATM    5  C13 UNL     1      30.636  18.559  51.880  1.00  0.00     0.013 A 
HETATM    6  C14 UNL     1      31.702  18.603  50.987  1.00  0.00    -0.018 A 
ENDROOT
BRANCH   1   7
HETATM    7  C8  UNL     1      32.669  18.612  48.708  1.00  0.00     0.159 C 
BRANCH   7   8
HETATM    8  N1  UNL     1      32.781  19.820  47.967  1.00  0.00    -0.386 N 
ATOM      9  H1  UNL     1      33.473  20.525  48.221  1.00  0.00     0.160 HD
BRANCH   8  10
HETATM   10  C7  UNL     1      31.894  20.026  46.849  1.00  0.00     0.028 A 
HETATM   11  C6  UNL     1      31.645  18.997  45.966  1.00  0.00     0.029 A 
HETATM   12  C5  UNL     1      30.792  19.203  44.897  1.00  0.00     0.003 A 
HETATM   13  C4  UNL     1      30.176  20.418  44.683  1.00  0.00     0.007 A 
HETATM   14  C3  UNL     1      30.416  21.455  45.556  1.00  0.00    -0.056 A 
HETATM   15  C21 UNL     1      31.268  21.237  46.618  1.00  0.00     0.036 A 
BRANCH  14  16
HETATM   16  C2  UNL     1      29.813  22.797  45.429  1.00  0.00     0.034 C 
HETATM   17  C1  UNL     1      30.823  23.906  45.463  1.00  0.00     0.010 C 
ENDBRANCH  14  16
ENDBRANCH   8  10
ENDBRANCH   7   8
ENDBRANCH   1   7
BRANCH   6  18
HETATM   18  C15 UNL     1      33.043  18.690  51.549  1.00  0.00    -0.025 A 
HETATM   19  C16 UNL     1      33.563  19.799  52.143  1.00  0.00     0.012 A 
HETATM   20  C17 UNL     1      34.849  19.838  52.642  1.00  0.00     0.001 A 
HETATM   21  C18 UNL     1      35.664  18.735  52.556  1.00  0.00     0.000 A 
HETATM   22  C19 UNL     1      35.156  17.603  51.959  1.00  0.00     0.001 A 
HETATM   23  C20 UNL     1      33.883  17.577  51.469  1.00  0.00     0.012 A 
ENDBRANCH   6  18
TORSDOF 5
ENDMDL
MODEL 3
REMARK VINA RESULT: -9.654873362      0.925      1.271
REMARK  5 active torsions:
REMARK  status: ('A' for Active; 'I' for Inactive)
REMARK    1  A    between atoms: C2_2  and  C3_3 
REMARK    2  A    between atoms: C7_7  and  N1_8 
REMARK    3  A    between atoms: N1_8  and  C8_10 
REMARK    4  A    between atoms: C8_10  and  C9_11 
REMARK    5  A    between atoms: C14_16  and  C15_17 
ROOT
HETATM    1  C9  UNL     1      31.512  18.823  49.583  1.00  0.00    -0.029 A 
HETATM    2  C10 UNL     1      30.190  18.821  49.205  1.00  0.00     0.010 A 
HETATM    3  C11 UNL     1      29.159  18.646  50.130  1.00  0.00     0.001 A 
HETATM    4  C12 UNL     1      29.395  18.467  51.469  1.00  0.00     0.001 A 
HETATM    5  C13 UNL     1      30.711  18.470  51.854  1.00  0.00     0.013 A 
HETATM    6  C14 UNL     1      31.751  18.643  50.947  1.00  0.00    -0.018 A 
ENDROOT
BRANCH   1   7
HETATM    7  C8  UNL     1      32.653  18.978  48.666  1.00  0.00     0.159 C 
BRANCH   7   8
HETATM    8  N1  UNL     1      32.388  19.863  47.586  1.00  0.00    -0.386 N 
ATOM      9  H1  UNL     1      32.589  20.859  47.666  1.00  0.00     0.160 HD
BRANCH   8  10
HETATM   10  C7  UNL     1      31.828  19.318  46.373  1.00  0.00     0.028 A 
HETATM   11  C6  UNL     1      32.102  18.018  46.008  1.00  0.00     0.029 A 
HETATM   12  C5  UNL     1      31.560  17.504  44.845  1.00  0.00     0.003 A 
HETATM   13  C4  UNL     1      30.744  18.259  44.028  1.00  0.00     0.007 A 
HETATM   14  C3  UNL     1      30.461  19.560  44.379  1.00  0.00    -0.056 A 
HETATM   15  C21 UNL     1      31.008  20.060  45.542  1.00  0.00     0.036 A 
BRANCH  14  16
HETATM   16  C2  UNL     1      29.602  20.462  43.585  1.00  0.00     0.034 C 
HETATM   17  C1  UNL     1      29.892  21.915  43.820  1.00  0.00     0.010 C 
ENDBRANCH  14  16
ENDBRANCH   8  10
ENDBRANCH   7   8
ENDBRANCH   1   7
BRANCH   6  18
HETATM   18  C15 UNL     1      33.108  18.655  51.478  1.00  0.00    -0.025 A 
HETATM   19  C16 UNL     1      33.985  17.619  51.385  1.00  0.00     0.012 A 
HETATM   20  C17 UNL     1      35.255  17.672  51.924  1.00  0.00     0.001 A 
HETATM   21  C18 UNL     1      35.685  18.798  52.585  1.00  0.00     0.000 A 
HETATM   22  C19 UNL     1      34.813  19.858  52.688  1.00  0.00     0.001 A 
HETATM   23  C20 UNL     1      33.559  19.792  52.152  1.00  0.00     0.012 A 
ENDBRANCH   6  18
TORSDOF 5
ENDMDL
MODEL 4
REMARK VINA RESULT: -9.485411025      0.660      1.875
REMARK  5 active torsions:
REMARK  status: ('A' for Active; 'I' for Inactive)
REMARK    1  A    between atoms: C2_2  and  C3_3 
REMARK    2  A    between atoms: C7_7  and  N1_8 
REMARK    3  A    between atoms: N1_8  and  C8_10 
REMARK    4  A    between atoms: C8_10  and  C9_11 
REMARK    5  A    between atoms: C14_16  and  C15_17 
ROOT
HETATM    1  C9  UNL     1      31.469  18.607  49.566  1.00  0.00    -0.029 A 
HETATM    2  C10 UNL     1      30.148  18.589  49.189  1.00  0.00     0.010 A 
HETATM    3  C11 UNL     1      29.114  18.529  50.126  1.00  0.00     0.001 A 
HETATM    4  C12 UNL     1      29.348  18.486  51.477  1.00  0.00     0.001 A 
HETATM    5  C13 UNL     1      30.664  18.505  51.861  1.00  0.00     0.013 A 
HETATM    6  C14 UNL     1      31.706  18.565  50.942  1.00  0.00    -0.018 A 
ENDROOT
BRANCH   1   7
HETATM    7  C8  UNL     1      32.613  18.645  48.639  1.00  0.00     0.159 C 
BRANCH   7   8
HETATM    8  N1  UNL     1      32.765  19.900  47.989  1.00  0.00    -0.386 N 
ATOM      9  H1  UNL     1      33.540  20.520  48.226  1.00  0.00     0.160 HD
BRANCH   8  10
HETATM   10  C7  UNL     1      31.798  20.276  46.988  1.00  0.00     0.028 A 
HETATM   11  C6  UNL     1      31.056  21.427  47.142  1.00  0.00     0.029 A 
HETATM   12  C5  UNL     1      30.132  21.781  46.176  1.00  0.00     0.003 A 
HETATM   13  C4  UNL     1      29.927  21.011  45.051  1.00  0.00     0.007 A 
HETATM   14  C3  UNL     1      30.661  19.858  44.883  1.00  0.00    -0.056 A 
HETATM   15  C21 UNL     1      31.579  19.517  45.853  1.00  0.00     0.036 A 
BRANCH  14  16
HETATM   16  C2  UNL     1      30.528  18.957  43.721  1.00  0.00     0.034 C 
HETATM   17  C1  UNL     1      31.847  18.531  43.147  1.00  0.00     0.010 C 
ENDBRANCH  14  16
ENDBRANCH   8  10
ENDBRANCH   7   8
ENDBRANCH   1   7
BRANCH   6  18
HETATM   18  C15 UNL     1      33.064  18.608  51.471  1.00  0.00    -0.025 A 
HETATM   19  C16 UNL     1      33.951  17.578  51.410  1.00  0.00     0.012 A 
HETATM   20  C17 UNL     1      35.221  17.660  51.946  1.00  0.00     0.001 A 
HETATM   21  C18 UNL     1      35.640  18.811  52.569  1.00  0.00     0.000 A 
HETATM   22  C19 UNL     1      34.757  19.865  52.639  1.00  0.00     0.001 A 
HETATM   23  C20 UNL     1      33.504  19.770  52.107  1.00  0.00     0.012 A 
ENDBRANCH   6  18
TORSDOF 5
ENDMDL
MODEL 5
REMARK VINA RESULT: -9.417572354      1.497      7.396
REMARK  5 active torsions:
REMARK  status: ('A' for Active; 'I' for Inactive)
REMARK    1  A    between atoms: C2_2  and  C3_3 
REMARK    2  A    between atoms: C7_7  and  N1_8 
REMARK    3  A    between atoms: N1_8  and  C8_10 
REMARK    4  A    between atoms: C8_10  and  C9_11 
REMARK    5  A    between atoms: C14_16  and  C15_17 
ROOT
HETATM    1  C9  UNL     1      31.054  19.254  45.998  1.00  0.00    -0.029 A 
HETATM    2  C10 UNL     1      31.978  18.308  45.625  1.00  0.00     0.010 A 
HETATM    3  C11 UNL     1      32.164  17.945  44.289  1.00  0.00     0.001 A 
HETATM    4  C12 UNL     1      31.440  18.507  43.268  1.00  0.00     0.001 A 
HETATM    5  C13 UNL     1      30.517  19.451  43.633  1.00  0.00     0.013 A 
HETATM    6  C14 UNL     1      30.318  19.825  44.957  1.00  0.00    -0.018 A 
ENDROOT
BRANCH   1   7
HETATM    7  C8  UNL     1      30.784  19.671  47.385  1.00  0.00     0.159 C 
BRANCH   7   8
HETATM    8  N1  UNL     1      30.587  18.577  48.270  1.00  0.00    -0.386 N 
ATOM      9  H1  UNL     1      30.037  17.767  47.984  1.00  0.00     0.160 HD
BRANCH   8  10
HETATM   10  C7  UNL     1      31.183  18.639  49.582  1.00  0.00     0.028 A 
HETATM   11  C6  UNL     1      30.389  18.568  50.706  1.00  0.00     0.029 A 
HETATM   12  C5  UNL     1      30.969  18.626  51.960  1.00  0.00     0.003 A 
HETATM   13  C4  UNL     1      32.332  18.756  52.124  1.00  0.00     0.007 A 
HETATM   14  C3  UNL     1      33.139  18.830  51.010  1.00  0.00    -0.056 A 
HETATM   15  C21 UNL     1      32.547  18.769  49.766  1.00  0.00     0.036 A 
BRANCH  14  16
HETATM   16  C2  UNL     1      34.608  18.969  51.062  1.00  0.00     0.034 C 
HETATM   17  C1  UNL     1      35.114  19.401  52.407  1.00  0.00     0.010 C 
ENDBRANCH  14  16
ENDBRANCH   8  10
ENDBRANCH   7   8
ENDBRANCH   1   7
BRANCH   6  18
HETATM   18  C15 UNL     1      29.327  20.861  45.220  1.00  0.00    -0.025 A 
HETATM   19  C16 UNL     1      28.355  20.779  46.169  1.00  0.00     0.012 A 
HETATM   20  C17 UNL     1      27.425  21.780  46.365  1.00  0.00     0.001 A 
HETATM   21  C18 UNL     1      27.452  22.918  45.594  1.00  0.00     0.000 A 
HETATM   22  C19 UNL     1      28.429  23.020  44.629  1.00  0.00     0.001 A 
HETATM   23  C20 UNL     1      29.342  22.022  44.445  1.00  0.00     0.012 A 
ENDBRANCH   6  18
TORSDOF 5
ENDMDL
