MODEL 1
REMARK VINA RESULT: -10.606858147      0.000      0.000
REMARK  5 active torsions:
REMARK  status: ('A' for Active; 'I' for Inactive)
REMARK    1  A    between atoms: C2_2  and  C3_3 
REMARK    2  A    between atoms: C6_6  and  C7_7 
REMARK    3  A    between atoms: C10_10  and  N1_11 
REMARK    4  A    between atoms: N1_11  and  C11_13 
REMARK    5  A    between atoms: C11_13  and  C12_14 
ROOT
HETATM    1  C7  UNL     1      33.124  18.678  51.283  1.00  0.00    -0.026 A 
HETATM    2  C8  UNL     1      31.827  18.523  51.663  1.00  0.00     0.014 A 
HETATM    3  C9  UNL     1      30.794  18.720  50.738  1.00  0.00     0.030 A 
HETATM    4  C10 UNL     1      31.064  19.076  49.435  1.00  0.00     0.028 A 
HETATM    5  C18 UNL     1      32.378  19.234  49.052  1.00  0.00     0.030 A 
HETATM    6  C19 UNL     1      33.406  19.036  49.972  1.00  0.00     0.014 A 
ENDROOT
BRANCH   4   7
HETATM    7  N1  UNL     1      30.005  19.281  48.477  1.00  0.00    -0.386 N 
ATOM      8  H1  UNL     1      29.763  18.525  47.837  1.00  0.00     0.160 HD
BRANCH   7   9
HETATM    9  C11 UNL     1      29.286  20.510  48.398  1.00  0.00     0.158 C 
BRANCH   9  10
HETATM   10  C12 UNL     1      29.674  21.419  47.319  1.00  0.00    -0.041 A 
HETATM   11  C13 UNL     1      28.718  21.721  46.337  1.00  0.00     0.009 A 
HETATM   12  C14 UNL     1      29.008  22.570  45.294  1.00  0.00     0.001 A 
HETATM   13  C15 UNL     1      30.243  23.164  45.157  1.00  0.00     0.000 A 
HETATM   14  C16 UNL     1      31.192  22.876  46.113  1.00  0.00     0.001 A 
HETATM   15  C17 UNL     1      30.892  22.023  47.157  1.00  0.00     0.009 A 
ENDBRANCH   9  10
ENDBRANCH   7   9
ENDBRANCH   4   7
BRANCH   1  16
HETATM   16  C6  UNL     1      34.269  18.491  52.181  1.00  0.00    -0.026 A 
HETATM   17  C5  UNL     1      34.152  18.691  53.549  1.00  0.00     0.013 A 
HETATM   18  C4  UNL     1      35.179  18.532  54.425  1.00  0.00     0.008 A 
HETATM   19  C3  UNL     1      36.426  18.147  53.948  1.00  0.00    -0.059 A 
HETATM   20  C21 UNL     1      36.581  17.937  52.590  1.00  0.00     0.008 A 
HETATM   21  C20 UNL     1      35.513  18.110  51.726  1.00  0.00     0.013 A 
BRANCH  19  22
HETATM   22  C2  UNL     1      37.593  17.949  54.807  1.00  0.00     0.034 C 
HETATM   23  C1  UNL     1      37.986  16.513  54.995  1.00  0.00     0.010 C 
ENDBRANCH  19  22
ENDBRANCH   1  16
TORSDOF 5
ENDMDL
MODEL 2
REMARK VINA RESULT: -10.599070469      0.054      1.010
REMARK  5 active torsions:
REMARK  status: ('A' for Active; 'I' for Inactive)
REMARK    1  A    between atoms: C2_2  and  C3_3 
REMARK    2  A    between atoms: C6_6  and  C7_7 
REMARK    3  A    between atoms: C10_10  and  N1_11 
REMARK    4  A    between atoms: N1_11  and  C11_13 
REMARK    5  A    between atoms: C11_13  and  C12_14 
ROOT
HETATM    1  C7  UNL     1      33.106  18.652  51.277  1.00  0.00    -0.026 A 
HETATM    2  C8  UNL     1      31.808  18.489  51.650  1.00  0.00     0.014 A 
HETATM    3  C9  UNL     1      30.779  18.690  50.724  1.00  0.00     0.030 A 
HETATM    4  C10 UNL     1      31.053  19.058  49.425  1.00  0.00     0.028 A 
HETATM    5  C18 UNL     1      32.367  19.224  49.048  1.00  0.00     0.030 A 
HETATM    6  C19 UNL     1      33.393  19.022  49.971  1.00  0.00     0.014 A 
ENDROOT
BRANCH   4   7
HETATM    7  N1  UNL     1      29.996  19.267  48.464  1.00  0.00    -0.386 N 
ATOM      8  H1  UNL     1      29.757  18.513  47.820  1.00  0.00     0.160 HD
BRANCH   7   9
HETATM    9  C11 UNL     1      29.278  20.496  48.387  1.00  0.00     0.158 C 
BRANCH   9  10
HETATM   10  C12 UNL     1      29.658  21.402  47.303  1.00  0.00    -0.041 A 
HETATM   11  C13 UNL     1      28.699  21.688  46.319  1.00  0.00     0.009 A 
HETATM   12  C14 UNL     1      28.981  22.534  45.271  1.00  0.00     0.001 A 
HETATM   13  C15 UNL     1      30.211  23.140  45.131  1.00  0.00     0.000 A 
HETATM   14  C16 UNL     1      31.162  22.867  46.090  1.00  0.00     0.001 A 
HETATM   15  C17 UNL     1      30.870  22.017  47.139  1.00  0.00     0.009 A 
ENDBRANCH   9  10
ENDBRANCH   7   9
ENDBRANCH   4   7
BRANCH   1  16
HETATM   16  C6  UNL     1      34.249  18.462  52.178  1.00  0.00    -0.026 A 
HETATM   17  C5  UNL     1      35.491  18.077  51.696  1.00  0.00     0.013 A 
HETATM   18  C4  UNL     1      36.581  17.887  52.484  1.00  0.00     0.008 A 
HETATM   19  C3  UNL     1      36.471  18.084  53.856  1.00  0.00    -0.059 A 
HETATM   20  C21 UNL     1      35.247  18.468  54.374  1.00  0.00     0.008 A 
HETATM   21  C20 UNL     1      34.158  18.652  53.541  1.00  0.00     0.013 A 
BRANCH  19  22
HETATM   22  C2  UNL     1      37.582  17.906  54.789  1.00  0.00     0.034 C 
HETATM   23  C1  UNL     1      37.996  16.478  54.993  1.00  0.00     0.010 C 
ENDBRANCH  19  22
ENDBRANCH   1  16
TORSDOF 5
ENDMDL
MODEL 3
REMARK VINA RESULT: -10.580083418      0.054      1.002
REMARK  5 active torsions:
REMARK  status: ('A' for Active; 'I' for Inactive)
REMARK    1  A    between atoms: C2_2  and  C3_3 
REMARK    2  A    between atoms: C6_6  and  C7_7 
REMARK    3  A    between atoms: C10_10  and  N1_11 
REMARK    4  A    between atoms: N1_11  and  C11_13 
REMARK    5  A    between atoms: C11_13  and  C12_14 
ROOT
HETATM    1  C7  UNL     1      33.134  18.669  51.267  1.00  0.00    -0.026 A 
HETATM    2  C8  UNL     1      31.836  18.507  51.640  1.00  0.00     0.014 A 
HETATM    3  C9  UNL     1      30.807  18.710  50.713  1.00  0.00     0.030 A 
HETATM    4  C10 UNL     1      31.081  19.076  49.414  1.00  0.00     0.028 A 
HETATM    5  C18 UNL     1      32.396  19.241  49.037  1.00  0.00     0.030 A 
HETATM    6  C19 UNL     1      33.421  19.038  49.960  1.00  0.00     0.014 A 
ENDROOT
BRANCH   4   7
HETATM    7  N1  UNL     1      30.025  19.287  48.453  1.00  0.00    -0.386 N 
ATOM      8  H1  UNL     1      29.809  18.546  47.786  1.00  0.00     0.160 HD
BRANCH   7   9
HETATM    9  C11 UNL     1      29.276  20.498  48.408  1.00  0.00     0.158 C 
BRANCH   9  10
HETATM   10  C12 UNL     1      29.543  21.383  47.273  1.00  0.00    -0.041 A 
HETATM   11  C13 UNL     1      30.814  21.972  47.183  1.00  0.00     0.009 A 
HETATM   12  C14 UNL     1      31.140  22.812  46.144  1.00  0.00     0.001 A 
HETATM   13  C15 UNL     1      30.245  23.119  45.143  1.00  0.00     0.000 A 
HETATM   14  C16 UNL     1      28.993  22.548  45.219  1.00  0.00     0.001 A 
HETATM   15  C17 UNL     1      28.674  21.705  46.266  1.00  0.00     0.009 A 
ENDBRANCH   9  10
ENDBRANCH   7   9
ENDBRANCH   4   7
BRANCH   1  16
HETATM   16  C6  UNL     1      34.276  18.478  52.168  1.00  0.00    -0.026 A 
HETATM   17  C5  UNL     1      34.158  18.684  53.535  1.00  0.00     0.013 A 
HETATM   18  C4  UNL     1      35.181  18.522  54.414  1.00  0.00     0.008 A 
HETATM   19  C3  UNL     1      36.427  18.127  53.941  1.00  0.00    -0.059 A 
HETATM   20  C21 UNL     1      36.584  17.911  52.584  1.00  0.00     0.008 A 
HETATM   21  C20 UNL     1      35.519  18.087  51.718  1.00  0.00     0.013 A 
BRANCH  19  22
HETATM   22  C2  UNL     1      37.590  17.924  54.803  1.00  0.00     0.034 C 
HETATM   23  C1  UNL     1      37.986  16.487  54.981  1.00  0.00     0.010 C 
ENDBRANCH  19  22
ENDBRANCH   1  16
TORSDOF 5
ENDMDL
MODEL 4
REMARK VINA RESULT: -10.566465230      0.066      1.422
REMARK  5 active torsions:
REMARK  status: ('A' for Active; 'I' for Inactive)
REMARK    1  A    between atoms: C2_2  and  C3_3 
REMARK    2  A    between atoms: C6_6  and  C7_7 
REMARK    3  A    between atoms: C10_10  and  N1_11 
REMARK    4  A    between atoms: N1_11  and  C11_13 
REMARK    5  A    between atoms: C11_13  and  C12_14 
ROOT
HETATM    1  C7  UNL     1      33.122  18.690  51.286  1.00  0.00    -0.026 A 
HETATM    2  C8  UNL     1      31.821  18.537  51.652  1.00  0.00     0.014 A 
HETATM    3  C9  UNL     1      30.798  18.742  50.719  1.00  0.00     0.030 A 
HETATM    4  C10 UNL     1      31.082  19.104  49.420  1.00  0.00     0.028 A 
HETATM    5  C18 UNL     1      32.400  19.259  49.051  1.00  0.00     0.030 A 
HETATM    6  C19 UNL     1      33.419  19.053  49.980  1.00  0.00     0.014 A 
ENDROOT
BRANCH   4   7
HETATM    7  N1  UNL     1      30.033  19.318  48.453  1.00  0.00    -0.386 N 
ATOM      8  H1  UNL     1      29.814  18.575  47.789  1.00  0.00     0.160 HD
BRANCH   7   9
HETATM    9  C11 UNL     1      29.293  20.535  48.398  1.00  0.00     0.158 C 
BRANCH   9  10
HETATM   10  C12 UNL     1      29.565  21.406  47.254  1.00  0.00    -0.041 A 
HETATM   11  C13 UNL     1      30.832  22.003  47.168  1.00  0.00     0.009 A 
HETATM   12  C14 UNL     1      31.162  22.831  46.120  1.00  0.00     0.001 A 
HETATM   13  C15 UNL     1      30.274  23.118  45.107  1.00  0.00     0.000 A 
HETATM   14  C16 UNL     1      29.026  22.539  45.179  1.00  0.00     0.001 A 
HETATM   15  C17 UNL     1      28.703  21.709  46.235  1.00  0.00     0.009 A 
ENDBRANCH   9  10
ENDBRANCH   7   9
ENDBRANCH   4   7
BRANCH   1  16
HETATM   16  C6  UNL     1      34.258  18.495  52.194  1.00  0.00    -0.026 A 
HETATM   17  C5  UNL     1      35.515  18.155  51.714  1.00  0.00     0.013 A 
HETATM   18  C4  UNL     1      36.599  17.963  52.509  1.00  0.00     0.008 A 
HETATM   19  C3  UNL     1      36.469  18.109  53.886  1.00  0.00    -0.059 A 
HETATM   20  C21 UNL     1      35.231  18.448  54.401  1.00  0.00     0.008 A 
HETATM   21  C20 UNL     1      34.147  18.636  53.561  1.00  0.00     0.013 A 
BRANCH  19  22
HETATM   22  C2  UNL     1      37.573  17.925  54.826  1.00  0.00     0.034 C 
HETATM   23  C1  UNL     1      37.989  16.496  55.019  1.00  0.00     0.010 C 
ENDBRANCH  19  22
ENDBRANCH   1  16
TORSDOF 5
ENDMDL
MODEL 5
REMARK VINA RESULT: -10.274725729      1.964      2.069
REMARK  5 active torsions:
REMARK  status: ('A' for Active; 'I' for Inactive)
REMARK    1  A    between atoms: C2_2  and  C3_3 
REMARK    2  A    between atoms: C6_6  and  C7_7 
REMARK    3  A    between atoms: C10_10  and  N1_11 
REMARK    4  A    between atoms: N1_11  and  C11_13 
REMARK    5  A    between atoms: C11_13  and  C12_14 
ROOT
HETATM    1  C7  UNL     1      33.123  18.687  51.283  1.00  0.00    -0.026 A 
HETATM    2  C8  UNL     1      31.821  18.530  51.647  1.00  0.00     0.014 A 
HETATM    3  C9  UNL     1      30.800  18.735  50.712  1.00  0.00     0.030 A 
HETATM    4  C10 UNL     1      31.085  19.099  49.415  1.00  0.00     0.028 A 
HETATM    5  C18 UNL     1      32.402  19.259  49.047  1.00  0.00     0.030 A 
HETATM    6  C19 UNL     1      33.420  19.054  49.978  1.00  0.00     0.014 A 
ENDROOT
BRANCH   4   7
HETATM    7  N1  UNL     1      30.036  19.311  48.446  1.00  0.00    -0.386 N 
ATOM      8  H1  UNL     1      29.152  18.815  48.557  1.00  0.00     0.160 HD
BRANCH   7   9
HETATM    9  C11 UNL     1      30.200  20.193  47.338  1.00  0.00     0.158 C 
BRANCH   9  10
HETATM   10  C12 UNL     1      30.434  19.564  46.038  1.00  0.00    -0.041 A 
HETATM   11  C13 UNL     1      30.001  20.244  44.890  1.00  0.00     0.009 A 
HETATM   12  C14 UNL     1      30.189  19.717  43.633  1.00  0.00     0.001 A 
HETATM   13  C15 UNL     1      30.808  18.502  43.435  1.00  0.00     0.000 A 
HETATM   14  C16 UNL     1      31.238  17.823  44.554  1.00  0.00     0.001 A 
HETATM   15  C17 UNL     1      31.045  18.360  45.812  1.00  0.00     0.009 A 
ENDBRANCH   9  10
ENDBRANCH   7   9
ENDBRANCH   4   7
BRANCH   1  16
HETATM   16  C6  UNL     1      34.258  18.494  52.193  1.00  0.00    -0.026 A 
HETATM   17  C5  UNL     1      34.130  18.700  53.559  1.00  0.00     0.013 A 
HETATM   18  C4  UNL     1      35.146  18.535  54.445  1.00  0.00     0.008 A 
HETATM   19  C3  UNL     1      36.395  18.137  53.982  1.00  0.00    -0.059 A 
HETATM   20  C21 UNL     1      36.561  17.921  52.626  1.00  0.00     0.008 A 
HETATM   21  C20 UNL     1      35.503  18.099  51.752  1.00  0.00     0.013 A 
BRANCH  19  22
HETATM   22  C2  UNL     1      37.551  17.932  54.852  1.00  0.00     0.034 C 
HETATM   23  C1  UNL     1      37.965  16.497  55.003  1.00  0.00     0.010 C 
ENDBRANCH  19  22
ENDBRANCH   1  16
TORSDOF 5
ENDMDL
