MODEL 1
REMARK VINA RESULT: -10.190925242      0.000      0.000
REMARK  4 active torsions:
REMARK  status: ('A' for Active; 'I' for Inactive)
REMARK    1  A    between atoms: C2_2  and  C3_3 
REMARK    2  A    between atoms: C3_3  and  C4_4 
REMARK    3  A    between atoms: C4_4  and  C5_5 
REMARK    4  A    between atoms: C5_5  and  C6_6 
ROOT
HETATM    1  C6  UNL     1      32.346  19.356  49.432  1.00  0.00    -0.056 A 
HETATM    2  C7  UNL     1      31.232  18.676  49.884  1.00  0.00     0.033 A 
HETATM    3  C8  UNL     1      29.984  18.857  49.280  1.00  0.00     0.047 A 
HETATM    4  N1  UNL     1      28.826  18.164  49.734  1.00  0.00    -0.102 NA
HETATM    5  C9  UNL     1      29.910  19.737  48.219  1.00  0.00     0.038 A 
HETATM    6  C10 UNL     1      30.990  20.439  47.731  1.00  0.00    -0.023 A 
HETATM    7  C11 UNL     1      30.914  21.358  46.623  1.00  0.00    -0.015 A 
HETATM    8  C12 UNL     1      31.332  22.668  46.849  1.00  0.00     0.013 A 
HETATM    9  C13 UNL     1      31.261  23.626  45.859  1.00  0.00     0.002 A 
HETATM   10  C14 UNL     1      30.771  23.319  44.608  1.00  0.00     0.012 A 
HETATM   11  C15 UNL     1      30.358  22.020  44.384  1.00  0.00    -0.025 A 
HETATM   12  C16 UNL     1      29.878  21.693  43.146  1.00  0.00     0.012 A 
HETATM   13  C17 UNL     1      29.450  20.421  42.818  1.00  0.00     0.001 A 
HETATM   14  C18 UNL     1      29.525  19.468  43.809  1.00  0.00     0.001 A 
HETATM   15  C19 UNL     1      30.003  19.769  45.064  1.00  0.00     0.013 A 
HETATM   16  C20 UNL     1      30.426  21.049  45.375  1.00  0.00    -0.015 A 
HETATM   17  C21 UNL     1      32.217  20.221  48.373  1.00  0.00     0.019 A 
ENDROOT
BRANCH   1  18
HETATM   18  C5  UNL     1      33.648  19.151  50.081  1.00  0.00     0.038 C 
BRANCH  18  19
HETATM   19  C4  UNL     1      33.531  18.514  51.452  1.00  0.00     0.005 C 
BRANCH  19  20
HETATM   20  C3  UNL     1      33.697  19.649  52.463  1.00  0.00    -0.000 C 
BRANCH  20  21
HETATM   21  C2  UNL     1      35.057  19.573  53.132  1.00  0.00    -0.005 C 
HETATM   22  C1  UNL     1      34.857  18.866  54.457  1.00  0.00     0.005 C 
ENDBRANCH  20  21
ENDBRANCH  19  20
ENDBRANCH  18  19
ENDBRANCH   1  18
TORSDOF 4
ENDMDL
MODEL 2
REMARK VINA RESULT: -9.933333791      2.024      6.996
REMARK  4 active torsions:
REMARK  status: ('A' for Active; 'I' for Inactive)
REMARK    1  A    between atoms: C2_2  and  C3_3 
REMARK    2  A    between atoms: C3_3  and  C4_4 
REMARK    3  A    between atoms: C4_4  and  C5_5 
REMARK    4  A    between atoms: C5_5  and  C6_6 
ROOT
HETATM    1  C6  UNL     1      29.840  20.603  45.445  1.00  0.00    -0.056 A 
HETATM    2  C7  UNL     1      30.489  21.817  45.334  1.00  0.00     0.033 A 
HETATM    3  C8  UNL     1      31.153  22.381  46.428  1.00  0.00     0.047 A 
HETATM    4  N1  UNL     1      31.826  23.632  46.331  1.00  0.00    -0.102 NA
HETATM    5  C9  UNL     1      31.136  21.679  47.616  1.00  0.00     0.038 A 
HETATM    6  C10 UNL     1      30.504  20.465  47.779  1.00  0.00    -0.023 A 
HETATM    7  C11 UNL     1      30.487  19.731  49.019  1.00  0.00    -0.015 A 
HETATM    8  C12 UNL     1      29.240  19.413  49.555  1.00  0.00     0.013 A 
HETATM    9  C13 UNL     1      29.125  18.744  50.756  1.00  0.00     0.002 A 
HETATM   10  C14 UNL     1      30.242  18.369  51.470  1.00  0.00     0.012 A 
HETATM   11  C15 UNL     1      31.477  18.683  50.938  1.00  0.00    -0.025 A 
HETATM   12  C16 UNL     1      32.598  18.310  51.626  1.00  0.00     0.012 A 
HETATM   13  C17 UNL     1      33.878  18.569  51.174  1.00  0.00     0.001 A 
HETATM   14  C18 UNL     1      33.988  19.234  49.974  1.00  0.00     0.001 A 
HETATM   15  C19 UNL     1      32.878  19.622  49.260  1.00  0.00     0.013 A 
HETATM   16  C20 UNL     1      31.603  19.356  49.729  1.00  0.00    -0.015 A 
HETATM   17  C21 UNL     1      29.853  19.945  46.651  1.00  0.00     0.019 A 
ENDROOT
BRANCH   1  18
HETATM   18  C5  UNL     1      29.148  20.029  44.284  1.00  0.00     0.038 C 
BRANCH  18  19
HETATM   19  C4  UNL     1      30.066  19.807  43.099  1.00  0.00     0.005 C 
BRANCH  19  20
HETATM   20  C3  UNL     1      30.582  18.373  43.224  1.00  0.00    -0.000 C 
BRANCH  20  21
HETATM   21  C2  UNL     1      32.031  18.366  43.676  1.00  0.00    -0.005 C 
HETATM   22  C1  UNL     1      32.081  17.596  44.980  1.00  0.00     0.005 C 
ENDBRANCH  20  21
ENDBRANCH  19  20
ENDBRANCH  18  19
ENDBRANCH   1  18
TORSDOF 4
ENDMDL
MODEL 3
REMARK VINA RESULT: -9.358455326      1.082      1.123
REMARK  4 active torsions:
REMARK  status: ('A' for Active; 'I' for Inactive)
REMARK    1  A    between atoms: C2_2  and  C3_3 
REMARK    2  A    between atoms: C3_3  and  C4_4 
REMARK    3  A    between atoms: C4_4  and  C5_5 
REMARK    4  A    between atoms: C5_5  and  C6_6 
ROOT
HETATM    1  C6  UNL     1      31.821  19.771  50.252  1.00  0.00    -0.056 A 
HETATM    2  C7  UNL     1      30.770  18.928  50.558  1.00  0.00     0.033 A 
HETATM    3  C8  UNL     1      29.694  18.772  49.678  1.00  0.00     0.047 A 
HETATM    4  N1  UNL     1      28.602  17.908  49.978  1.00  0.00    -0.102 NA
HETATM    5  C9  UNL     1      29.723  19.489  48.499  1.00  0.00     0.038 A 
HETATM    6  C10 UNL     1      30.747  20.341  48.148  1.00  0.00    -0.023 A 
HETATM    7  C11 UNL     1      30.779  21.090  46.916  1.00  0.00    -0.015 A 
HETATM    8  C12 UNL     1      30.890  22.476  47.013  1.00  0.00     0.013 A 
HETATM    9  C13 UNL     1      30.892  23.276  45.890  1.00  0.00     0.002 A 
HETATM   10  C14 UNL     1      30.782  22.731  44.629  1.00  0.00     0.012 A 
HETATM   11  C15 UNL     1      30.674  21.357  44.533  1.00  0.00    -0.025 A 
HETATM   12  C16 UNL     1      30.575  20.796  43.291  1.00  0.00     0.012 A 
HETATM   13  C17 UNL     1      30.472  19.434  43.088  1.00  0.00     0.001 A 
HETATM   14  C18 UNL     1      30.473  18.638  44.211  1.00  0.00     0.001 A 
HETATM   15  C19 UNL     1      30.571  19.175  45.474  1.00  0.00     0.013 A 
HETATM   16  C20 UNL     1      30.672  20.543  45.659  1.00  0.00    -0.015 A 
HETATM   17  C21 UNL     1      31.801  20.462  49.065  1.00  0.00     0.019 A 
ENDROOT
BRANCH   1  18
HETATM   18  C5  UNL     1      32.941  19.921  51.190  1.00  0.00     0.038 C 
BRANCH  18  19
HETATM   19  C4  UNL     1      34.110  19.014  50.864  1.00  0.00     0.005 C 
BRANCH  19  20
HETATM   20  C3  UNL     1      35.121  19.200  51.996  1.00  0.00    -0.000 C 
BRANCH  20  21
HETATM   21  C2  UNL     1      36.239  18.180  51.886  1.00  0.00    -0.005 C 
HETATM   22  C1  UNL     1      36.729  17.912  53.295  1.00  0.00     0.005 C 
ENDBRANCH  20  21
ENDBRANCH  19  20
ENDBRANCH  18  19
ENDBRANCH   1  18
TORSDOF 4
ENDMDL
MODEL 4
REMARK VINA RESULT: -9.011269742      1.282      1.696
REMARK  4 active torsions:
REMARK  status: ('A' for Active; 'I' for Inactive)
REMARK    1  A    between atoms: C2_2  and  C3_3 
REMARK    2  A    between atoms: C3_3  and  C4_4 
REMARK    3  A    between atoms: C4_4  and  C5_5 
REMARK    4  A    between atoms: C5_5  and  C6_6 
ROOT
HETATM    1  C6  UNL     1      32.145  19.769  50.940  1.00  0.00    -0.056 A 
HETATM    2  C7  UNL     1      31.142  18.926  51.376  1.00  0.00     0.033 A 
HETATM    3  C8  UNL     1      30.057  18.611  50.552  1.00  0.00     0.047 A 
HETATM    4  N1  UNL     1      29.014  17.745  50.987  1.00  0.00    -0.102 NA
HETATM    5  C9  UNL     1      30.029  19.173  49.292  1.00  0.00     0.038 A 
HETATM    6  C10 UNL     1      31.004  20.019  48.809  1.00  0.00    -0.023 A 
HETATM    7  C11 UNL     1      30.975  20.606  47.493  1.00  0.00    -0.015 A 
HETATM    8  C12 UNL     1      31.022  21.996  47.412  1.00  0.00     0.013 A 
HETATM    9  C13 UNL     1      30.963  22.647  46.197  1.00  0.00     0.002 A 
HETATM   10  C14 UNL     1      30.854  21.942  45.018  1.00  0.00     0.012 A 
HETATM   11  C15 UNL     1      30.809  20.564  45.099  1.00  0.00    -0.025 A 
HETATM   12  C16 UNL     1      30.711  19.846  43.940  1.00  0.00     0.012 A 
HETATM   13  C17 UNL     1      30.670  18.465  43.913  1.00  0.00     0.001 A 
HETATM   14  C18 UNL     1      30.731  17.820  45.127  1.00  0.00     0.001 A 
HETATM   15  C19 UNL     1      30.829  18.516  46.309  1.00  0.00     0.013 A 
HETATM   16  C20 UNL     1      30.868  19.899  46.317  1.00  0.00    -0.015 A 
HETATM   17  C21 UNL     1      32.069  20.301  49.676  1.00  0.00     0.019 A 
ENDROOT
BRANCH   1  18
HETATM   18  C5  UNL     1      33.276  20.086  51.822  1.00  0.00     0.038 C 
BRANCH  18  19
HETATM   19  C4  UNL     1      33.648  18.941  52.742  1.00  0.00     0.005 C 
BRANCH  19  20
HETATM   20  C3  UNL     1      34.862  19.415  53.541  1.00  0.00    -0.000 C 
BRANCH  20  21
HETATM   21  C2  UNL     1      35.879  18.296  53.680  1.00  0.00    -0.005 C 
HETATM   22  C1  UNL     1      36.363  17.965  52.283  1.00  0.00     0.005 C 
ENDBRANCH  20  21
ENDBRANCH  19  20
ENDBRANCH  18  19
ENDBRANCH   1  18
TORSDOF 4
ENDMDL
MODEL 5
REMARK VINA RESULT: -8.248952990      2.288      3.115
REMARK  4 active torsions:
REMARK  status: ('A' for Active; 'I' for Inactive)
REMARK    1  A    between atoms: C2_2  and  C3_3 
REMARK    2  A    between atoms: C3_3  and  C4_4 
REMARK    3  A    between atoms: C4_4  and  C5_5 
REMARK    4  A    between atoms: C5_5  and  C6_6 
ROOT
HETATM    1  C6  UNL     1      32.364  19.120  48.533  1.00  0.00    -0.056 A 
HETATM    2  C7  UNL     1      32.688  18.029  47.750  1.00  0.00     0.033 A 
HETATM    3  C8  UNL     1      32.008  17.773  46.555  1.00  0.00     0.047 A 
HETATM    4  N1  UNL     1      32.329  16.653  45.737  1.00  0.00    -0.102 NA
HETATM    5  C9  UNL     1      31.006  18.650  46.190  1.00  0.00     0.038 A 
HETATM    6  C10 UNL     1      30.645  19.751  46.935  1.00  0.00    -0.023 A 
HETATM    7  C11 UNL     1      29.599  20.668  46.555  1.00  0.00    -0.015 A 
HETATM    8  C12 UNL     1      28.557  20.859  47.460  1.00  0.00     0.013 A 
HETATM    9  C13 UNL     1      27.495  21.689  47.167  1.00  0.00     0.002 A 
HETATM   10  C14 UNL     1      27.427  22.359  45.965  1.00  0.00     0.012 A 
HETATM   11  C15 UNL     1      28.461  22.170  45.068  1.00  0.00    -0.025 A 
HETATM   12  C16 UNL     1      28.418  22.833  43.874  1.00  0.00     0.012 A 
HETATM   13  C17 UNL     1      29.407  22.720  42.915  1.00  0.00     0.001 A 
HETATM   14  C18 UNL     1      30.466  21.893  43.213  1.00  0.00     0.001 A 
HETATM   15  C19 UNL     1      30.536  21.212  44.407  1.00  0.00     0.013 A 
HETATM   16  C20 UNL     1      29.536  21.337  45.354  1.00  0.00    -0.015 A 
HETATM   17  C21 UNL     1      31.358  19.961  48.124  1.00  0.00     0.019 A 
ENDROOT
BRANCH   1  18
HETATM   18  C5  UNL     1      33.091  19.370  49.785  1.00  0.00     0.038 C 
BRANCH  18  19
HETATM   19  C4  UNL     1      32.175  19.724  50.939  1.00  0.00     0.005 C 
BRANCH  19  20
HETATM   20  C3  UNL     1      31.641  18.397  51.480  1.00  0.00    -0.000 C 
BRANCH  20  21
HETATM   21  C2  UNL     1      30.177  18.526  51.860  1.00  0.00    -0.005 C 
HETATM   22  C1  UNL     1      29.387  18.547  50.567  1.00  0.00     0.005 C 
ENDBRANCH  20  21
ENDBRANCH  19  20
ENDBRANCH  18  19
ENDBRANCH   1  18
TORSDOF 4
ENDMDL
