MODEL 1
REMARK VINA RESULT: -8.067483463      0.000      0.000
REMARK  8 active torsions:
REMARK  status: ('A' for Active; 'I' for Inactive)
REMARK    1  A    between atoms: O1_2  and  C2_3 
REMARK       I    between atoms: C2_3  and  N1_5 
REMARK    2  A    between atoms: N1_5  and  C4_7 
REMARK    3  A    between atoms: C4_7  and  C5_8 
REMARK    4  A    between atoms: C5_8  and  C6_9 
REMARK    5  A    between atoms: C6_9  and  C7_10 
REMARK    6  A    between atoms: C7_10  and  C8_11 
REMARK    7  A    between atoms: C8_11  and  C9_12 
REMARK    8  A    between atoms: C16_20  and  N2_22 
ROOT
HETATM    1  C9  UNL     1      -1.266  -7.375  -8.719  1.00  0.00    -0.002 C 
HETATM    2  C10 UNL     1      -2.769  -7.289  -8.564  1.00  0.00     0.083 C 
HETATM    3  C11 UNL     1      -2.990  -7.874  -7.242  1.00  0.00     0.132 C 
HETATM    4  O3  UNL     1      -3.886  -7.540  -6.475  1.00  0.00    -0.298 OA
HETATM    5  C12 UNL     1      -1.943  -8.912  -7.040  1.00  0.00     0.065 C 
HETATM    6  C13 UNL     1      -0.747  -8.318  -7.701  1.00  0.00     0.005 C 
HETATM    7  C14 UNL     1       0.074  -9.451  -8.275  1.00  0.00     0.042 C 
HETATM    8  C15 UNL     1      -0.711 -10.177  -9.337  1.00  0.00    -0.051 C 
HETATM    9  C16 UNL     1      -0.189 -10.302 -10.518  1.00  0.00     0.036 C 
HETATM   10  C17 UNL     1       1.164  -9.735 -10.820  1.00  0.00     0.070 C 
HETATM   11  C20 UNL     1      -2.014 -10.665  -8.885  1.00  0.00     0.021 C 
HETATM   12  C21 UNL     1      -2.178 -12.164  -8.880  1.00  0.00     0.010 C 
HETATM   13  C22 UNL     1      -3.653 -12.452  -8.796  1.00  0.00     0.009 C 
HETATM   14  C23 UNL     1      -4.361 -11.769  -7.697  1.00  0.00    -0.047 C 
HETATM   15  C24 UNL     1      -4.474 -12.748  -6.523  1.00  0.00     0.015 C 
HETATM   16  C25 UNL     1      -5.812 -11.563  -8.165  1.00  0.00     0.015 C 
HETATM   17  C26 UNL     1      -3.804 -10.477  -7.232  1.00  0.00     0.015 C 
HETATM   18  C27 UNL     1      -2.343 -10.269  -7.474  1.00  0.00     0.006 C 
ENDROOT
BRANCH   1  19
HETATM   19  C8  UNL     1      -0.710  -5.978  -8.604  1.00  0.00     0.005 C 
BRANCH  19  20
HETATM   20  C7  UNL     1      -0.064  -5.696  -7.296  1.00  0.00     0.000 C 
BRANCH  20  21
HETATM   21  C6  UNL     1       1.424  -5.582  -7.444  1.00  0.00     0.002 C 
BRANCH  21  22
HETATM   22  C5  UNL     1       2.221  -6.424  -6.509  1.00  0.00     0.020 C 
BRANCH  22  23
HETATM   23  C4  UNL     1       3.668  -6.078  -6.563  1.00  0.00     0.127 C 
BRANCH  23  24
HETATM   24  N1  UNL     1       4.571  -7.123  -6.887  1.00  0.00    -0.332 N 
HETATM   25  C2  UNL     1       5.836  -7.262  -6.255  1.00  0.00     0.361 C 
HETATM   26  O2  UNL     1       6.627  -8.202  -6.572  1.00  0.00    -0.238 OA
HETATM   27  C3  UNL     1       4.209  -8.084  -7.905  1.00  0.00     0.155 C 
BRANCH  25  28
HETATM   28  O1  UNL     1       6.278  -6.394  -5.266  1.00  0.00    -0.309 OA
HETATM   29  C1  UNL     1       6.314  -6.824  -3.928  1.00  0.00     0.215 C 
ENDBRANCH  25  28
ENDBRANCH  23  24
ENDBRANCH  22  23
ENDBRANCH  21  22
ENDBRANCH  20  21
ENDBRANCH  19  20
ENDBRANCH   1  19
BRANCH   9  30
HETATM   30  N2  UNL     1      -0.819 -10.960 -11.614  1.00  0.00    -0.232 N 
HETATM   31  N3  UNL     1      -1.783 -10.519 -12.398  1.00  0.00    -0.220 N 
HETATM   32  N4  UNL     1      -2.089 -11.433 -13.299  1.00  0.00    -0.226 N 
ATOM     33  H3  UNL     1      -2.228  -9.604 -12.318  1.00  0.00     0.210 HD
HETATM   34  N5  UNL     1      -1.315 -12.479 -13.099  1.00  0.00    -0.272 N 
ATOM     35  H4  UNL     1      -2.801 -11.345 -14.025  1.00  0.00     0.210 HD
HETATM   36  C18 UNL     1      -0.529 -12.186 -12.057  1.00  0.00     0.116 A 
ATOM     37  H5  UNL     1      -1.314 -13.346 -13.635  1.00  0.00     0.190 HD
HETATM   38  C19 UNL     1       0.502 -13.078 -11.476  1.00  0.00     0.092 C 
ENDBRANCH   9  30
TORSDOF 8
ENDMDL
MODEL 2
REMARK VINA RESULT: -8.043603152      0.742      1.092
REMARK  8 active torsions:
REMARK  status: ('A' for Active; 'I' for Inactive)
REMARK    1  A    between atoms: O1_2  and  C2_3 
REMARK       I    between atoms: C2_3  and  N1_5 
REMARK    2  A    between atoms: N1_5  and  C4_7 
REMARK    3  A    between atoms: C4_7  and  C5_8 
REMARK    4  A    between atoms: C5_8  and  C6_9 
REMARK    5  A    between atoms: C6_9  and  C7_10 
REMARK    6  A    between atoms: C7_10  and  C8_11 
REMARK    7  A    between atoms: C8_11  and  C9_12 
REMARK    8  A    between atoms: C16_20  and  N2_22 
ROOT
HETATM    1  C9  UNL     1      -1.302  -7.401  -8.712  1.00  0.00    -0.002 C 
HETATM    2  C10 UNL     1      -2.795  -7.276  -8.499  1.00  0.00     0.083 C 
HETATM    3  C11 UNL     1      -2.990  -7.922  -7.203  1.00  0.00     0.132 C 
HETATM    4  O3  UNL     1      -3.848  -7.602  -6.387  1.00  0.00    -0.298 OA
HETATM    5  C12 UNL     1      -1.970  -9.002  -7.091  1.00  0.00     0.065 C 
HETATM    6  C13 UNL     1      -0.780  -8.411  -7.762  1.00  0.00     0.005 C 
HETATM    7  C14 UNL     1      -0.015  -9.537  -8.423  1.00  0.00     0.042 C 
HETATM    8  C15 UNL     1      -0.859 -10.183  -9.492  1.00  0.00    -0.051 C 
HETATM    9  C16 UNL     1      -0.383 -10.261 -10.696  1.00  0.00     0.036 C 
HETATM   10  C17 UNL     1       0.977  -9.721 -11.016  1.00  0.00     0.070 C 
HETATM   11  C20 UNL     1      -2.162 -10.653  -9.019  1.00  0.00     0.021 C 
HETATM   12  C21 UNL     1      -2.375 -12.144  -9.086  1.00  0.00     0.010 C 
HETATM   13  C22 UNL     1      -3.854 -12.391  -8.964  1.00  0.00     0.009 C 
HETATM   14  C23 UNL     1      -4.502 -11.745  -7.806  1.00  0.00    -0.047 C 
HETATM   15  C24 UNL     1      -4.607 -12.780  -6.681  1.00  0.00     0.015 C 
HETATM   16  C25 UNL     1      -5.961 -11.470  -8.211  1.00  0.00     0.015 C 
HETATM   17  C26 UNL     1      -3.887 -10.496  -7.297  1.00  0.00     0.015 C 
HETATM   18  C27 UNL     1      -2.429 -10.321  -7.579  1.00  0.00     0.006 C 
ENDROOT
BRANCH   1  19
HETATM   19  C8  UNL     1      -0.696  -6.029  -8.546  1.00  0.00     0.005 C 
BRANCH  19  20
HETATM   20  C7  UNL     1      -0.072  -5.807  -7.216  1.00  0.00     0.000 C 
BRANCH  20  21
HETATM   21  C6  UNL     1       1.409  -5.618  -7.341  1.00  0.00     0.002 C 
BRANCH  21  22
HETATM   22  C5  UNL     1       2.238  -6.513  -6.487  1.00  0.00     0.020 C 
BRANCH  22  23
HETATM   23  C4  UNL     1       3.670  -6.106  -6.500  1.00  0.00     0.127 C 
BRANCH  23  24
HETATM   24  N1  UNL     1       4.618  -7.088  -6.888  1.00  0.00    -0.332 N 
HETATM   25  C2  UNL     1       5.886  -7.215  -6.261  1.00  0.00     0.361 C 
HETATM   26  O2  UNL     1       6.718  -8.097  -6.636  1.00  0.00    -0.238 OA
HETATM   27  C3  UNL     1       4.300  -7.992  -7.970  1.00  0.00     0.155 C 
BRANCH  25  28
HETATM   28  O1  UNL     1       6.288  -6.397  -5.213  1.00  0.00    -0.309 OA
HETATM   29  C1  UNL     1       6.353  -6.918  -3.909  1.00  0.00     0.215 C 
ENDBRANCH  25  28
ENDBRANCH  23  24
ENDBRANCH  22  23
ENDBRANCH  21  22
ENDBRANCH  20  21
ENDBRANCH  19  20
ENDBRANCH   1  19
BRANCH   9  30
HETATM   30  N2  UNL     1      -1.071 -10.841 -11.801  1.00  0.00    -0.232 N 
HETATM   31  N3  UNL     1      -0.905 -12.031 -12.344  1.00  0.00    -0.220 N 
HETATM   32  N4  UNL     1      -1.742 -12.190 -13.353  1.00  0.00    -0.226 N 
ATOM     33  H3  UNL     1      -0.229 -12.727 -12.030  1.00  0.00     0.210 HD
HETATM   34  N5  UNL     1      -2.458 -11.092 -13.466  1.00  0.00    -0.272 N 
ATOM     35  H4  UNL     1      -1.820 -13.020 -13.942  1.00  0.00     0.210 HD
HETATM   36  C18 UNL     1      -2.043 -10.257 -12.506  1.00  0.00     0.116 A 
ATOM     37  H5  UNL     1      -3.189 -10.911 -14.153  1.00  0.00     0.190 HD
HETATM   38  C19 UNL     1      -2.573  -8.896 -12.258  1.00  0.00     0.092 C 
ENDBRANCH   9  30
TORSDOF 8
ENDMDL
MODEL 3
REMARK VINA RESULT: -8.012832345      1.204      1.892
REMARK  8 active torsions:
REMARK  status: ('A' for Active; 'I' for Inactive)
REMARK    1  A    between atoms: O1_2  and  C2_3 
REMARK       I    between atoms: C2_3  and  N1_5 
REMARK    2  A    between atoms: N1_5  and  C4_7 
REMARK    3  A    between atoms: C4_7  and  C5_8 
REMARK    4  A    between atoms: C5_8  and  C6_9 
REMARK    5  A    between atoms: C6_9  and  C7_10 
REMARK    6  A    between atoms: C7_10  and  C8_11 
REMARK    7  A    between atoms: C8_11  and  C9_12 
REMARK    8  A    between atoms: C16_20  and  N2_22 
ROOT
HETATM    1  C9  UNL     1      -1.324  -7.284  -8.716  1.00  0.00    -0.002 C 
HETATM    2  C10 UNL     1      -2.813  -7.184  -8.461  1.00  0.00     0.083 C 
HETATM    3  C11 UNL     1      -2.961  -7.838  -7.163  1.00  0.00     0.132 C 
HETATM    4  O3  UNL     1      -3.801  -7.534  -6.322  1.00  0.00    -0.298 OA
HETATM    5  C12 UNL     1      -1.923  -8.902  -7.085  1.00  0.00     0.065 C 
HETATM    6  C13 UNL     1      -0.761  -8.290  -7.786  1.00  0.00     0.005 C 
HETATM    7  C14 UNL     1       0.002  -9.402  -8.473  1.00  0.00     0.042 C 
HETATM    8  C15 UNL     1      -0.862 -10.056  -9.521  1.00  0.00    -0.051 C 
HETATM    9  C16 UNL     1      -0.418 -10.123 -10.738  1.00  0.00     0.036 C 
HETATM   10  C17 UNL     1       0.925  -9.560 -11.094  1.00  0.00     0.070 C 
HETATM   11  C20 UNL     1      -2.143 -10.548  -9.014  1.00  0.00     0.021 C 
HETATM   12  C21 UNL     1      -2.335 -12.042  -9.081  1.00  0.00     0.010 C 
HETATM   13  C22 UNL     1      -3.806 -12.312  -8.919  1.00  0.00     0.009 C 
HETATM   14  C23 UNL     1      -4.432 -11.681  -7.741  1.00  0.00    -0.047 C 
HETATM   15  C24 UNL     1      -4.489 -12.722  -6.618  1.00  0.00     0.015 C 
HETATM   16  C25 UNL     1      -5.905 -11.427  -8.104  1.00  0.00     0.015 C 
HETATM   17  C26 UNL     1      -3.821 -10.425  -7.243  1.00  0.00     0.015 C 
HETATM   18  C27 UNL     1      -2.375 -10.226  -7.565  1.00  0.00     0.006 C 
ENDROOT
BRANCH   1  19
HETATM   19  C8  UNL     1      -0.736  -5.905  -8.561  1.00  0.00     0.005 C 
BRANCH  19  20
HETATM   20  C7  UNL     1       0.336  -5.822  -7.534  1.00  0.00     0.000 C 
BRANCH  20  21
HETATM   21  C6  UNL     1       1.007  -4.482  -7.563  1.00  0.00     0.002 C 
BRANCH  21  22
HETATM   22  C5  UNL     1       2.266  -4.386  -6.773  1.00  0.00     0.020 C 
BRANCH  22  23
HETATM   23  C4  UNL     1       2.532  -5.642  -6.018  1.00  0.00     0.127 C 
BRANCH  23  24
HETATM   24  N1  UNL     1       3.843  -6.179  -6.098  1.00  0.00    -0.332 N 
HETATM   25  C2  UNL     1       4.231  -7.100  -7.107  1.00  0.00     0.361 C 
HETATM   26  O2  UNL     1       5.409  -7.570  -7.148  1.00  0.00    -0.238 OA
HETATM   27  C3  UNL     1       4.830  -5.790  -5.115  1.00  0.00     0.155 C 
BRANCH  25  28
HETATM   28  O1  UNL     1       3.361  -7.536  -8.097  1.00  0.00    -0.309 OA
HETATM   29  C1  UNL     1       3.725  -8.618  -8.917  1.00  0.00     0.215 C 
ENDBRANCH  25  28
ENDBRANCH  23  24
ENDBRANCH  22  23
ENDBRANCH  21  22
ENDBRANCH  20  21
ENDBRANCH  19  20
ENDBRANCH   1  19
BRANCH   9  30
HETATM   30  N2  UNL     1      -1.127 -10.708 -11.825  1.00  0.00    -0.232 N 
HETATM   31  N3  UNL     1      -0.968 -11.899 -12.369  1.00  0.00    -0.220 N 
HETATM   32  N4  UNL     1      -1.826 -12.065 -13.359  1.00  0.00    -0.226 N 
ATOM     33  H3  UNL     1      -0.282 -12.591 -12.068  1.00  0.00     0.210 HD
HETATM   34  N5  UNL     1      -2.550 -10.970 -13.458  1.00  0.00    -0.272 N 
ATOM     35  H4  UNL     1      -1.913 -12.896 -13.944  1.00  0.00     0.210 HD
HETATM   36  C18 UNL     1      -2.118 -10.131 -12.510  1.00  0.00     0.116 A 
ATOM     37  H5  UNL     1      -3.297 -10.794 -14.130  1.00  0.00     0.190 HD
HETATM   38  C19 UNL     1      -2.648  -8.771 -12.254  1.00  0.00     0.092 C 
ENDBRANCH   9  30
TORSDOF 8
ENDMDL
MODEL 4
REMARK VINA RESULT: -7.954343854      0.793      1.442
REMARK  8 active torsions:
REMARK  status: ('A' for Active; 'I' for Inactive)
REMARK    1  A    between atoms: O1_2  and  C2_3 
REMARK       I    between atoms: C2_3  and  N1_5 
REMARK    2  A    between atoms: N1_5  and  C4_7 
REMARK    3  A    between atoms: C4_7  and  C5_8 
REMARK    4  A    between atoms: C5_8  and  C6_9 
REMARK    5  A    between atoms: C6_9  and  C7_10 
REMARK    6  A    between atoms: C7_10  and  C8_11 
REMARK    7  A    between atoms: C8_11  and  C9_12 
REMARK    8  A    between atoms: C16_20  and  N2_22 
ROOT
HETATM    1  C9  UNL     1      -1.278  -7.357  -8.706  1.00  0.00    -0.002 C 
HETATM    2  C10 UNL     1      -2.784  -7.296  -8.562  1.00  0.00     0.083 C 
HETATM    3  C11 UNL     1      -3.004  -7.874  -7.238  1.00  0.00     0.132 C 
HETATM    4  O3  UNL     1      -3.912  -7.551  -6.480  1.00  0.00    -0.298 OA
HETATM    5  C12 UNL     1      -1.941  -8.893  -7.020  1.00  0.00     0.065 C 
HETATM    6  C13 UNL     1      -0.751  -8.283  -7.676  1.00  0.00     0.005 C 
HETATM    7  C14 UNL     1       0.095  -9.405  -8.235  1.00  0.00     0.042 C 
HETATM    8  C15 UNL     1      -0.670 -10.154  -9.297  1.00  0.00    -0.051 C 
HETATM    9  C16 UNL     1      -0.137 -10.279 -10.474  1.00  0.00     0.036 C 
HETATM   10  C17 UNL     1       1.208  -9.690 -10.769  1.00  0.00     0.070 C 
HETATM   11  C20 UNL     1      -1.968 -10.661  -8.851  1.00  0.00     0.021 C 
HETATM   12  C21 UNL     1      -2.106 -12.162  -8.836  1.00  0.00     0.010 C 
HETATM   13  C22 UNL     1      -3.575 -12.476  -8.760  1.00  0.00     0.009 C 
HETATM   14  C23 UNL     1      -4.304 -11.796  -7.672  1.00  0.00    -0.047 C 
HETATM   15  C24 UNL     1      -4.409 -12.768  -6.491  1.00  0.00     0.015 C 
HETATM   16  C25 UNL     1      -5.755 -11.619  -8.152  1.00  0.00     0.015 C 
HETATM   17  C26 UNL     1      -3.773 -10.491  -7.213  1.00  0.00     0.015 C 
HETATM   18  C27 UNL     1      -2.314 -10.259  -7.445  1.00  0.00     0.006 C 
ENDROOT
BRANCH   1  19
HETATM   19  C8  UNL     1      -0.747  -5.949  -8.597  1.00  0.00     0.005 C 
BRANCH  19  20
HETATM   20  C7  UNL     1      -0.138  -5.639  -7.279  1.00  0.00     0.000 C 
BRANCH  20  21
HETATM   21  C6  UNL     1       1.337  -5.401  -7.410  1.00  0.00     0.002 C 
BRANCH  21  22
HETATM   22  C5  UNL     1       2.195  -6.233  -6.521  1.00  0.00     0.020 C 
BRANCH  22  23
HETATM   23  C4  UNL     1       3.145  -7.068  -7.307  1.00  0.00     0.127 C 
BRANCH  23  24
HETATM   24  N1  UNL     1       4.522  -6.957  -6.986  1.00  0.00    -0.332 N 
HETATM   25  C2  UNL     1       5.540  -7.566  -7.768  1.00  0.00     0.361 C 
HETATM   26  O2  UNL     1       6.764  -7.457  -7.451  1.00  0.00    -0.238 OA
HETATM   27  C3  UNL     1       4.919  -6.208  -5.815  1.00  0.00     0.155 C 
BRANCH  25  28
HETATM   28  O1  UNL     1       5.265  -8.305  -8.910  1.00  0.00    -0.309 OA
HETATM   29  C1  UNL     1       5.534  -7.757 -10.176  1.00  0.00     0.215 C 
ENDBRANCH  25  28
ENDBRANCH  23  24
ENDBRANCH  22  23
ENDBRANCH  21  22
ENDBRANCH  20  21
ENDBRANCH  19  20
ENDBRANCH   1  19
BRANCH   9  30
HETATM   30  N2  UNL     1      -0.747 -10.956 -11.568  1.00  0.00    -0.232 N 
HETATM   31  N3  UNL     1      -1.738 -10.554 -12.339  1.00  0.00    -0.220 N 
HETATM   32  N4  UNL     1      -2.011 -11.474 -13.245  1.00  0.00    -0.226 N 
ATOM     33  H3  UNL     1      -2.224  -9.662 -12.247  1.00  0.00     0.210 HD
HETATM   34  N5  UNL     1      -1.187 -12.484 -13.062  1.00  0.00    -0.272 N 
ATOM     35  H4  UNL     1      -2.734 -11.413 -13.963  1.00  0.00     0.210 HD
HETATM   36  C18 UNL     1      -0.405 -12.164 -12.025  1.00  0.00     0.116 A 
ATOM     37  H5  UNL     1      -1.151 -13.346 -13.606  1.00  0.00     0.190 HD
HETATM   38  C19 UNL     1       0.672 -13.011 -11.462  1.00  0.00     0.092 C 
ENDBRANCH   9  30
TORSDOF 8
ENDMDL
MODEL 5
REMARK VINA RESULT: -7.818204734      1.478      2.246
REMARK  8 active torsions:
REMARK  status: ('A' for Active; 'I' for Inactive)
REMARK    1  A    between atoms: O1_2  and  C2_3 
REMARK       I    between atoms: C2_3  and  N1_5 
REMARK    2  A    between atoms: N1_5  and  C4_7 
REMARK    3  A    between atoms: C4_7  and  C5_8 
REMARK    4  A    between atoms: C5_8  and  C6_9 
REMARK    5  A    between atoms: C6_9  and  C7_10 
REMARK    6  A    between atoms: C7_10  and  C8_11 
REMARK    7  A    between atoms: C8_11  and  C9_12 
REMARK    8  A    between atoms: C16_20  and  N2_22 
ROOT
HETATM    1  C9  UNL     1      -0.631  -7.271  -8.652  1.00  0.00    -0.002 C 
HETATM    2  C10 UNL     1      -1.961  -7.109  -7.948  1.00  0.00     0.083 C 
HETATM    3  C11 UNL     1      -1.878  -8.096  -6.873  1.00  0.00     0.132 C 
HETATM    4  O3  UNL     1      -2.405  -7.973  -5.773  1.00  0.00    -0.298 OA
HETATM    5  C12 UNL     1      -1.057  -9.230  -7.379  1.00  0.00     0.065 C 
HETATM    6  C13 UNL     1      -0.028  -8.553  -8.217  1.00  0.00     0.005 C 
HETATM    7  C14 UNL     1       0.325  -9.484  -9.356  1.00  0.00     0.042 C 
HETATM    8  C15 UNL     1      -0.882  -9.720 -10.229  1.00  0.00    -0.051 C 
HETATM    9  C16 UNL     1      -0.788  -9.471 -11.499  1.00  0.00     0.036 C 
HETATM   10  C17 UNL     1       0.492  -8.958 -12.084  1.00  0.00     0.070 C 
HETATM   11  C20 UNL     1      -2.053 -10.215  -9.504  1.00  0.00     0.021 C 
HETATM   12  C21 UNL     1      -2.512 -11.599  -9.885  1.00  0.00     0.010 C 
HETATM   13  C22 UNL     1      -3.915 -11.765  -9.366  1.00  0.00     0.009 C 
HETATM   14  C23 UNL     1      -4.093 -11.447  -7.936  1.00  0.00    -0.047 C 
HETATM   15  C24 UNL     1      -4.036 -12.760  -7.147  1.00  0.00     0.015 C 
HETATM   16  C25 UNL     1      -5.543 -10.960  -7.767  1.00  0.00     0.015 C 
HETATM   17  C26 UNL     1      -3.166 -10.454  -7.343  1.00  0.00     0.015 C 
HETATM   18  C27 UNL     1      -1.841 -10.308  -8.020  1.00  0.00     0.006 C 
ENDROOT
BRANCH   1  19
HETATM   19  C8  UNL     1       0.209  -6.059  -8.336  1.00  0.00     0.005 C 
BRANCH  19  20
HETATM   20  C7  UNL     1       1.497  -6.379  -7.669  1.00  0.00     0.000 C 
BRANCH  20  21
HETATM   21  C6  UNL     1       1.468  -5.985  -6.223  1.00  0.00     0.002 C 
BRANCH  21  22
HETATM   22  C5  UNL     1       2.780  -5.573  -5.651  1.00  0.00     0.020 C 
BRANCH  22  23
HETATM   23  C4  UNL     1       3.879  -5.722  -6.645  1.00  0.00     0.127 C 
BRANCH  23  24
HETATM   24  N1  UNL     1       4.921  -6.631  -6.326  1.00  0.00    -0.332 N 
HETATM   25  C2  UNL     1       5.157  -7.814  -7.076  1.00  0.00     0.361 C 
HETATM   26  O2  UNL     1       6.091  -8.614  -6.762  1.00  0.00    -0.238 OA
HETATM   27  C3  UNL     1       5.775  -6.362  -5.191  1.00  0.00     0.155 C 
BRANCH  25  28
HETATM   28  O1  UNL     1       4.396  -8.164  -8.183  1.00  0.00    -0.309 OA
HETATM   29  C1  UNL     1       4.915  -7.971  -9.475  1.00  0.00     0.215 C 
ENDBRANCH  25  28
ENDBRANCH  23  24
ENDBRANCH  22  23
ENDBRANCH  21  22
ENDBRANCH  20  21
ENDBRANCH  19  20
ENDBRANCH   1  19
BRANCH   9  30
HETATM   30  N2  UNL     1      -1.846  -9.645 -12.436  1.00  0.00    -0.232 N 
HETATM   31  N3  UNL     1      -2.155 -10.714 -13.143  1.00  0.00    -0.220 N 
HETATM   32  N4  UNL     1      -3.210 -10.470 -13.898  1.00  0.00    -0.226 N 
ATOM     33  H3  UNL     1      -1.652 -11.600 -13.111  1.00  0.00     0.210 HD
HETATM   34  N5  UNL     1      -3.590  -9.229 -13.678  1.00  0.00    -0.272 N 
ATOM     35  H4  UNL     1      -3.653 -11.127 -14.540  1.00  0.00     0.210 HD
HETATM   36  C18 UNL     1      -2.747  -8.718 -12.774  1.00  0.00     0.116 A 
ATOM     37  H5  UNL     1      -4.377  -8.748 -14.114  1.00  0.00     0.190 HD
HETATM   38  C19 UNL     1      -2.796  -7.341 -12.229  1.00  0.00     0.092 C 
ENDBRANCH   9  30
TORSDOF 8
ENDMDL
