MODEL 1
REMARK VINA RESULT: -7.578987763      0.000      0.000
REMARK  9 active torsions:
REMARK  status: ('A' for Active; 'I' for Inactive)
REMARK    1  A    between atoms: C2_2  and  C3_3 
REMARK    2  A    between atoms: C3_3  and  C4_4 
REMARK    3  A    between atoms: C4_4  and  C5_5 
REMARK    4  A    between atoms: C5_5  and  C6_6 
REMARK    5  A    between atoms: C6_6  and  C7_8 
REMARK    6  A    between atoms: C14_16  and  O3_17 
REMARK    7  A    between atoms: O3_17  and  C15_18 
REMARK    8  A    between atoms: C21_25  and  O5_26 
REMARK    9  A    between atoms: O5_26  and  C22_27 
ROOT
HETATM    1  C7  UNL     1       0.880  -7.014  -7.672  1.00  0.00    -0.009 C 
HETATM    2  C8  UNL     1      -0.442  -6.996  -7.774  1.00  0.00    -0.064 C 
HETATM    3  C9  UNL     1      -1.174  -5.825  -7.276  1.00  0.00     0.045 C 
HETATM    4  C10 UNL     1      -1.411  -8.018  -8.330  1.00  0.00    -0.005 C 
HETATM    5  C11 UNL     1      -2.331  -8.410  -7.187  1.00  0.00     0.021 C 
HETATM    6  C12 UNL     1      -0.484  -9.218  -8.575  1.00  0.00     0.075 C 
HETATM    7  C13 UNL     1      -1.192 -10.445  -8.880  1.00  0.00     0.162 C 
HETATM    8  O2  UNL     1      -1.029 -11.484  -8.290  1.00  0.00    -0.295 OA
HETATM    9  C14 UNL     1      -2.148 -10.329  -9.992  1.00  0.00     0.210 C 
HETATM   10  C17 UNL     1      -1.897  -8.984 -10.603  1.00  0.00    -0.002 C 
HETATM   11  C18 UNL     1      -2.782  -8.896 -11.773  1.00  0.00     0.019 C 
HETATM   12  C19 UNL     1      -0.394  -8.958 -10.976  1.00  0.00     0.004 C 
HETATM   13  C20 UNL     1      -0.430  -7.809 -12.010  1.00  0.00     0.038 C 
HETATM   14  C21 UNL     1      -0.878  -6.521 -11.428  1.00  0.00     0.132 C 
HETATM   15  C24 UNL     1      -1.992  -6.592 -10.408  1.00  0.00     0.039 C 
HETATM   16  C25 UNL     1      -2.075  -7.814  -9.608  1.00  0.00     0.013 C 
HETATM   17  C26 UNL     1       0.290  -8.638  -9.749  1.00  0.00     0.003 C 
HETATM   18  C27 UNL     1       1.665  -8.814  -9.364  1.00  0.00     0.010 C 
HETATM   19  C28 UNL     1       1.838  -8.119  -8.039  1.00  0.00     0.043 C 
ENDROOT
BRANCH   1  20
HETATM   20  C6  UNL     1       1.506  -5.853  -7.070  1.00  0.00     0.155 C 
HETATM   21  O1  UNL     1       1.642  -4.773  -7.654  1.00  0.00    -0.293 OA
BRANCH  20  22
HETATM   22  C5  UNL     1       2.023  -5.959  -5.650  1.00  0.00     0.083 C 
BRANCH  22  23
HETATM   23  C4  UNL     1       3.303  -5.209  -5.452  1.00  0.00     0.008 C 
BRANCH  23  24
HETATM   24  C3  UNL     1       4.554  -5.938  -5.780  1.00  0.00     0.000 C 
BRANCH  24  25
HETATM   25  C2  UNL     1       5.092  -5.332  -7.075  1.00  0.00    -0.005 C 
HETATM   26  C1  UNL     1       5.092  -6.335  -8.185  1.00  0.00     0.005 C 
ENDBRANCH  24  25
ENDBRANCH  23  24
ENDBRANCH  22  23
ENDBRANCH  20  22
ENDBRANCH   1  20
BRANCH   9  27
HETATM   27  O3  UNL     1      -3.460 -10.622  -9.669  1.00  0.00    -0.308 OA
BRANCH  27  28
HETATM   28  C15 UNL     1      -4.145 -11.681 -10.245  1.00  0.00     0.255 C 
HETATM   29  C16 UNL     1      -3.384 -12.860 -10.694  1.00  0.00     0.126 C 
HETATM   30  O4  UNL     1      -5.389 -11.584 -10.357  1.00  0.00    -0.266 OA
ENDBRANCH  27  28
ENDBRANCH   9  27
BRANCH  14  31
HETATM   31  O5  UNL     1      -1.324  -5.667 -12.473  1.00  0.00    -0.316 OA
BRANCH  31  32
HETATM   32  C22 UNL     1      -0.714  -4.494 -12.849  1.00  0.00     0.255 C 
HETATM   33  C23 UNL     1      -1.282  -3.148 -12.527  1.00  0.00     0.126 C 
HETATM   34  O6  UNL     1       0.367  -4.622 -13.490  1.00  0.00    -0.266 OA
ENDBRANCH  31  32
ENDBRANCH  14  31
TORSDOF 9
ENDMDL
MODEL 2
REMARK VINA RESULT: -7.439108921      1.321      1.676
REMARK  9 active torsions:
REMARK  status: ('A' for Active; 'I' for Inactive)
REMARK    1  A    between atoms: C2_2  and  C3_3 
REMARK    2  A    between atoms: C3_3  and  C4_4 
REMARK    3  A    between atoms: C4_4  and  C5_5 
REMARK    4  A    between atoms: C5_5  and  C6_6 
REMARK    5  A    between atoms: C6_6  and  C7_8 
REMARK    6  A    between atoms: C14_16  and  O3_17 
REMARK    7  A    between atoms: O3_17  and  C15_18 
REMARK    8  A    between atoms: C21_25  and  O5_26 
REMARK    9  A    between atoms: O5_26  and  C22_27 
ROOT
HETATM    1  C7  UNL     1       0.689  -8.180  -8.161  1.00  0.00    -0.009 C 
HETATM    2  C8  UNL     1      -0.622  -8.010  -8.260  1.00  0.00    -0.064 C 
HETATM    3  C9  UNL     1      -1.247  -6.896  -7.536  1.00  0.00     0.045 C 
HETATM    4  C10 UNL     1      -1.674  -8.797  -9.012  1.00  0.00    -0.005 C 
HETATM    5  C11 UNL     1      -2.653  -9.317  -7.974  1.00  0.00     0.021 C 
HETATM    6  C12 UNL     1      -0.863 -10.010  -9.493  1.00  0.00     0.075 C 
HETATM    7  C13 UNL     1      -1.681 -11.073 -10.042  1.00  0.00     0.162 C 
HETATM    8  O2  UNL     1      -1.633 -12.220  -9.675  1.00  0.00    -0.295 OA
HETATM    9  C14 UNL     1      -2.597 -10.640 -11.109  1.00  0.00     0.210 C 
HETATM   10  C17 UNL     1      -2.202  -9.232 -11.434  1.00  0.00    -0.002 C 
HETATM   11  C18 UNL     1      -3.049  -8.822 -12.564  1.00  0.00     0.019 C 
HETATM   12  C19 UNL     1      -0.696  -9.281 -11.792  1.00  0.00     0.004 C 
HETATM   13  C20 UNL     1      -0.598  -7.950 -12.572  1.00  0.00     0.038 C 
HETATM   14  C21 UNL     1      -0.930  -6.767 -11.742  1.00  0.00     0.132 C 
HETATM   15  C24 UNL     1      -2.068  -6.931 -10.759  1.00  0.00     0.039 C 
HETATM   16  C25 UNL     1      -2.287  -8.274 -10.223  1.00  0.00     0.013 C 
HETATM   17  C26 UNL     1      -0.011  -9.286 -10.525  1.00  0.00     0.003 C 
HETATM   18  C27 UNL     1       1.332  -9.672 -10.181  1.00  0.00     0.010 C 
HETATM   19  C28 UNL     1       1.543  -9.279  -8.743  1.00  0.00     0.043 C 
ENDROOT
BRANCH   1  20
HETATM   20  C6  UNL     1       1.412  -7.233  -7.336  1.00  0.00     0.155 C 
HETATM   21  O1  UNL     1       0.961  -6.756  -6.290  1.00  0.00    -0.293 OA
BRANCH  20  22
HETATM   22  C5  UNL     1       2.797  -6.798  -7.770  1.00  0.00     0.083 C 
BRANCH  22  23
HETATM   23  C4  UNL     1       3.449  -5.891  -6.774  1.00  0.00     0.008 C 
BRANCH  23  24
HETATM   24  C3  UNL     1       3.810  -4.533  -7.254  1.00  0.00     0.000 C 
BRANCH  24  25
HETATM   25  C2  UNL     1       2.984  -3.542  -6.436  1.00  0.00    -0.005 C 
HETATM   26  C1  UNL     1       1.758  -3.113  -7.179  1.00  0.00     0.005 C 
ENDBRANCH  24  25
ENDBRANCH  23  24
ENDBRANCH  22  23
ENDBRANCH  20  22
ENDBRANCH   1  20
BRANCH   9  27
HETATM   27  O3  UNL     1      -3.937 -10.859 -10.854  1.00  0.00    -0.308 OA
BRANCH  27  28
HETATM   28  C15 UNL     1      -4.739 -11.611 -11.701  1.00  0.00     0.255 C 
HETATM   29  C16 UNL     1      -4.149 -12.767 -12.398  1.00  0.00     0.126 C 
HETATM   30  O4  UNL     1      -5.936 -11.267 -11.834  1.00  0.00    -0.266 OA
ENDBRANCH  27  28
ENDBRANCH   9  27
BRANCH  14  31
HETATM   31  O5  UNL     1      -1.268  -5.681 -12.593  1.00  0.00    -0.316 OA
BRANCH  31  32
HETATM   32  C22 UNL     1      -0.865  -4.379 -12.410  1.00  0.00     0.255 C 
HETATM   33  C23 UNL     1      -0.079  -3.624 -13.435  1.00  0.00     0.126 C 
HETATM   34  O6  UNL     1      -1.200  -3.854 -11.311  1.00  0.00    -0.266 OA
ENDBRANCH  31  32
ENDBRANCH  14  31
TORSDOF 9
ENDMDL
MODEL 3
REMARK VINA RESULT: -7.433297621      1.085      1.332
REMARK  9 active torsions:
REMARK  status: ('A' for Active; 'I' for Inactive)
REMARK    1  A    between atoms: C2_2  and  C3_3 
REMARK    2  A    between atoms: C3_3  and  C4_4 
REMARK    3  A    between atoms: C4_4  and  C5_5 
REMARK    4  A    between atoms: C5_5  and  C6_6 
REMARK    5  A    between atoms: C6_6  and  C7_8 
REMARK    6  A    between atoms: C14_16  and  O3_17 
REMARK    7  A    between atoms: O3_17  and  C15_18 
REMARK    8  A    between atoms: C21_25  and  O5_26 
REMARK    9  A    between atoms: O5_26  and  C22_27 
ROOT
HETATM    1  C7  UNL     1       0.446  -7.643  -7.868  1.00  0.00    -0.009 C 
HETATM    2  C8  UNL     1      -0.861  -7.600  -8.083  1.00  0.00    -0.064 C 
HETATM    3  C9  UNL     1      -1.642  -6.513  -7.478  1.00  0.00     0.045 C 
HETATM    4  C10 UNL     1      -1.771  -8.518  -8.871  1.00  0.00    -0.005 C 
HETATM    5  C11 UNL     1      -2.786  -9.073  -7.887  1.00  0.00     0.021 C 
HETATM    6  C12 UNL     1      -0.818  -9.673  -9.214  1.00  0.00     0.075 C 
HETATM    7  C13 UNL     1      -1.490 -10.834  -9.765  1.00  0.00     0.162 C 
HETATM    8  O2  UNL     1      -1.373 -11.952  -9.329  1.00  0.00    -0.295 OA
HETATM    9  C14 UNL     1      -2.345 -10.542 -10.925  1.00  0.00     0.210 C 
HETATM   10  C17 UNL     1      -2.049  -9.121 -11.299  1.00  0.00    -0.002 C 
HETATM   11  C18 UNL     1      -2.828  -8.848 -12.515  1.00  0.00     0.019 C 
HETATM   12  C19 UNL     1      -0.519  -9.049 -11.530  1.00  0.00     0.004 C 
HETATM   13  C20 UNL     1      -0.471  -7.755 -12.375  1.00  0.00     0.038 C 
HETATM   14  C21 UNL     1      -0.977  -6.568 -11.644  1.00  0.00     0.132 C 
HETATM   15  C24 UNL     1      -2.176  -6.787 -10.749  1.00  0.00     0.039 C 
HETATM   16  C25 UNL     1      -2.321  -8.116 -10.156  1.00  0.00     0.013 C 
HETATM   17  C26 UNL     1       0.052  -8.926 -10.213  1.00  0.00     0.003 C 
HETATM   18  C27 UNL     1       1.389  -9.169  -9.740  1.00  0.00     0.010 C 
HETATM   19  C28 UNL     1       1.441  -8.686  -8.314  1.00  0.00     0.043 C 
ENDROOT
BRANCH   1  20
HETATM   20  C6  UNL     1       1.010  -6.592  -7.043  1.00  0.00     0.155 C 
HETATM   21  O1  UNL     1       1.111  -6.670  -5.815  1.00  0.00    -0.293 OA
BRANCH  20  22
HETATM   22  C5  UNL     1       1.504  -5.327  -7.714  1.00  0.00     0.083 C 
BRANCH  22  23
HETATM   23  C4  UNL     1       2.370  -4.504  -6.812  1.00  0.00     0.008 C 
BRANCH  23  24
HETATM   24  C3  UNL     1       3.707  -4.130  -7.340  1.00  0.00     0.000 C 
BRANCH  24  25
HETATM   25  C2  UNL     1       4.673  -5.236  -6.918  1.00  0.00    -0.005 C 
HETATM   26  C1  UNL     1       4.479  -5.608  -5.481  1.00  0.00     0.005 C 
ENDBRANCH  24  25
ENDBRANCH  23  24
ENDBRANCH  22  23
ENDBRANCH  20  22
ENDBRANCH   1  20
BRANCH   9  27
HETATM   27  O3  UNL     1      -3.677 -10.871 -10.768  1.00  0.00    -0.308 OA
BRANCH  27  28
HETATM   28  C15 UNL     1      -4.251 -11.963 -11.404  1.00  0.00     0.255 C 
HETATM   29  C16 UNL     1      -3.457 -12.701 -12.402  1.00  0.00     0.126 C 
HETATM   30  O4  UNL     1      -5.425 -12.271 -11.096  1.00  0.00    -0.266 OA
ENDBRANCH  27  28
ENDBRANCH   9  27
BRANCH  14  31
HETATM   31  O5  UNL     1      -1.334  -5.561 -12.582  1.00  0.00    -0.316 OA
BRANCH  31  32
HETATM   32  C22 UNL     1      -0.803  -4.295 -12.621  1.00  0.00     0.255 C 
HETATM   33  C23 UNL     1       0.265  -3.894 -13.590  1.00  0.00     0.126 C 
HETATM   34  O6  UNL     1      -1.273  -3.479 -11.778  1.00  0.00    -0.266 OA
ENDBRANCH  31  32
ENDBRANCH  14  31
TORSDOF 9
ENDMDL
MODEL 4
REMARK VINA RESULT: -7.403657379      1.924      4.646
REMARK  9 active torsions:
REMARK  status: ('A' for Active; 'I' for Inactive)
REMARK    1  A    between atoms: C2_2  and  C3_3 
REMARK    2  A    between atoms: C3_3  and  C4_4 
REMARK    3  A    between atoms: C4_4  and  C5_5 
REMARK    4  A    between atoms: C5_5  and  C6_6 
REMARK    5  A    between atoms: C6_6  and  C7_8 
REMARK    6  A    between atoms: C14_16  and  O3_17 
REMARK    7  A    between atoms: O3_17  and  C15_18 
REMARK    8  A    between atoms: C21_25  and  O5_26 
REMARK    9  A    between atoms: O5_26  and  C22_27 
ROOT
HETATM    1  C7  UNL     1       0.646  -6.084  -7.837  1.00  0.00    -0.009 C 
HETATM    2  C8  UNL     1       0.869  -7.340  -8.201  1.00  0.00    -0.064 C 
HETATM    3  C9  UNL     1       1.977  -8.071  -7.577  1.00  0.00     0.045 C 
HETATM    4  C10 UNL     1       0.166  -8.221  -9.211  1.00  0.00    -0.005 C 
HETATM    5  C11 UNL     1       1.204  -8.606 -10.250  1.00  0.00     0.021 C 
HETATM    6  C12 UNL     1      -0.779  -7.218  -9.889  1.00  0.00     0.075 C 
HETATM    7  C13 UNL     1      -1.413  -7.736 -11.086  1.00  0.00     0.162 C 
HETATM    8  O2  UNL     1      -1.385  -7.185 -12.158  1.00  0.00    -0.295 OA
HETATM    9  C14 UNL     1      -2.112  -9.016 -10.892  1.00  0.00     0.210 C 
HETATM   10  C17 UNL     1      -2.122  -9.252  -9.413  1.00  0.00    -0.002 C 
HETATM   11  C18 UNL     1      -2.901 -10.481  -9.201  1.00  0.00     0.019 C 
HETATM   12  C19 UNL     1      -2.782  -8.000  -8.783  1.00  0.00     0.004 C 
HETATM   13  C20 UNL     1      -3.178  -8.607  -7.418  1.00  0.00     0.038 C 
HETATM   14  C21 UNL     1      -2.011  -9.072  -6.630  1.00  0.00     0.132 C 
HETATM   15  C24 UNL     1      -0.896  -9.738  -7.405  1.00  0.00     0.039 C 
HETATM   16  C25 UNL     1      -0.708  -9.306  -8.790  1.00  0.00     0.013 C 
HETATM   17  C26 UNL     1      -1.731  -7.016  -8.720  1.00  0.00     0.003 C 
HETATM   18  C27 UNL     1      -1.788  -5.586  -8.576  1.00  0.00     0.010 C 
HETATM   19  C28 UNL     1      -0.372  -5.112  -8.378  1.00  0.00     0.043 C 
ENDROOT
BRANCH   1  20
HETATM   20  C6  UNL     1       1.528  -5.529  -6.829  1.00  0.00     0.155 C 
HETATM   21  O1  UNL     1       1.633  -5.988  -5.687  1.00  0.00    -0.293 OA
BRANCH  20  22
HETATM   22  C5  UNL     1       2.372  -4.323  -7.186  1.00  0.00     0.083 C 
BRANCH  22  23
HETATM   23  C4  UNL     1       3.802  -4.485  -6.775  1.00  0.00     0.008 C 
BRANCH  23  24
HETATM   24  C3  UNL     1       4.646  -5.344  -7.644  1.00  0.00     0.000 C 
BRANCH  24  25
HETATM   25  C2  UNL     1       5.477  -6.230  -6.716  1.00  0.00    -0.005 C 
HETATM   26  C1  UNL     1       5.169  -5.949  -5.278  1.00  0.00     0.005 C 
ENDBRANCH  24  25
ENDBRANCH  23  24
ENDBRANCH  22  23
ENDBRANCH  20  22
ENDBRANCH   1  20
BRANCH   9  27
HETATM   27  O3  UNL     1      -1.656 -10.057 -11.678  1.00  0.00    -0.308 OA
BRANCH  27  28
HETATM   28  C15 UNL     1      -2.451 -10.663 -12.639  1.00  0.00     0.255 C 
HETATM   29  C16 UNL     1      -3.294  -9.816 -13.501  1.00  0.00     0.126 C 
HETATM   30  O4  UNL     1      -2.414 -11.912 -12.729  1.00  0.00    -0.266 OA
ENDBRANCH  27  28
ENDBRANCH   9  27
BRANCH  14  31
HETATM   31  O5  UNL     1      -2.452 -10.001  -5.650  1.00  0.00    -0.316 OA
BRANCH  31  32
HETATM   32  C22 UNL     1      -2.682 -11.337  -5.877  1.00  0.00     0.255 C 
HETATM   33  C23 UNL     1      -4.033 -11.878  -6.223  1.00  0.00     0.126 C 
HETATM   34  O6  UNL     1      -1.673 -12.091  -5.772  1.00  0.00    -0.266 OA
ENDBRANCH  31  32
ENDBRANCH  14  31
TORSDOF 9
ENDMDL
MODEL 5
REMARK VINA RESULT: -7.364817466      2.140      6.739
REMARK  9 active torsions:
REMARK  status: ('A' for Active; 'I' for Inactive)
REMARK    1  A    between atoms: C2_2  and  C3_3 
REMARK    2  A    between atoms: C3_3  and  C4_4 
REMARK    3  A    between atoms: C4_4  and  C5_5 
REMARK    4  A    between atoms: C5_5  and  C6_6 
REMARK    5  A    between atoms: C6_6  and  C7_8 
REMARK    6  A    between atoms: C14_16  and  O3_17 
REMARK    7  A    between atoms: O3_17  and  C15_18 
REMARK    8  A    between atoms: C21_25  and  O5_26 
REMARK    9  A    between atoms: O5_26  and  C22_27 
ROOT
HETATM    1  C7  UNL     1      -1.280 -10.523  -7.828  1.00  0.00    -0.009 C 
HETATM    2  C8  UNL     1      -0.357  -9.886  -8.534  1.00  0.00    -0.064 C 
HETATM    3  C9  UNL     1       0.305 -10.595  -9.636  1.00  0.00     0.045 C 
HETATM    4  C10 UNL     1       0.195  -8.481  -8.412  1.00  0.00    -0.005 C 
HETATM    5  C11 UNL     1       1.683  -8.622  -8.140  1.00  0.00     0.021 C 
HETATM    6  C12 UNL     1      -0.446  -8.013  -7.097  1.00  0.00     0.075 C 
HETATM    7  C13 UNL     1       0.106  -6.771  -6.593  1.00  0.00     0.162 C 
HETATM    8  O2  UNL     1       0.542  -6.629  -5.478  1.00  0.00    -0.295 OA
HETATM    9  C14 UNL     1       0.095  -5.667  -7.566  1.00  0.00     0.210 C 
HETATM   10  C17 UNL     1      -0.719  -6.157  -8.725  1.00  0.00    -0.002 C 
HETATM   11  C18 UNL     1      -0.816  -5.028  -9.661  1.00  0.00     0.019 C 
HETATM   12  C19 UNL     1      -2.089  -6.578  -8.138  1.00  0.00     0.004 C 
HETATM   13  C20 UNL     1      -2.922  -6.540  -9.440  1.00  0.00     0.038 C 
HETATM   14  C21 UNL     1      -2.441  -7.499 -10.463  1.00  0.00     0.132 C 
HETATM   15  C24 UNL     1      -0.942  -7.660 -10.585  1.00  0.00     0.039 C 
HETATM   16  C25 UNL     1      -0.156  -7.445  -9.370  1.00  0.00     0.013 C 
HETATM   17  C26 UNL     1      -1.877  -7.898  -7.601  1.00  0.00     0.003 C 
HETATM   18  C27 UNL     1      -2.633  -8.657  -6.641  1.00  0.00     0.010 C 
HETATM   19  C28 UNL     1      -2.040 -10.042  -6.617  1.00  0.00     0.043 C 
ENDROOT
BRANCH   1  20
HETATM   20  C6  UNL     1      -1.570 -11.891  -8.212  1.00  0.00     0.155 C 
HETATM   21  O1  UNL     1      -0.954 -12.867  -7.773  1.00  0.00    -0.293 OA
BRANCH  20  22
HETATM   22  C5  UNL     1      -2.687 -12.147  -9.204  1.00  0.00     0.083 C 
BRANCH  22  23
HETATM   23  C4  UNL     1      -3.968 -12.531  -8.533  1.00  0.00     0.008 C 
BRANCH  23  24
HETATM   24  C3  UNL     1      -5.055 -11.519  -8.554  1.00  0.00     0.000 C 
BRANCH  24  25
HETATM   25  C2  UNL     1      -5.438 -11.253  -7.099  1.00  0.00    -0.005 C 
HETATM   26  C1  UNL     1      -4.896 -12.313  -6.192  1.00  0.00     0.005 C 
ENDBRANCH  24  25
ENDBRANCH  23  24
ENDBRANCH  22  23
ENDBRANCH  20  22
ENDBRANCH   1  20
BRANCH   9  27
HETATM   27  O3  UNL     1       1.336  -5.139  -7.866  1.00  0.00    -0.308 OA
BRANCH  27  28
HETATM   28  C15 UNL     1       1.824  -3.997  -7.247  1.00  0.00     0.255 C 
HETATM   29  C16 UNL     1       3.062  -4.094  -6.454  1.00  0.00     0.126 C 
HETATM   30  O4  UNL     1       1.184  -2.931  -7.394  1.00  0.00    -0.266 OA
ENDBRANCH  27  28
ENDBRANCH   9  27
BRANCH  14  31
HETATM   31  O5  UNL     1      -2.922  -7.099 -11.739  1.00  0.00    -0.316 OA
BRANCH  31  32
HETATM   32  C22 UNL     1      -3.348  -7.955 -12.726  1.00  0.00     0.255 C 
HETATM   33  C23 UNL     1      -2.427  -8.898 -13.432  1.00  0.00     0.126 C 
HETATM   34  O6  UNL     1      -4.579  -7.897 -13.006  1.00  0.00    -0.266 OA
ENDBRANCH  31  32
ENDBRANCH  14  31
TORSDOF 9
ENDMDL
