MODEL 1
REMARK VINA RESULT: -6.942500371      0.000      0.000
REMARK  14 active torsions:
REMARK  status: ('A' for Active; 'I' for Inactive)
REMARK    1  A    between atoms: C2_2  and  C4_4 
REMARK    2  A    between atoms: C4_4  and  O1_5 
REMARK    3  A    between atoms: C4_4  and  C5_7 
REMARK    4  A    between atoms: C5_7  and  C6_8 
REMARK    5  A    between atoms: C8_10  and  O2_11 
REMARK    6  A    between atoms: C9_13  and  O3_14 
REMARK    7  A    between atoms: O3_14  and  C10_15 
REMARK    8  A    between atoms: C20_26  and  C22_28 
REMARK    9  A    between atoms: C23_29  and  C24_30 
REMARK   10  A    between atoms: C24_30  and  C25_31 
REMARK   11  A    between atoms: C25_31  and  C26_32 
REMARK   12  A    between atoms: C26_32  and  C28_34 
REMARK   13  A    between atoms: C28_34  and  C29_35 
REMARK   14  A    between atoms: C29_35  and  C31_37 
ROOT
HETATM    1  C6  UNL     1      12.476  30.730   8.923  1.00  0.00     0.018 C 
HETATM    2  C7  UNL     1      13.598  31.720   8.749  1.00  0.00     0.021 C 
HETATM    3  C8  UNL     1      12.981  29.513   9.568  1.00  0.00     0.184 C 
HETATM    4  C9  UNL     1      11.910  28.569  10.071  1.00  0.00     0.290 C 
HETATM    5  O4  UNL     1      10.843  29.140  10.670  1.00  0.00    -0.351 OA
HETATM    6  C16 UNL     1      10.438  30.381  10.329  1.00  0.00     0.155 C 
HETATM    7  C17 UNL     1       9.565  30.915  11.439  1.00  0.00     0.042 C 
HETATM    8  C18 UNL     1      10.070  32.287  11.802  1.00  0.00     0.022 C 
HETATM    9  C19 UNL     1       9.245  32.827  12.925  1.00  0.00     0.013 C 
HETATM   10  C20 UNL     1      11.528  32.201  12.094  1.00  0.00     0.079 C 
HETATM   11  C21 UNL     1      11.871  31.347  13.291  1.00  0.00     0.051 C 
HETATM   12  O6  UNL     1      12.268  31.697  11.030  1.00  0.00    -0.367 OA
HETATM   13  C33 UNL     1      11.511  31.364   9.930  1.00  0.00     0.163 C 
ENDROOT
BRANCH  10  14
HETATM   14  C22 UNL     1      12.011  33.589  12.439  1.00  0.00     0.007 C 
HETATM   15  C23 UNL     1      11.817  34.574  11.580  1.00  0.00    -0.028 C 
BRANCH  15  16
HETATM   16  C24 UNL     1      12.285  35.951  11.900  1.00  0.00     0.027 C 
BRANCH  16  17
HETATM   17  C25 UNL     1      11.243  36.749  12.614  1.00  0.00     0.008 C 
BRANCH  17  18
HETATM   18  C26 UNL     1      10.562  37.668  11.607  1.00  0.00    -0.018 C 
HETATM   19  C27 UNL     1      11.273  38.926  11.340  1.00  0.00     0.010 C 
BRANCH  18  20
HETATM   20  C28 UNL     1       9.110  37.695  11.846  1.00  0.00     0.016 C 
BRANCH  20  21
HETATM   21  C29 UNL     1       8.283  36.517  11.502  1.00  0.00     0.051 C 
HETATM   22  C30 UNL     1       7.185  37.078  10.502  1.00  0.00     0.018 C 
BRANCH  21  23
HETATM   23  C31 UNL     1       7.416  35.976  12.578  1.00  0.00     0.126 C 
HETATM   24  C32 UNL     1       6.066  35.400  12.197  1.00  0.00     0.091 C 
HETATM   25  O5  UNL     1       7.768  35.997  13.726  1.00  0.00    -0.298 OA
ENDBRANCH  21  23
ENDBRANCH  20  21
ENDBRANCH  18  20
ENDBRANCH  17  18
ENDBRANCH  16  17
ENDBRANCH  15  16
ENDBRANCH  10  14
BRANCH   1  26
HETATM   26  C5  UNL     1      11.745  30.603   7.642  1.00  0.00     0.050 C 
BRANCH  26  27
HETATM   27  C4  UNL     1      12.495  30.919   6.409  1.00  0.00     0.146 C 
BRANCH  27  28
HETATM   28  C2  UNL     1      12.536  29.800   5.438  1.00  0.00    -0.065 C 
HETATM   29  C1  UNL     1      11.997  29.957   4.249  1.00  0.00     0.016 C 
HETATM   30  C3  UNL     1      13.177  28.490   5.748  1.00  0.00     0.045 C 
ENDBRANCH  27  28
BRANCH  27  31
HETATM   31  O1  UNL     1      11.911  32.004   5.702  1.00  0.00    -0.391 OA
ATOM     32  H1  UNL     1      11.436  32.500   6.357  1.00  0.00     0.210 HD
ENDBRANCH  27  31
ENDBRANCH  26  27
ENDBRANCH   1  26
BRANCH   3  33
HETATM   33  O2  UNL     1      13.945  28.812   8.850  1.00  0.00    -0.390 OA
ATOM     34  H2  UNL     1      14.666  29.333   8.517  1.00  0.00     0.210 HD
ENDBRANCH   3  33
BRANCH   4  35
HETATM   35  O3  UNL     1      11.505  27.811   8.974  1.00  0.00    -0.353 OA
BRANCH  35  36
HETATM   36  C10 UNL     1      11.297  26.471   9.258  1.00  0.00     0.124 C 
HETATM   37  C11 UNL     1      12.389  25.839  10.045  1.00  0.00     0.032 C 
HETATM   38  C12 UNL     1      12.194  24.326   9.930  1.00  0.00     0.002 C 
HETATM   39  C13 UNL     1      10.918  24.024  10.670  1.00  0.00     0.000 C 
HETATM   40  C14 UNL     1      10.128  25.247  11.022  1.00  0.00     0.002 C 
HETATM   41  C15 UNL     1       9.977  26.229   9.893  1.00  0.00     0.032 C 
ENDBRANCH  35  36
ENDBRANCH   4  35
TORSDOF 14
ENDMDL
MODEL 2
REMARK VINA RESULT: -6.904106321      8.772     13.063
REMARK  14 active torsions:
REMARK  status: ('A' for Active; 'I' for Inactive)
REMARK    1  A    between atoms: C2_2  and  C4_4 
REMARK    2  A    between atoms: C4_4  and  O1_5 
REMARK    3  A    between atoms: C4_4  and  C5_7 
REMARK    4  A    between atoms: C5_7  and  C6_8 
REMARK    5  A    between atoms: C8_10  and  O2_11 
REMARK    6  A    between atoms: C9_13  and  O3_14 
REMARK    7  A    between atoms: O3_14  and  C10_15 
REMARK    8  A    between atoms: C20_26  and  C22_28 
REMARK    9  A    between atoms: C23_29  and  C24_30 
REMARK   10  A    between atoms: C24_30  and  C25_31 
REMARK   11  A    between atoms: C25_31  and  C26_32 
REMARK   12  A    between atoms: C26_32  and  C28_34 
REMARK   13  A    between atoms: C28_34  and  C29_35 
REMARK   14  A    between atoms: C29_35  and  C31_37 
ROOT
HETATM    1  C6  UNL     1      11.493  33.830  -0.423  1.00  0.00     0.018 C 
HETATM    2  C7  UNL     1      10.214  34.078   0.335  1.00  0.00     0.021 C 
HETATM    3  C8  UNL     1      11.207  33.076  -1.648  1.00  0.00     0.184 C 
HETATM    4  C9  UNL     1      12.349  33.023  -2.641  1.00  0.00     0.290 C 
HETATM    5  O4  UNL     1      13.044  34.168  -2.815  1.00  0.00    -0.351 OA
HETATM    6  C16 UNL     1      13.157  35.069  -1.817  1.00  0.00     0.155 C 
HETATM    7  C17 UNL     1      13.561  36.393  -2.421  1.00  0.00     0.042 C 
HETATM    8  C18 UNL     1      12.624  37.446  -1.888  1.00  0.00     0.022 C 
HETATM    9  C19 UNL     1      12.979  38.765  -2.495  1.00  0.00     0.013 C 
HETATM   10  C20 UNL     1      11.221  37.010  -2.134  1.00  0.00     0.079 C 
HETATM   11  C21 UNL     1      10.857  36.890  -3.594  1.00  0.00     0.051 C 
HETATM   12  O6  UNL     1      10.922  35.783  -1.554  1.00  0.00    -0.367 OA
HETATM   13  C33 UNL     1      11.979  35.207  -0.886  1.00  0.00     0.163 C 
ENDROOT
BRANCH  10  14
HETATM   14  C22 UNL     1      10.305  38.074  -1.577  1.00  0.00     0.007 C 
HETATM   15  C23 UNL     1       9.405  38.632  -2.366  1.00  0.00    -0.028 C 
BRANCH  15  16
HETATM   16  C24 UNL     1       8.491  39.682  -1.838  1.00  0.00     0.027 C 
BRANCH  16  17
HETATM   17  C25 UNL     1       7.135  39.614  -2.461  1.00  0.00     0.008 C 
BRANCH  17  18
HETATM   18  C26 UNL     1       6.736  38.149  -2.593  1.00  0.00    -0.018 C 
HETATM   19  C27 UNL     1       6.243  37.761  -3.923  1.00  0.00     0.010 C 
BRANCH  18  20
HETATM   20  C28 UNL     1       6.003  37.712  -1.395  1.00  0.00     0.016 C 
BRANCH  20  21
HETATM   21  C29 UNL     1       6.672  36.854  -0.392  1.00  0.00     0.051 C 
HETATM   22  C30 UNL     1       7.305  35.670  -1.237  1.00  0.00     0.018 C 
BRANCH  21  23
HETATM   23  C31 UNL     1       5.789  36.090   0.525  1.00  0.00     0.126 C 
HETATM   24  C32 UNL     1       6.280  34.757   1.056  1.00  0.00     0.091 C 
HETATM   25  O5  UNL     1       4.709  36.510   0.837  1.00  0.00    -0.298 OA
ENDBRANCH  21  23
ENDBRANCH  20  21
ENDBRANCH  18  20
ENDBRANCH  17  18
ENDBRANCH  16  17
ENDBRANCH  15  16
ENDBRANCH  10  14
BRANCH   1  26
HETATM   26  C5  UNL     1      12.510  33.302   0.515  1.00  0.00     0.050 C 
BRANCH  26  27
HETATM   27  C4  UNL     1      12.427  33.755   1.918  1.00  0.00     0.146 C 
BRANCH  27  28
HETATM   28  C2  UNL     1      12.534  32.653   2.904  1.00  0.00    -0.065 C 
HETATM   29  C1  UNL     1      13.205  32.846   4.017  1.00  0.00     0.016 C 
HETATM   30  C3  UNL     1      11.900  31.321   2.691  1.00  0.00     0.045 C 
ENDBRANCH  27  28
BRANCH  27  31
HETATM   31  O1  UNL     1      13.481  34.650   2.245  1.00  0.00    -0.391 OA
ATOM     32  H1  UNL     1      13.099  35.272   2.854  1.00  0.00     0.210 HD
ENDBRANCH  27  31
ENDBRANCH  26  27
ENDBRANCH   1  26
BRANCH   3  33
HETATM   33  O2  UNL     1      10.674  31.806  -1.458  1.00  0.00    -0.390 OA
ATOM     34  H2  UNL     1      11.307  31.099  -1.416  1.00  0.00     0.210 HD
ENDBRANCH   3  33
BRANCH   4  35
HETATM   35  O3  UNL     1      13.195  32.000  -2.217  1.00  0.00    -0.353 OA
BRANCH  35  36
HETATM   36  C10 UNL     1      14.316  31.827  -3.011  1.00  0.00     0.124 C 
HETATM   37  C11 UNL     1      15.600  31.832  -2.260  1.00  0.00     0.032 C 
HETATM   38  C12 UNL     1      16.711  32.022  -3.294  1.00  0.00     0.002 C 
HETATM   39  C13 UNL     1      16.718  30.763  -4.120  1.00  0.00     0.000 C 
HETATM   40  C14 UNL     1      15.524  29.889  -3.884  1.00  0.00     0.002 C 
HETATM   41  C15 UNL     1      14.213  30.625  -3.877  1.00  0.00     0.032 C 
ENDBRANCH  35  36
ENDBRANCH   4  35
TORSDOF 14
ENDMDL
MODEL 3
REMARK VINA RESULT: -6.885965986      1.596      2.703
REMARK  14 active torsions:
REMARK  status: ('A' for Active; 'I' for Inactive)
REMARK    1  A    between atoms: C2_2  and  C4_4 
REMARK    2  A    between atoms: C4_4  and  O1_5 
REMARK    3  A    between atoms: C4_4  and  C5_7 
REMARK    4  A    between atoms: C5_7  and  C6_8 
REMARK    5  A    between atoms: C8_10  and  O2_11 
REMARK    6  A    between atoms: C9_13  and  O3_14 
REMARK    7  A    between atoms: O3_14  and  C10_15 
REMARK    8  A    between atoms: C20_26  and  C22_28 
REMARK    9  A    between atoms: C23_29  and  C24_30 
REMARK   10  A    between atoms: C24_30  and  C25_31 
REMARK   11  A    between atoms: C25_31  and  C26_32 
REMARK   12  A    between atoms: C26_32  and  C28_34 
REMARK   13  A    between atoms: C28_34  and  C29_35 
REMARK   14  A    between atoms: C29_35  and  C31_37 
ROOT
HETATM    1  C6  UNL     1      12.451  30.693   8.880  1.00  0.00     0.018 C 
HETATM    2  C7  UNL     1      13.553  31.706   8.706  1.00  0.00     0.021 C 
HETATM    3  C8  UNL     1      12.982  29.485   9.520  1.00  0.00     0.184 C 
HETATM    4  C9  UNL     1      11.931  28.518  10.023  1.00  0.00     0.290 C 
HETATM    5  O4  UNL     1      10.854  29.066  10.626  1.00  0.00    -0.351 OA
HETATM    6  C16 UNL     1      10.423  30.300  10.289  1.00  0.00     0.155 C 
HETATM    7  C17 UNL     1       9.543  30.812  11.403  1.00  0.00     0.042 C 
HETATM    8  C18 UNL     1      10.021  32.193  11.769  1.00  0.00     0.022 C 
HETATM    9  C19 UNL     1       9.188  32.714  12.895  1.00  0.00     0.013 C 
HETATM   10  C20 UNL     1      11.482  32.136  12.057  1.00  0.00     0.079 C 
HETATM   11  C21 UNL     1      11.844  31.285  13.251  1.00  0.00     0.051 C 
HETATM   12  O6  UNL     1      12.229  31.650  10.990  1.00  0.00    -0.367 OA
HETATM   13  C33 UNL     1      11.476  31.304   9.891  1.00  0.00     0.163 C 
ENDROOT
BRANCH  10  14
HETATM   14  C22 UNL     1      11.938  33.533  12.405  1.00  0.00     0.007 C 
HETATM   15  C23 UNL     1      11.419  34.562  11.761  1.00  0.00    -0.028 C 
BRANCH  15  16
HETATM   16  C24 UNL     1      11.854  35.949  12.087  1.00  0.00     0.027 C 
BRANCH  16  17
HETATM   17  C25 UNL     1      10.706  36.824  12.472  1.00  0.00     0.008 C 
BRANCH  17  18
HETATM   18  C26 UNL     1      10.264  37.610  11.243  1.00  0.00    -0.018 C 
HETATM   19  C27 UNL     1       9.093  37.059  10.545  1.00  0.00     0.010 C 
BRANCH  18  20
HETATM   20  C28 UNL     1      11.437  38.034  10.463  1.00  0.00     0.016 C 
BRANCH  20  21
HETATM   21  C29 UNL     1      12.386  39.018  11.031  1.00  0.00     0.051 C 
HETATM   22  C30 UNL     1      11.602  40.398  10.991  1.00  0.00     0.018 C 
BRANCH  21  23
HETATM   23  C31 UNL     1      13.569  39.357  10.203  1.00  0.00     0.126 C 
HETATM   24  C32 UNL     1      14.721  38.371  10.151  1.00  0.00     0.091 C 
HETATM   25  O5  UNL     1      13.622  40.388   9.589  1.00  0.00    -0.298 OA
ENDBRANCH  21  23
ENDBRANCH  20  21
ENDBRANCH  18  20
ENDBRANCH  17  18
ENDBRANCH  16  17
ENDBRANCH  15  16
ENDBRANCH  10  14
BRANCH   1  26
HETATM   26  C5  UNL     1      11.720  30.555   7.600  1.00  0.00     0.050 C 
BRANCH  26  27
HETATM   27  C4  UNL     1      12.467  30.867   6.365  1.00  0.00     0.146 C 
BRANCH  27  28
HETATM   28  C2  UNL     1      12.520  29.741   5.403  1.00  0.00    -0.065 C 
HETATM   29  C1  UNL     1      11.995  29.888   4.207  1.00  0.00     0.016 C 
HETATM   30  C3  UNL     1      13.156  28.433   5.731  1.00  0.00     0.045 C 
ENDBRANCH  27  28
BRANCH  27  31
HETATM   31  O1  UNL     1      11.873  31.941   5.648  1.00  0.00    -0.391 OA
ATOM     32  H1  UNL     1      11.847  32.665   6.262  1.00  0.00     0.210 HD
ENDBRANCH  27  31
ENDBRANCH  26  27
ENDBRANCH   1  26
BRANCH   3  33
HETATM   33  O2  UNL     1      13.957  28.805   8.799  1.00  0.00    -0.390 OA
ATOM     34  H2  UNL     1      14.699  29.329   8.519  1.00  0.00     0.210 HD
ENDBRANCH   3  33
BRANCH   4  35
HETATM   35  O3  UNL     1      11.538  27.755   8.925  1.00  0.00    -0.353 OA
BRANCH  35  36
HETATM   36  C10 UNL     1      11.316  26.419   9.215  1.00  0.00     0.124 C 
HETATM   37  C11 UNL     1      12.418  25.769   9.973  1.00  0.00     0.032 C 
HETATM   38  C12 UNL     1      12.195  24.259   9.863  1.00  0.00     0.002 C 
HETATM   39  C13 UNL     1      10.935  23.978  10.637  1.00  0.00     0.000 C 
HETATM   40  C14 UNL     1      10.175  25.213  11.010  1.00  0.00     0.002 C 
HETATM   41  C15 UNL     1      10.010  26.198   9.885  1.00  0.00     0.032 C 
ENDBRANCH  35  36
ENDBRANCH   4  35
TORSDOF 14
ENDMDL
MODEL 4
REMARK VINA RESULT: -6.874757418      6.938     12.210
REMARK  14 active torsions:
REMARK  status: ('A' for Active; 'I' for Inactive)
REMARK    1  A    between atoms: C2_2  and  C4_4 
REMARK    2  A    between atoms: C4_4  and  O1_5 
REMARK    3  A    between atoms: C4_4  and  C5_7 
REMARK    4  A    between atoms: C5_7  and  C6_8 
REMARK    5  A    between atoms: C8_10  and  O2_11 
REMARK    6  A    between atoms: C9_13  and  O3_14 
REMARK    7  A    between atoms: O3_14  and  C10_15 
REMARK    8  A    between atoms: C20_26  and  C22_28 
REMARK    9  A    between atoms: C23_29  and  C24_30 
REMARK   10  A    between atoms: C24_30  and  C25_31 
REMARK   11  A    between atoms: C25_31  and  C26_32 
REMARK   12  A    between atoms: C26_32  and  C28_34 
REMARK   13  A    between atoms: C28_34  and  C29_35 
REMARK   14  A    between atoms: C29_35  and  C31_37 
ROOT
HETATM    1  C6  UNL     1       8.726  32.699   0.208  1.00  0.00     0.018 C 
HETATM    2  C7  UNL     1       8.675  32.219   1.637  1.00  0.00     0.021 C 
HETATM    3  C8  UNL     1       7.967  33.947   0.076  1.00  0.00     0.184 C 
HETATM    4  C9  UNL     1       8.186  34.688  -1.226  1.00  0.00     0.290 C 
HETATM    5  O4  UNL     1       9.456  34.731  -1.683  1.00  0.00    -0.351 OA
HETATM    6  C16 UNL     1      10.330  33.742  -1.400  1.00  0.00     0.155 C 
HETATM    7  C17 UNL     1      11.727  34.268  -1.626  1.00  0.00     0.042 C 
HETATM    8  C18 UNL     1      12.542  33.949  -0.401  1.00  0.00     0.022 C 
HETATM    9  C19 UNL     1      13.924  34.488  -0.582  1.00  0.00     0.013 C 
HETATM   10  C20 UNL     1      11.829  34.468   0.800  1.00  0.00     0.079 C 
HETATM   11  C21 UNL     1      11.681  35.971   0.830  1.00  0.00     0.051 C 
HETATM   12  O6  UNL     1      10.549  33.946   0.942  1.00  0.00    -0.367 OA
HETATM   13  C33 UNL     1      10.188  33.071  -0.057  1.00  0.00     0.163 C 
ENDROOT
BRANCH  10  14
HETATM   14  C22 UNL     1      12.658  34.122   2.014  1.00  0.00     0.007 C 
HETATM   15  C23 UNL     1      12.838  35.029   2.956  1.00  0.00    -0.028 C 
BRANCH  15  16
HETATM   16  C24 UNL     1      13.652  34.709   4.162  1.00  0.00     0.027 C 
BRANCH  16  17
HETATM   17  C25 UNL     1      14.053  33.270   4.204  1.00  0.00     0.008 C 
BRANCH  17  18
HETATM   18  C26 UNL     1      13.546  32.665   5.508  1.00  0.00    -0.018 C 
HETATM   19  C27 UNL     1      14.597  32.290   6.465  1.00  0.00     0.010 C 
BRANCH  18  20
HETATM   20  C28 UNL     1      12.447  31.725   5.237  1.00  0.00     0.016 C 
BRANCH  20  21
HETATM   21  C29 UNL     1      12.617  30.662   4.222  1.00  0.00     0.051 C 
HETATM   22  C30 UNL     1      11.352  30.808   3.275  1.00  0.00     0.018 C 
BRANCH  21  23
HETATM   23  C31 UNL     1      12.445  29.263   4.688  1.00  0.00     0.126 C 
HETATM   24  C32 UNL     1      13.173  28.826   5.945  1.00  0.00     0.091 C 
HETATM   25  O5  UNL     1      11.751  28.490   4.085  1.00  0.00    -0.298 OA
ENDBRANCH  21  23
ENDBRANCH  20  21
ENDBRANCH  18  20
ENDBRANCH  17  18
ENDBRANCH  16  17
ENDBRANCH  15  16
ENDBRANCH  10  14
BRANCH   1  26
HETATM   26  C5  UNL     1       8.394  31.568  -0.688  1.00  0.00     0.050 C 
BRANCH  26  27
HETATM   27  C4  UNL     1       9.244  30.365  -0.592  1.00  0.00     0.146 C 
BRANCH  27  28
HETATM   28  C2  UNL     1       8.505  29.149  -0.176  1.00  0.00    -0.065 C 
HETATM   29  C1  UNL     1       7.596  28.640  -0.978  1.00  0.00     0.016 C 
HETATM   30  C3  UNL     1       8.752  28.463   1.124  1.00  0.00     0.045 C 
ENDBRANCH  27  28
BRANCH  27  31
HETATM   31  O1  UNL     1       9.832  30.033  -1.841  1.00  0.00    -0.391 OA
ATOM     32  H1  UNL     1      10.662  30.495  -1.856  1.00  0.00     0.210 HD
ENDBRANCH  27  31
ENDBRANCH  26  27
ENDBRANCH   1  26
BRANCH   3  33
HETATM   33  O2  UNL     1       6.608  33.854   0.355  1.00  0.00    -0.390 OA
ATOM     34  H2  UNL     1       6.389  33.611   1.247  1.00  0.00     0.210 HD
ENDBRANCH   3  33
BRANCH   4  35
HETATM   35  O3  UNL     1       7.351  34.089  -2.167  1.00  0.00    -0.353 OA
BRANCH  35  36
HETATM   36  C10 UNL     1       6.640  34.986  -2.946  1.00  0.00     0.124 C 
HETATM   37  C11 UNL     1       6.386  36.295  -2.287  1.00  0.00     0.032 C 
HETATM   38  C12 UNL     1       5.291  36.990  -3.099  1.00  0.00     0.002 C 
HETATM   39  C13 UNL     1       5.914  37.308  -4.432  1.00  0.00     0.000 C 
HETATM   40  C14 UNL     1       7.234  36.635  -4.650  1.00  0.00     0.002 C 
HETATM   41  C15 UNL     1       7.250  35.176  -4.285  1.00  0.00     0.032 C 
ENDBRANCH  35  36
ENDBRANCH   4  35
TORSDOF 14
ENDMDL
MODEL 5
REMARK VINA RESULT: -6.834359864      6.774     11.936
REMARK  14 active torsions:
REMARK  status: ('A' for Active; 'I' for Inactive)
REMARK    1  A    between atoms: C2_2  and  C4_4 
REMARK    2  A    between atoms: C4_4  and  O1_5 
REMARK    3  A    between atoms: C4_4  and  C5_7 
REMARK    4  A    between atoms: C5_7  and  C6_8 
REMARK    5  A    between atoms: C8_10  and  O2_11 
REMARK    6  A    between atoms: C9_13  and  O3_14 
REMARK    7  A    between atoms: O3_14  and  C10_15 
REMARK    8  A    between atoms: C20_26  and  C22_28 
REMARK    9  A    between atoms: C23_29  and  C24_30 
REMARK   10  A    between atoms: C24_30  and  C25_31 
REMARK   11  A    between atoms: C25_31  and  C26_32 
REMARK   12  A    between atoms: C26_32  and  C28_34 
REMARK   13  A    between atoms: C28_34  and  C29_35 
REMARK   14  A    between atoms: C29_35  and  C31_37 
ROOT
HETATM    1  C6  UNL     1       9.257  32.597   0.247  1.00  0.00     0.018 C 
HETATM    2  C7  UNL     1       9.203  31.951   1.608  1.00  0.00     0.021 C 
HETATM    3  C8  UNL     1       8.403  33.789   0.227  1.00  0.00     0.184 C 
HETATM    4  C9  UNL     1       8.600  34.691  -0.972  1.00  0.00     0.290 C 
HETATM    5  O4  UNL     1       9.875  34.887  -1.370  1.00  0.00    -0.351 OA
HETATM    6  C16 UNL     1      10.818  33.944  -1.167  1.00  0.00     0.155 C 
HETATM    7  C17 UNL     1      12.173  34.600  -1.276  1.00  0.00     0.042 C 
HETATM    8  C18 UNL     1      12.975  34.205  -0.063  1.00  0.00     0.022 C 
HETATM    9  C19 UNL     1      14.313  34.868  -0.126  1.00  0.00     0.013 C 
HETATM   10  C20 UNL     1      12.185  34.523   1.160  1.00  0.00     0.079 C 
HETATM   11  C21 UNL     1      11.912  35.995   1.355  1.00  0.00     0.051 C 
HETATM   12  O6  UNL     1      10.948  33.889   1.190  1.00  0.00    -0.367 OA
HETATM   13  C33 UNL     1      10.691  33.111   0.084  1.00  0.00     0.163 C 
ENDROOT
BRANCH  10  14
HETATM   14  C22 UNL     1      13.002  34.103   2.358  1.00  0.00     0.007 C 
HETATM   15  C23 UNL     1      13.005  34.862   3.439  1.00  0.00    -0.028 C 
BRANCH  15  16
HETATM   16  C24 UNL     1      13.804  34.467   4.632  1.00  0.00     0.027 C 
BRANCH  16  17
HETATM   17  C25 UNL     1      14.156  33.015   4.618  1.00  0.00     0.008 C 
BRANCH  17  18
HETATM   18  C26 UNL     1      13.707  32.395   5.936  1.00  0.00    -0.018 C 
HETATM   19  C27 UNL     1      14.797  32.044   6.857  1.00  0.00     0.010 C 
BRANCH  18  20
HETATM   20  C28 UNL     1      12.622  31.429   5.698  1.00  0.00     0.016 C 
BRANCH  20  21
HETATM   21  C29 UNL     1      12.760  30.411   4.634  1.00  0.00     0.051 C 
HETATM   22  C30 UNL     1      11.401  30.498   3.819  1.00  0.00     0.018 C 
BRANCH  21  23
HETATM   23  C31 UNL     1      12.727  28.991   5.063  1.00  0.00     0.126 C 
HETATM   24  C32 UNL     1      13.399  28.615   6.370  1.00  0.00     0.091 C 
HETATM   25  O5  UNL     1      12.187  28.153   4.393  1.00  0.00    -0.298 OA
ENDBRANCH  21  23
ENDBRANCH  20  21
ENDBRANCH  18  20
ENDBRANCH  17  18
ENDBRANCH  16  17
ENDBRANCH  15  16
ENDBRANCH  10  14
BRANCH   1  26
HETATM   26  C5  UNL     1       9.048  31.556  -0.786  1.00  0.00     0.050 C 
BRANCH  26  27
HETATM   27  C4  UNL     1       8.554  30.244  -0.324  1.00  0.00     0.146 C 
BRANCH  27  28
HETATM   28  C2  UNL     1       7.347  29.777  -1.046  1.00  0.00    -0.065 C 
HETATM   29  C1  UNL     1       6.437  30.652  -1.414  1.00  0.00     0.016 C 
HETATM   30  C3  UNL     1       7.117  28.344  -1.386  1.00  0.00     0.045 C 
ENDBRANCH  27  28
BRANCH  27  31
HETATM   31  O1  UNL     1       9.521  29.221  -0.515  1.00  0.00    -0.391 OA
ATOM     32  H1  UNL     1       9.912  29.403  -1.362  1.00  0.00     0.210 HD
ENDBRANCH  27  31
ENDBRANCH  26  27
ENDBRANCH   1  26
BRANCH   3  33
HETATM   33  O2  UNL     1       7.048  33.557   0.439  1.00  0.00    -0.390 OA
ATOM     34  H2  UNL     1       6.534  34.322   0.671  1.00  0.00     0.210 HD
ENDBRANCH   3  33
BRANCH   4  35
HETATM   35  O3  UNL     1       7.846  34.143  -2.008  1.00  0.00    -0.353 OA
BRANCH  35  36
HETATM   36  C10 UNL     1       6.913  35.010  -2.550  1.00  0.00     0.124 C 
HETATM   37  C11 UNL     1       5.544  34.438  -2.663  1.00  0.00     0.032 C 
HETATM   38  C12 UNL     1       4.764  35.352  -3.609  1.00  0.00     0.002 C 
HETATM   39  C13 UNL     1       4.609  36.659  -2.878  1.00  0.00     0.000 C 
HETATM   40  C14 UNL     1       5.460  36.758  -1.648  1.00  0.00     0.002 C 
HETATM   41  C15 UNL     1       6.884  36.318  -1.847  1.00  0.00     0.032 C 
ENDBRANCH  35  36
ENDBRANCH   4  35
TORSDOF 14
ENDMDL
