MODEL 1
REMARK VINA RESULT: -7.487068074      0.000      0.000
REMARK  15 active torsions:
REMARK  status: ('A' for Active; 'I' for Inactive)
REMARK    1  A    between atoms: O1_2  and  C2_3 
REMARK    2  A    between atoms: C2_3  and  C3_5 
REMARK    3  A    between atoms: C3_5  and  O3_7 
REMARK    4  A    between atoms: C3_5  and  C5_9 
REMARK    5  A    between atoms: C7_11  and  O4_12 
REMARK    6  A    between atoms: C12_18  and  C13_19 
REMARK    7  A    between atoms: C13_19  and  C15_21 
REMARK    8  A    between atoms: C15_21  and  C16_22 
REMARK    9  A    between atoms: C16_22  and  C17_23 
REMARK   10  A    between atoms: C17_23  and  C20_26 
REMARK   11  A    between atoms: C20_26  and  C21_27 
REMARK   12  A    between atoms: C21_27  and  C22_29 
REMARK   13  A    between atoms: C22_29  and  C24_31 
REMARK   14  A    between atoms: C24_31  and  C25_32 
REMARK   15  A    between atoms: C25_32  and  C26_33 
ROOT
HETATM    1  C5  UNL     1      13.240  29.651   9.073  1.00  0.00     0.041 C 
HETATM    2  C6  UNL     1      14.122  30.689   9.744  1.00  0.00     0.041 C 
HETATM    3  C7  UNL     1      13.185  31.457  10.684  1.00  0.00     0.123 C 
HETATM    4  C8  UNL     1      12.262  30.365  11.091  1.00  0.00     0.028 C 
HETATM    5  C9  UNL     1      11.108  30.692  11.963  1.00  0.00     0.001 C 
HETATM    6  C10 UNL     1      11.320  32.046  12.627  1.00  0.00     0.006 C 
HETATM    7  C11 UNL     1      10.128  32.900  12.198  1.00  0.00     0.006 C 
HETATM    8  C12 UNL     1       9.069  31.888  12.090  1.00  0.00    -0.002 C 
HETATM    9  C29 UNL     1       9.747  30.718  11.402  1.00  0.00    -0.036 C 
HETATM   10  C30 UNL     1       8.835  29.552  11.604  1.00  0.00     0.016 C 
HETATM   11  C31 UNL     1       9.787  30.926   9.902  1.00  0.00     0.011 C 
HETATM   12  C32 UNL     1      10.710  30.015   9.168  1.00  0.00     0.011 C 
HETATM   13  C33 UNL     1      11.962  29.590   9.824  1.00  0.00    -0.031 C 
HETATM   14  C34 UNL     1      11.837  28.115  10.255  1.00  0.00     0.016 C 
ENDROOT
BRANCH   8  15
HETATM   15  C13 UNL     1       8.243  31.625  13.267  1.00  0.00    -0.014 C 
HETATM   16  C14 UNL     1       8.568  30.494  14.171  1.00  0.00     0.010 C 
BRANCH  15  17
HETATM   17  C15 UNL     1       7.852  32.854  14.022  1.00  0.00     0.005 C 
BRANCH  17  18
HETATM   18  C16 UNL     1       6.450  33.302  13.959  1.00  0.00     0.009 C 
BRANCH  18  19
HETATM   19  C17 UNL     1       6.382  34.656  13.222  1.00  0.00    -0.041 C 
HETATM   20  C18 UNL     1       6.421  34.330  11.746  1.00  0.00     0.015 C 
HETATM   21  C19 UNL     1       5.164  35.442  13.597  1.00  0.00     0.015 C 
BRANCH  19  22
HETATM   22  C20 UNL     1       7.580  35.490  13.557  1.00  0.00     0.087 C 
BRANCH  22  23
HETATM   23  C21 UNL     1       7.815  36.467  12.473  1.00  0.00     0.131 C 
HETATM   24  O5  UNL     1       7.023  37.331  12.115  1.00  0.00    -0.298 OA
BRANCH  23  25
HETATM   25  C22 UNL     1       9.110  36.429  11.732  1.00  0.00     0.051 C 
HETATM   26  C23 UNL     1       8.860  37.040  10.366  1.00  0.00     0.018 C 
BRANCH  25  27
HETATM   27  C24 UNL     1      10.121  37.234  12.517  1.00  0.00     0.012 C 
BRANCH  27  28
HETATM   28  C25 UNL     1      10.278  38.553  11.788  1.00  0.00     0.004 C 
BRANCH  28  29
HETATM   29  C26 UNL     1      11.705  38.862  11.439  1.00  0.00    -0.023 C 
HETATM   30  C27 UNL     1      12.520  37.649  11.099  1.00  0.00     0.009 C 
HETATM   31  C28 UNL     1      11.684  39.822  10.265  1.00  0.00     0.009 C 
ENDBRANCH  28  29
ENDBRANCH  27  28
ENDBRANCH  25  27
ENDBRANCH  23  25
ENDBRANCH  22  23
ENDBRANCH  19  22
ENDBRANCH  18  19
ENDBRANCH  17  18
ENDBRANCH  15  17
ENDBRANCH   8  15
BRANCH   3  32
HETATM   32  O4  UNL     1      12.710  32.471   9.920  1.00  0.00    -0.395 OA
ATOM     33  H4  UNL     1      11.846  32.177   9.659  1.00  0.00     0.210 HD
ENDBRANCH   3  32
BRANCH   1  34
HETATM   34  C3  UNL     1      13.267  29.899   7.624  1.00  0.00     0.146 C 
HETATM   35  C4  UNL     1      14.685  30.458   7.332  1.00  0.00     0.057 C 
BRANCH  34  36
HETATM   36  C2  UNL     1      13.182  28.696   6.758  1.00  0.00     0.293 C 
HETATM   37  O2  UNL     1      13.448  27.566   7.189  1.00  0.00    -0.262 OA
BRANCH  36  38
HETATM   38  O1  UNL     1      12.801  28.819   5.433  1.00  0.00    -0.324 OA
HETATM   39  C1  UNL     1      12.398  27.668   4.673  1.00  0.00     0.213 C 
ENDBRANCH  36  38
ENDBRANCH  34  36
BRANCH  34  40
HETATM   40  O3  UNL     1      12.453  30.930   7.165  1.00  0.00    -0.380 OA
ATOM     41  H3  UNL     1      12.840  31.387   6.427  1.00  0.00     0.211 HD
ENDBRANCH  34  40
ENDBRANCH   1  34
TORSDOF 15
ENDMDL
MODEL 2
REMARK VINA RESULT: -7.036638800      6.894     10.408
REMARK  15 active torsions:
REMARK  status: ('A' for Active; 'I' for Inactive)
REMARK    1  A    between atoms: O1_2  and  C2_3 
REMARK    2  A    between atoms: C2_3  and  C3_5 
REMARK    3  A    between atoms: C3_5  and  O3_7 
REMARK    4  A    between atoms: C3_5  and  C5_9 
REMARK    5  A    between atoms: C7_11  and  O4_12 
REMARK    6  A    between atoms: C12_18  and  C13_19 
REMARK    7  A    between atoms: C13_19  and  C15_21 
REMARK    8  A    between atoms: C15_21  and  C16_22 
REMARK    9  A    between atoms: C16_22  and  C17_23 
REMARK   10  A    between atoms: C17_23  and  C20_26 
REMARK   11  A    between atoms: C20_26  and  C21_27 
REMARK   12  A    between atoms: C21_27  and  C22_29 
REMARK   13  A    between atoms: C22_29  and  C24_31 
REMARK   14  A    between atoms: C24_31  and  C25_32 
REMARK   15  A    between atoms: C25_32  and  C26_33 
ROOT
HETATM    1  C5  UNL     1      11.827  35.554  -1.713  1.00  0.00     0.041 C 
HETATM    2  C6  UNL     1      12.497  36.826  -1.223  1.00  0.00     0.041 C 
HETATM    3  C7  UNL     1      12.822  36.560   0.251  1.00  0.00     0.123 C 
HETATM    4  C8  UNL     1      13.121  35.105   0.201  1.00  0.00     0.028 C 
HETATM    5  C9  UNL     1      13.413  34.391   1.467  1.00  0.00     0.001 C 
HETATM    6  C10 UNL     1      13.758  35.388   2.564  1.00  0.00     0.006 C 
HETATM    7  C11 UNL     1      12.737  35.143   3.673  1.00  0.00     0.006 C 
HETATM    8  C12 UNL     1      12.504  33.699   3.540  1.00  0.00    -0.002 C 
HETATM    9  C29 UNL     1      12.411  33.477   2.043  1.00  0.00    -0.036 C 
HETATM   10  C30 UNL     1      12.548  32.003   1.848  1.00  0.00     0.016 C 
HETATM   11  C31 UNL     1      11.024  33.810   1.534  1.00  0.00     0.011 C 
HETATM   12  C32 UNL     1      10.915  33.947   0.055  1.00  0.00     0.011 C 
HETATM   13  C33 UNL     1      12.059  34.500  -0.696  1.00  0.00    -0.031 C 
HETATM   14  C34 UNL     1      12.760  33.365  -1.468  1.00  0.00     0.016 C 
ENDROOT
BRANCH   8  15
HETATM   15  C13 UNL     1      13.332  32.791   4.333  1.00  0.00    -0.014 C 
HETATM   16  C14 UNL     1      14.420  33.326   5.188  1.00  0.00     0.010 C 
BRANCH  15  17
HETATM   17  C15 UNL     1      12.562  31.707   5.015  1.00  0.00     0.005 C 
BRANCH  17  18
HETATM   18  C16 UNL     1      12.754  31.512   6.463  1.00  0.00     0.009 C 
BRANCH  18  19
HETATM   19  C17 UNL     1      13.335  30.104   6.713  1.00  0.00    -0.041 C 
HETATM   20  C18 UNL     1      12.972  29.281   5.498  1.00  0.00     0.015 C 
HETATM   21  C19 UNL     1      14.812  30.138   6.956  1.00  0.00     0.015 C 
BRANCH  19  22
HETATM   22  C20 UNL     1      12.693  29.484   7.916  1.00  0.00     0.087 C 
BRANCH  22  23
HETATM   23  C21 UNL     1      12.659  30.472   9.016  1.00  0.00     0.131 C 
HETATM   24  O5  UNL     1      13.625  31.101   9.431  1.00  0.00    -0.298 OA
BRANCH  23  25
HETATM   25  C22 UNL     1      11.362  30.750   9.699  1.00  0.00     0.051 C 
HETATM   26  C23 UNL     1      10.722  29.408  10.004  1.00  0.00     0.018 C 
BRANCH  25  27
HETATM   27  C24 UNL     1      11.657  31.517  10.969  1.00  0.00     0.012 C 
BRANCH  27  28
HETATM   28  C25 UNL     1      10.914  30.807  12.082  1.00  0.00     0.004 C 
BRANCH  28  29
HETATM   29  C26 UNL     1      10.037  31.728  12.879  1.00  0.00    -0.023 C 
HETATM   30  C27 UNL     1       9.683  32.997  12.162  1.00  0.00     0.009 C 
HETATM   31  C28 UNL     1       8.778  30.959  13.230  1.00  0.00     0.009 C 
ENDBRANCH  28  29
ENDBRANCH  27  28
ENDBRANCH  25  27
ENDBRANCH  23  25
ENDBRANCH  22  23
ENDBRANCH  19  22
ENDBRANCH  18  19
ENDBRANCH  17  18
ENDBRANCH  15  17
ENDBRANCH   8  15
BRANCH   3  32
HETATM   32  O4  UNL     1      11.716  36.983   0.913  1.00  0.00    -0.395 OA
ATOM     33  H4  UNL     1      12.061  37.487   1.640  1.00  0.00     0.210 HD
ENDBRANCH   3  32
BRANCH   1  34
HETATM   34  C3  UNL     1      10.471  35.899  -2.164  1.00  0.00     0.146 C 
HETATM   35  C4  UNL     1      10.655  37.103  -3.127  1.00  0.00     0.057 C 
BRANCH  34  36
HETATM   36  C2  UNL     1       9.789  34.883  -3.004  1.00  0.00     0.293 C 
HETATM   37  O2  UNL     1      10.361  34.338  -3.957  1.00  0.00    -0.262 OA
BRANCH  36  38
HETATM   38  O1  UNL     1       8.479  34.523  -2.735  1.00  0.00    -0.324 OA
HETATM   39  C1  UNL     1       8.147  33.175  -2.368  1.00  0.00     0.213 C 
ENDBRANCH  36  38
ENDBRANCH  34  36
BRANCH  34  40
HETATM   40  O3  UNL     1       9.622  36.433  -1.199  1.00  0.00    -0.380 OA
ATOM     41  H3  UNL     1      10.103  36.803  -0.468  1.00  0.00     0.211 HD
ENDBRANCH  34  40
ENDBRANCH   1  34
TORSDOF 15
ENDMDL
MODEL 3
REMARK VINA RESULT: -6.803599101      6.797     10.769
REMARK  15 active torsions:
REMARK  status: ('A' for Active; 'I' for Inactive)
REMARK    1  A    between atoms: O1_2  and  C2_3 
REMARK    2  A    between atoms: C2_3  and  C3_5 
REMARK    3  A    between atoms: C3_5  and  O3_7 
REMARK    4  A    between atoms: C3_5  and  C5_9 
REMARK    5  A    between atoms: C7_11  and  O4_12 
REMARK    6  A    between atoms: C12_18  and  C13_19 
REMARK    7  A    between atoms: C13_19  and  C15_21 
REMARK    8  A    between atoms: C15_21  and  C16_22 
REMARK    9  A    between atoms: C16_22  and  C17_23 
REMARK   10  A    between atoms: C17_23  and  C20_26 
REMARK   11  A    between atoms: C20_26  and  C21_27 
REMARK   12  A    between atoms: C21_27  and  C22_29 
REMARK   13  A    between atoms: C22_29  and  C24_31 
REMARK   14  A    between atoms: C24_31  and  C25_32 
REMARK   15  A    between atoms: C25_32  and  C26_33 
ROOT
HETATM    1  C5  UNL     1      11.868  35.383  -1.553  1.00  0.00     0.041 C 
HETATM    2  C6  UNL     1      12.423  36.708  -1.060  1.00  0.00     0.041 C 
HETATM    3  C7  UNL     1      12.721  36.484   0.427  1.00  0.00     0.123 C 
HETATM    4  C8  UNL     1      13.131  35.055   0.405  1.00  0.00     0.028 C 
HETATM    5  C9  UNL     1      13.437  34.380   1.689  1.00  0.00     0.001 C 
HETATM    6  C10 UNL     1      13.672  35.413   2.783  1.00  0.00     0.006 C 
HETATM    7  C11 UNL     1      12.638  35.104   3.863  1.00  0.00     0.006 C 
HETATM    8  C12 UNL     1      12.519  33.645   3.744  1.00  0.00    -0.002 C 
HETATM    9  C29 UNL     1      12.491  33.399   2.247  1.00  0.00    -0.036 C 
HETATM   10  C30 UNL     1      12.745  31.938   2.077  1.00  0.00     0.016 C 
HETATM   11  C31 UNL     1      11.098  33.620   1.693  1.00  0.00     0.011 C 
HETATM   12  C32 UNL     1      11.026  33.731   0.209  1.00  0.00     0.011 C 
HETATM   13  C33 UNL     1      12.147  34.362  -0.514  1.00  0.00    -0.031 C 
HETATM   14  C34 UNL     1      12.955  33.275  -1.249  1.00  0.00     0.016 C 
ENDROOT
BRANCH   8  15
HETATM   15  C13 UNL     1      13.389  32.812   4.574  1.00  0.00    -0.014 C 
HETATM   16  C14 UNL     1      14.659  33.360   5.110  1.00  0.00     0.010 C 
BRANCH  15  17
HETATM   17  C15 UNL     1      12.657  31.992   5.587  1.00  0.00     0.005 C 
BRANCH  17  18
HETATM   18  C16 UNL     1      12.886  30.536   5.610  1.00  0.00     0.009 C 
BRANCH  18  19
HETATM   19  C17 UNL     1      13.236  30.100   7.048  1.00  0.00    -0.041 C 
HETATM   20  C18 UNL     1      13.296  28.589   7.022  1.00  0.00     0.015 C 
HETATM   21  C19 UNL     1      14.516  30.711   7.528  1.00  0.00     0.015 C 
BRANCH  19  22
HETATM   22  C20 UNL     1      12.153  30.517   7.996  1.00  0.00     0.087 C 
BRANCH  22  23
HETATM   23  C21 UNL     1      12.727  30.700   9.346  1.00  0.00     0.131 C 
HETATM   24  O5  UNL     1      13.649  31.458   9.624  1.00  0.00    -0.298 OA
BRANCH  23  25
HETATM   25  C22 UNL     1      12.165  29.917  10.484  1.00  0.00     0.051 C 
HETATM   26  C23 UNL     1      11.496  30.907  11.420  1.00  0.00     0.018 C 
BRANCH  25  27
HETATM   27  C24 UNL     1      11.164  28.931   9.923  1.00  0.00     0.012 C 
BRANCH  27  28
HETATM   28  C25 UNL     1      11.438  27.606  10.605  1.00  0.00     0.004 C 
BRANCH  28  29
HETATM   29  C26 UNL     1      11.091  26.425   9.747  1.00  0.00    -0.023 C 
HETATM   30  C27 UNL     1      12.287  25.688   9.221  1.00  0.00     0.009 C 
HETATM   31  C28 UNL     1      10.233  25.496  10.585  1.00  0.00     0.009 C 
ENDBRANCH  28  29
ENDBRANCH  27  28
ENDBRANCH  25  27
ENDBRANCH  23  25
ENDBRANCH  22  23
ENDBRANCH  19  22
ENDBRANCH  18  19
ENDBRANCH  17  18
ENDBRANCH  15  17
ENDBRANCH   8  15
BRANCH   3  32
HETATM   32  O4  UNL     1      11.567  36.829   1.049  1.00  0.00    -0.395 OA
ATOM     33  H4  UNL     1      11.060  36.026   1.056  1.00  0.00     0.210 HD
ENDBRANCH   3  32
BRANCH   1  34
HETATM   34  C3  UNL     1      10.504  35.619  -2.049  1.00  0.00     0.146 C 
HETATM   35  C4  UNL     1      10.623  36.831  -3.010  1.00  0.00     0.057 C 
BRANCH  34  36
HETATM   36  C2  UNL     1       9.932  34.550  -2.907  1.00  0.00     0.293 C 
HETATM   37  O2  UNL     1      10.478  34.202  -3.962  1.00  0.00    -0.262 OA
BRANCH  36  38
HETATM   38  O1  UNL     1       8.759  33.915  -2.537  1.00  0.00    -0.324 OA
HETATM   39  C1  UNL     1       7.966  33.211  -3.506  1.00  0.00     0.213 C 
ENDBRANCH  36  38
ENDBRANCH  34  36
BRANCH  34  40
HETATM   40  O3  UNL     1       9.584  36.084  -1.114  1.00  0.00    -0.380 OA
ATOM     41  H3  UNL     1       9.967  36.165  -0.248  1.00  0.00     0.211 HD
ENDBRANCH  34  40
ENDBRANCH   1  34
TORSDOF 15
ENDMDL
MODEL 4
REMARK VINA RESULT: -6.784414469      9.526     13.453
REMARK  15 active torsions:
REMARK  status: ('A' for Active; 'I' for Inactive)
REMARK    1  A    between atoms: O1_2  and  C2_3 
REMARK    2  A    between atoms: C2_3  and  C3_5 
REMARK    3  A    between atoms: C3_5  and  O3_7 
REMARK    4  A    between atoms: C3_5  and  C5_9 
REMARK    5  A    between atoms: C7_11  and  O4_12 
REMARK    6  A    between atoms: C12_18  and  C13_19 
REMARK    7  A    between atoms: C13_19  and  C15_21 
REMARK    8  A    between atoms: C15_21  and  C16_22 
REMARK    9  A    between atoms: C16_22  and  C17_23 
REMARK   10  A    between atoms: C17_23  and  C20_26 
REMARK   11  A    between atoms: C20_26  and  C21_27 
REMARK   12  A    between atoms: C21_27  and  C22_29 
REMARK   13  A    between atoms: C22_29  and  C24_31 
REMARK   14  A    between atoms: C24_31  and  C25_32 
REMARK   15  A    between atoms: C25_32  and  C26_33 
ROOT
HETATM    1  C5  UNL     1       3.082  36.071  -0.040  1.00  0.00     0.041 C 
HETATM    2  C6  UNL     1       3.482  37.213  -0.957  1.00  0.00     0.041 C 
HETATM    3  C7  UNL     1       4.976  36.999  -1.227  1.00  0.00     0.123 C 
HETATM    4  C8  UNL     1       5.038  35.514  -1.223  1.00  0.00     0.028 C 
HETATM    5  C9  UNL     1       6.358  34.853  -1.369  1.00  0.00     0.001 C 
HETATM    6  C10 UNL     1       7.381  35.839  -1.915  1.00  0.00     0.006 C 
HETATM    7  C11 UNL     1       8.493  35.893  -0.870  1.00  0.00     0.006 C 
HETATM    8  C12 UNL     1       8.467  34.520  -0.347  1.00  0.00    -0.002 C 
HETATM    9  C29 UNL     1       6.989  34.209  -0.205  1.00  0.00    -0.036 C 
HETATM   10  C30 UNL     1       6.907  32.727  -0.038  1.00  0.00     0.016 C 
HETATM   11  C31 UNL     1       6.441  34.778   1.088  1.00  0.00     0.011 C 
HETATM   12  C32 UNL     1       4.955  34.821   1.172  1.00  0.00     0.011 C 
HETATM   13  C33 UNL     1       4.178  35.072  -0.057  1.00  0.00    -0.031 C 
HETATM   14  C34 UNL     1       3.501  33.763  -0.509  1.00  0.00     0.016 C 
ENDROOT
BRANCH   8  15
HETATM   15  C13 UNL     1       9.335  33.526  -0.976  1.00  0.00    -0.014 C 
HETATM   16  C14 UNL     1       9.529  33.526  -2.446  1.00  0.00     0.010 C 
BRANCH  15  17
HETATM   17  C15 UNL     1      10.613  33.282  -0.240  1.00  0.00     0.005 C 
BRANCH  17  18
HETATM   18  C16 UNL     1      11.876  33.717  -0.862  1.00  0.00     0.009 C 
BRANCH  18  19
HETATM   19  C17 UNL     1      12.430  34.933  -0.090  1.00  0.00    -0.041 C 
HETATM   20  C18 UNL     1      13.928  34.732  -0.017  1.00  0.00     0.015 C 
HETATM   21  C19 UNL     1      12.062  36.230  -0.739  1.00  0.00     0.015 C 
BRANCH  19  22
HETATM   22  C20 UNL     1      11.885  34.954   1.305  1.00  0.00     0.087 C 
BRANCH  22  23
HETATM   23  C21 UNL     1      12.981  35.245   2.255  1.00  0.00     0.131 C 
HETATM   24  O5  UNL     1      13.554  36.322   2.363  1.00  0.00    -0.298 OA
BRANCH  23  25
HETATM   25  C22 UNL     1      13.451  34.165   3.170  1.00  0.00     0.051 C 
HETATM   26  C23 UNL     1      13.214  34.647   4.589  1.00  0.00     0.018 C 
BRANCH  25  27
HETATM   27  C24 UNL     1      12.648  32.918   2.873  1.00  0.00     0.012 C 
BRANCH  27  28
HETATM   28  C25 UNL     1      12.607  32.118   4.159  1.00  0.00     0.004 C 
BRANCH  28  29
HETATM   29  C26 UNL     1      11.644  30.969   4.101  1.00  0.00    -0.023 C 
HETATM   30  C27 UNL     1      11.180  30.637   2.714  1.00  0.00     0.009 C 
HETATM   31  C28 UNL     1      12.336  29.769   4.720  1.00  0.00     0.009 C 
ENDBRANCH  28  29
ENDBRANCH  27  28
ENDBRANCH  25  27
ENDBRANCH  23  25
ENDBRANCH  22  23
ENDBRANCH  19  22
ENDBRANCH  18  19
ENDBRANCH  17  18
ENDBRANCH  15  17
ENDBRANCH   8  15
BRANCH   3  32
HETATM   32  O4  UNL     1       5.592  37.687  -0.234  1.00  0.00    -0.395 OA
ATOM     33  H4  UNL     1       5.997  38.421  -0.679  1.00  0.00     0.210 HD
ENDBRANCH   3  32
BRANCH   1  34
HETATM   34  C3  UNL     1       2.590  36.650   1.219  1.00  0.00     0.146 C 
HETATM   35  C4  UNL     1       1.511  37.682   0.800  1.00  0.00     0.057 C 
BRANCH  34  36
HETATM   36  C2  UNL     1       1.855  35.722   2.115  1.00  0.00     0.293 C 
HETATM   37  O2  UNL     1       1.068  34.876   1.671  1.00  0.00    -0.262 OA
BRANCH  36  38
HETATM   38  O1  UNL     1       2.038  35.790   3.486  1.00  0.00    -0.324 OA
HETATM   39  C1  UNL     1       2.731  34.747   4.189  1.00  0.00     0.213 C 
ENDBRANCH  36  38
ENDBRANCH  34  36
BRANCH  34  40
HETATM   40  O3  UNL     1       3.492  37.446   1.919  1.00  0.00    -0.380 OA
ATOM     41  H3  UNL     1       4.379  37.351   1.591  1.00  0.00     0.211 HD
ENDBRANCH  34  40
ENDBRANCH   1  34
TORSDOF 15
ENDMDL
MODEL 5
REMARK VINA RESULT: -6.611473094      9.081     13.162
REMARK  15 active torsions:
REMARK  status: ('A' for Active; 'I' for Inactive)
REMARK    1  A    between atoms: O1_2  and  C2_3 
REMARK    2  A    between atoms: C2_3  and  C3_5 
REMARK    3  A    between atoms: C3_5  and  O3_7 
REMARK    4  A    between atoms: C3_5  and  C5_9 
REMARK    5  A    between atoms: C7_11  and  O4_12 
REMARK    6  A    between atoms: C12_18  and  C13_19 
REMARK    7  A    between atoms: C13_19  and  C15_21 
REMARK    8  A    between atoms: C15_21  and  C16_22 
REMARK    9  A    between atoms: C16_22  and  C17_23 
REMARK   10  A    between atoms: C17_23  and  C20_26 
REMARK   11  A    between atoms: C20_26  and  C21_27 
REMARK   12  A    between atoms: C21_27  and  C22_29 
REMARK   13  A    between atoms: C22_29  and  C24_31 
REMARK   14  A    between atoms: C24_31  and  C25_32 
REMARK   15  A    between atoms: C25_32  and  C26_33 
ROOT
HETATM    1  C5  UNL     1       3.358  36.041  -0.210  1.00  0.00     0.041 C 
HETATM    2  C6  UNL     1       3.862  37.219  -1.026  1.00  0.00     0.041 C 
HETATM    3  C7  UNL     1       5.349  36.929  -1.264  1.00  0.00     0.123 C 
HETATM    4  C8  UNL     1       5.318  35.447  -1.368  1.00  0.00     0.028 C 
HETATM    5  C9  UNL     1       6.598  34.714  -1.521  1.00  0.00     0.001 C 
HETATM    6  C10 UNL     1       7.700  35.669  -1.959  1.00  0.00     0.006 C 
HETATM    7  C11 UNL     1       8.775  35.575  -0.878  1.00  0.00     0.006 C 
HETATM    8  C12 UNL     1       8.644  34.172  -0.460  1.00  0.00    -0.002 C 
HETATM    9  C29 UNL     1       7.146  33.948  -0.389  1.00  0.00    -0.036 C 
HETATM   10  C30 UNL     1       6.966  32.466  -0.335  1.00  0.00     0.016 C 
HETATM   11  C31 UNL     1       6.588  34.456   0.925  1.00  0.00     0.011 C 
HETATM   12  C32 UNL     1       5.105  34.589   0.965  1.00  0.00     0.011 C 
HETATM   13  C33 UNL     1       4.390  34.978  -0.266  1.00  0.00    -0.031 C 
HETATM   14  C34 UNL     1       3.650  33.752  -0.836  1.00  0.00     0.016 C 
ENDROOT
BRANCH   8  15
HETATM   15  C13 UNL     1       9.471  33.172  -1.133  1.00  0.00    -0.014 C 
HETATM   16  C14 UNL     1       9.935  33.399  -2.524  1.00  0.00     0.010 C 
BRANCH  15  17
HETATM   17  C15 UNL     1      10.543  32.589  -0.270  1.00  0.00     0.005 C 
BRANCH  17  18
HETATM   18  C16 UNL     1      10.682  33.086   1.110  1.00  0.00     0.009 C 
BRANCH  18  19
HETATM   19  C17 UNL     1      12.010  33.861   1.240  1.00  0.00    -0.041 C 
HETATM   20  C18 UNL     1      12.844  33.462   0.044  1.00  0.00     0.015 C 
HETATM   21  C19 UNL     1      11.794  35.341   1.314  1.00  0.00     0.015 C 
BRANCH  19  22
HETATM   22  C20 UNL     1      12.733  33.447   2.485  1.00  0.00     0.087 C 
BRANCH  22  23
HETATM   23  C21 UNL     1      12.428  32.031   2.780  1.00  0.00     0.131 C 
HETATM   24  O5  UNL     1      12.496  31.111   1.973  1.00  0.00    -0.298 OA
BRANCH  23  25
HETATM   25  C22 UNL     1      12.000  31.654   4.158  1.00  0.00     0.051 C 
HETATM   26  C23 UNL     1      11.789  30.151   4.165  1.00  0.00     0.018 C 
BRANCH  25  27
HETATM   27  C24 UNL     1      13.100  32.057   5.116  1.00  0.00     0.012 C 
BRANCH  27  28
HETATM   28  C25 UNL     1      12.929  31.198   6.351  1.00  0.00     0.004 C 
BRANCH  28  29
HETATM   29  C26 UNL     1      14.235  30.720   6.915  1.00  0.00    -0.023 C 
HETATM   30  C27 UNL     1      14.510  31.212   8.305  1.00  0.00     0.009 C 
HETATM   31  C28 UNL     1      14.207  29.203   6.895  1.00  0.00     0.009 C 
ENDBRANCH  28  29
ENDBRANCH  27  28
ENDBRANCH  25  27
ENDBRANCH  23  25
ENDBRANCH  22  23
ENDBRANCH  19  22
ENDBRANCH  18  19
ENDBRANCH  17  18
ENDBRANCH  15  17
ENDBRANCH   8  15
BRANCH   3  32
HETATM   32  O4  UNL     1       5.969  37.502  -0.202  1.00  0.00    -0.395 OA
ATOM     33  H4  UNL     1       6.803  37.052  -0.152  1.00  0.00     0.210 HD
ENDBRANCH   3  32
BRANCH   1  34
HETATM   34  C3  UNL     1       2.858  36.558   1.073  1.00  0.00     0.146 C 
HETATM   35  C4  UNL     1       1.817  37.646   0.697  1.00  0.00     0.057 C 
BRANCH  34  36
HETATM   36  C2  UNL     1       2.080  35.601   1.898  1.00  0.00     0.293 C 
HETATM   37  O2  UNL     1       1.148  34.940   1.421  1.00  0.00    -0.262 OA
BRANCH  36  38
HETATM   38  O1  UNL     1       2.384  35.430   3.237  1.00  0.00    -0.324 OA
HETATM   39  C1  UNL     1       2.072  34.201   3.912  1.00  0.00     0.213 C 
ENDBRANCH  36  38
ENDBRANCH  34  36
BRANCH  34  40
HETATM   40  O3  UNL     1       3.768  37.285   1.836  1.00  0.00    -0.380 OA
ATOM     41  H3  UNL     1       4.480  37.628   1.309  1.00  0.00     0.211 HD
ENDBRANCH  34  40
ENDBRANCH   1  34
TORSDOF 15
ENDMDL
