MODEL 1
REMARK VINA RESULT: -6.231314799      0.000      0.000
REMARK  15 active torsions:
REMARK  status: ('A' for Active; 'I' for Inactive)
REMARK    1  A    between atoms: C2_2  and  C3_3 
REMARK    2  A    between atoms: C4_5  and  C6_7 
REMARK    3  A    between atoms: C6_7  and  C7_8 
REMARK    4  A    between atoms: C7_8  and  C8_9 
REMARK    5  A    between atoms: C8_9  and  O2_10 
REMARK    6  A    between atoms: C8_9  and  C9_12 
REMARK    7  A    between atoms: C15_18  and  O3_19 
REMARK    8  A    between atoms: C15_18  and  C16_21 
REMARK    9  A    between atoms: C17_22  and  C18_23 
REMARK   10  A    between atoms: C18_23  and  C20_25 
REMARK   11  A    between atoms: C20_25  and  C22_27 
REMARK   12  A    between atoms: C24_29  and  C25_30 
REMARK   13  A    between atoms: C25_30  and  C27_32 
REMARK   14  A    between atoms: C27_32  and  C28_33 
REMARK   15  A    between atoms: C31_38  and  C32_39 
ROOT
HETATM    1  C3  UNL     1      10.722  36.255  -0.653  1.00  0.00     0.119 C 
HETATM    2  O1  UNL     1      12.036  36.631  -0.364  1.00  0.00    -0.361 OA
HETATM    3  C4  UNL     1      12.230  35.587   0.580  1.00  0.00     0.066 C 
HETATM    4  C5  UNL     1      13.208  34.614  -0.003  1.00  0.00     0.046 C 
HETATM    5  C12 UNL     1      10.778  35.374   0.479  1.00  0.00     0.061 C 
HETATM    6  C13 UNL     1      10.280  33.993   0.492  1.00  0.00     0.014 C 
HETATM    7  C14 UNL     1      10.702  33.000  -0.485  1.00  0.00     0.043 C 
HETATM    8  C15 UNL     1       9.590  32.024  -0.971  1.00  0.00     0.088 C 
HETATM    9  C24 UNL     1       8.623  32.602  -1.884  1.00  0.00     0.127 C 
HETATM   10  C30 UNL     1       8.494  34.117  -1.837  1.00  0.00     0.267 C 
HETATM   11  O4  UNL     1       7.339  34.517  -1.434  1.00  0.00    -0.265 OA
HETATM   12  O5  UNL     1       9.545  34.782  -2.204  1.00  0.00    -0.304 OA
HETATM   13  C31 UNL     1      10.458  35.751  -2.028  1.00  0.00     0.239 C 
ENDROOT
BRANCH   8  14
HETATM   14  O3  UNL     1      10.347  30.996  -1.569  1.00  0.00    -0.385 OA
ATOM     15  H3  UNL     1      10.852  31.476  -2.215  1.00  0.00     0.211 HD
ENDBRANCH   8  14
BRANCH   8  16
HETATM   16  C16 UNL     1       8.977  31.436   0.252  1.00  0.00     0.008 C 
HETATM   17  C17 UNL     1       8.527  30.246   0.478  1.00  0.00    -0.019 C 
BRANCH  17  18
HETATM   18  C18 UNL     1       8.443  29.046  -0.351  1.00  0.00     0.032 C 
HETATM   19  C19 UNL     1       7.201  29.045  -1.237  1.00  0.00     0.018 C 
BRANCH  18  20
HETATM   20  C20 UNL     1       8.263  27.813   0.521  1.00  0.00    -0.082 C 
HETATM   21  C21 UNL     1       7.843  26.677  -0.002  1.00  0.00     0.015 C 
BRANCH  20  22
HETATM   22  C22 UNL     1       8.571  27.937   1.951  1.00  0.00     0.029 C 
HETATM   23  C23 UNL     1       9.649  26.963   2.355  1.00  0.00     0.010 C 
ENDBRANCH  20  22
ENDBRANCH  18  20
ENDBRANCH  17  18
ENDBRANCH   8  16
BRANCH   9  24
HETATM   24  C25 UNL     1       8.708  32.321  -3.365  1.00  0.00    -0.002 C 
HETATM   25  C26 UNL     1       7.225  31.976  -3.713  1.00  0.00     0.011 C 
BRANCH  24  26
HETATM   26  C27 UNL     1       9.523  31.150  -3.774  1.00  0.00     0.005 C 
BRANCH  26  27
HETATM   27  C28 UNL     1       8.702  30.070  -4.501  1.00  0.00    -0.004 C 
HETATM   28  C29 UNL     1       9.439  28.756  -4.179  1.00  0.00     0.005 C 
ENDBRANCH  26  27
ENDBRANCH  24  26
ENDBRANCH   9  24
BRANCH   1  29
HETATM   29  C2  UNL     1       9.879  37.474  -0.427  1.00  0.00     0.004 C 
HETATM   30  C1  UNL     1       8.698  37.485   0.137  1.00  0.00     0.010 C 
ENDBRANCH   1  29
BRANCH   3  31
HETATM   31  C6  UNL     1      12.786  36.214   1.847  1.00  0.00     0.041 C 
BRANCH  31  32
HETATM   32  C7  UNL     1      13.540  35.332   2.716  1.00  0.00     0.035 C 
BRANCH  32  33
HETATM   33  C8  UNL     1      12.755  34.394   3.543  1.00  0.00     0.121 C 
BRANCH  33  34
HETATM   34  O2  UNL     1      12.722  34.814   4.903  1.00  0.00    -0.395 OA
ATOM     35  H2  UNL     1      13.522  35.269   5.140  1.00  0.00     0.210 HD
ENDBRANCH  33  34
BRANCH  33  36
HETATM   36  C9  UNL     1      13.109  32.960   3.578  1.00  0.00     0.006 C 
HETATM   37  C10 UNL     1      12.944  32.508   5.054  1.00  0.00     0.012 C 
HETATM   38  C11 UNL     1      12.253  32.013   2.805  1.00  0.00     0.012 C 
ENDBRANCH  33  36
ENDBRANCH  32  33
ENDBRANCH  31  32
ENDBRANCH   3  31
BRANCH  13  39
HETATM   39  C32 UNL     1      10.121  36.845  -2.981  1.00  0.00     0.155 C 
HETATM   40  C33 UNL     1      11.090  37.838  -3.509  1.00  0.00     0.094 C 
HETATM   41  O6  UNL     1       8.979  36.947  -3.364  1.00  0.00    -0.295 OA
ENDBRANCH  13  39
TORSDOF 15
ENDMDL
MODEL 2
REMARK VINA RESULT: -6.110516075      1.540      6.261
REMARK  15 active torsions:
REMARK  status: ('A' for Active; 'I' for Inactive)
REMARK    1  A    between atoms: C2_2  and  C3_3 
REMARK    2  A    between atoms: C4_5  and  C6_7 
REMARK    3  A    between atoms: C6_7  and  C7_8 
REMARK    4  A    between atoms: C7_8  and  C8_9 
REMARK    5  A    between atoms: C8_9  and  O2_10 
REMARK    6  A    between atoms: C8_9  and  C9_12 
REMARK    7  A    between atoms: C15_18  and  O3_19 
REMARK    8  A    between atoms: C15_18  and  C16_21 
REMARK    9  A    between atoms: C17_22  and  C18_23 
REMARK   10  A    between atoms: C18_23  and  C20_25 
REMARK   11  A    between atoms: C20_25  and  C22_27 
REMARK   12  A    between atoms: C24_29  and  C25_30 
REMARK   13  A    between atoms: C25_30  and  C27_32 
REMARK   14  A    between atoms: C27_32  and  C28_33 
REMARK   15  A    between atoms: C31_38  and  C32_39 
ROOT
HETATM    1  C3  UNL     1       8.932  32.651  -2.052  1.00  0.00     0.119 C 
HETATM    2  O1  UNL     1       7.873  32.023  -1.391  1.00  0.00    -0.361 OA
HETATM    3  C4  UNL     1       8.641  31.737  -0.229  1.00  0.00     0.066 C 
HETATM    4  C5  UNL     1       8.122  32.591   0.887  1.00  0.00     0.046 C 
HETATM    5  C12 UNL     1       9.806  32.144  -1.032  1.00  0.00     0.061 C 
HETATM    6  C13 UNL     1      10.863  32.919  -0.372  1.00  0.00     0.014 C 
HETATM    7  C14 UNL     1      10.607  34.196   0.279  1.00  0.00     0.043 C 
HETATM    8  C15 UNL     1      11.720  35.271   0.105  1.00  0.00     0.088 C 
HETATM    9  C24 UNL     1      11.780  35.883  -1.209  1.00  0.00     0.127 C 
HETATM   10  C30 UNL     1      11.159  35.078  -2.341  1.00  0.00     0.267 C 
HETATM   11  O4  UNL     1      12.015  34.699  -3.224  1.00  0.00    -0.265 OA
HETATM   12  O5  UNL     1       9.879  34.891  -2.261  1.00  0.00    -0.304 OA
HETATM   13  C31 UNL     1       8.787  34.110  -2.308  1.00  0.00     0.239 C 
ENDROOT
BRANCH   8  14
HETATM   14  O3  UNL     1      11.388  36.197   1.114  1.00  0.00    -0.385 OA
ATOM     15  H3  UNL     1      11.328  35.639   1.880  1.00  0.00     0.211 HD
ENDBRANCH   8  14
BRANCH   8  16
HETATM   16  C16 UNL     1      12.997  34.632   0.524  1.00  0.00     0.008 C 
HETATM   17  C17 UNL     1      13.386  34.211   1.683  1.00  0.00    -0.019 C 
BRANCH  17  18
HETATM   18  C18 UNL     1      12.747  34.197   2.995  1.00  0.00     0.032 C 
HETATM   19  C19 UNL     1      13.505  35.043   4.014  1.00  0.00     0.018 C 
BRANCH  18  20
HETATM   20  C20 UNL     1      12.789  32.797   3.589  1.00  0.00    -0.082 C 
HETATM   21  C21 UNL     1      13.398  32.573   4.737  1.00  0.00     0.015 C 
BRANCH  20  22
HETATM   22  C22 UNL     1      12.134  31.718   2.839  1.00  0.00     0.029 C 
HETATM   23  C23 UNL     1      11.770  30.574   3.751  1.00  0.00     0.010 C 
ENDBRANCH  20  22
ENDBRANCH  18  20
ENDBRANCH  17  18
ENDBRANCH   8  16
BRANCH   9  24
HETATM   24  C25 UNL     1      11.217  37.265  -1.434  1.00  0.00    -0.002 C 
HETATM   25  C26 UNL     1      12.502  38.151  -1.371  1.00  0.00     0.011 C 
BRANCH  24  26
HETATM   26  C27 UNL     1      10.292  37.784  -0.397  1.00  0.00     0.005 C 
BRANCH  26  27
HETATM   27  C28 UNL     1       8.840  37.908  -0.892  1.00  0.00    -0.004 C 
HETATM   28  C29 UNL     1       8.051  36.937   0.007  1.00  0.00     0.005 C 
ENDBRANCH  26  27
ENDBRANCH  24  26
ENDBRANCH   9  24
BRANCH   1  29
HETATM   29  C2  UNL     1       9.075  31.952  -3.370  1.00  0.00     0.004 C 
HETATM   30  C1  UNL     1      10.120  31.263  -3.754  1.00  0.00     0.010 C 
ENDBRANCH   1  29
BRANCH   3  31
HETATM   31  C6  UNL     1       8.457  30.264   0.090  1.00  0.00     0.041 C 
BRANCH  31  32
HETATM   32  C7  UNL     1       9.085  29.794   1.309  1.00  0.00     0.035 C 
BRANCH  32  33
HETATM   33  C8  UNL     1       8.689  28.452   1.778  1.00  0.00     0.121 C 
BRANCH  33  34
HETATM   34  O2  UNL     1       9.224  28.181   3.070  1.00  0.00    -0.395 OA
ATOM     35  H2  UNL     1      10.117  27.861   3.010  1.00  0.00     0.210 HD
ENDBRANCH  33  34
BRANCH  33  36
HETATM   36  C9  UNL     1       8.997  27.259   0.962  1.00  0.00     0.006 C 
HETATM   37  C10 UNL     1       9.443  26.155   1.958  1.00  0.00     0.012 C 
HETATM   38  C11 UNL     1       7.881  26.634   0.195  1.00  0.00     0.012 C 
ENDBRANCH  33  36
ENDBRANCH  32  33
ENDBRANCH  31  32
ENDBRANCH   3  31
BRANCH  13  39
HETATM   39  C32 UNL     1       8.101  34.397  -3.598  1.00  0.00     0.155 C 
HETATM   40  C33 UNL     1       6.634  34.321  -3.813  1.00  0.00     0.094 C 
HETATM   41  O6  UNL     1       8.771  34.719  -4.551  1.00  0.00    -0.295 OA
ENDBRANCH  13  39
TORSDOF 15
ENDMDL
MODEL 3
REMARK VINA RESULT: -6.095608102      1.941      3.543
REMARK  15 active torsions:
REMARK  status: ('A' for Active; 'I' for Inactive)
REMARK    1  A    between atoms: C2_2  and  C3_3 
REMARK    2  A    between atoms: C4_5  and  C6_7 
REMARK    3  A    between atoms: C6_7  and  C7_8 
REMARK    4  A    between atoms: C7_8  and  C8_9 
REMARK    5  A    between atoms: C8_9  and  O2_10 
REMARK    6  A    between atoms: C8_9  and  C9_12 
REMARK    7  A    between atoms: C15_18  and  O3_19 
REMARK    8  A    between atoms: C15_18  and  C16_21 
REMARK    9  A    between atoms: C17_22  and  C18_23 
REMARK   10  A    between atoms: C18_23  and  C20_25 
REMARK   11  A    between atoms: C20_25  and  C22_27 
REMARK   12  A    between atoms: C24_29  and  C25_30 
REMARK   13  A    between atoms: C25_30  and  C27_32 
REMARK   14  A    between atoms: C27_32  and  C28_33 
REMARK   15  A    between atoms: C31_38  and  C32_39 
ROOT
HETATM    1  C3  UNL     1       8.481  35.533  -1.782  1.00  0.00     0.119 C 
HETATM    2  O1  UNL     1       9.622  36.182  -2.259  1.00  0.00    -0.361 OA
HETATM    3  C4  UNL     1      10.417  35.816  -1.138  1.00  0.00     0.066 C 
HETATM    4  C5  UNL     1      11.442  34.828  -1.603  1.00  0.00     0.046 C 
HETATM    5  C12 UNL     1       9.153  35.382  -0.522  1.00  0.00     0.061 C 
HETATM    6  C13 UNL     1       9.163  34.154   0.282  1.00  0.00     0.014 C 
HETATM    7  C14 UNL     1       9.580  32.868  -0.258  1.00  0.00     0.043 C 
HETATM    8  C15 UNL     1       8.758  31.639   0.230  1.00  0.00     0.088 C 
HETATM    9  C24 UNL     1       7.432  31.520  -0.344  1.00  0.00     0.127 C 
HETATM   10  C30 UNL     1       6.834  32.806  -0.895  1.00  0.00     0.267 C 
HETATM   11  O4  UNL     1       5.784  33.191  -0.258  1.00  0.00    -0.265 OA
HETATM   12  O5  UNL     1       7.451  33.323  -1.911  1.00  0.00    -0.304 OA
HETATM   13  C31 UNL     1       8.005  34.358  -2.563  1.00  0.00     0.239 C 
ENDROOT
BRANCH   8  14
HETATM   14  O3  UNL     1       9.599  30.567  -0.131  1.00  0.00    -0.385 OA
ATOM     15  H3  UNL     1      10.240  30.576   0.570  1.00  0.00     0.211 HD
ENDBRANCH   8  14
BRANCH   8  16
HETATM   16  C16 UNL     1       8.761  31.690   1.718  1.00  0.00     0.008 C 
HETATM   17  C17 UNL     1       9.497  31.069   2.580  1.00  0.00    -0.019 C 
BRANCH  17  18
HETATM   18  C18 UNL     1      10.581  30.101   2.439  1.00  0.00     0.032 C 
HETATM   19  C19 UNL     1      10.138  28.685   2.793  1.00  0.00     0.018 C 
BRANCH  18  20
HETATM   20  C20 UNL     1      11.685  30.394   3.444  1.00  0.00    -0.082 C 
HETATM   21  C21 UNL     1      12.082  29.466   4.293  1.00  0.00     0.015 C 
BRANCH  20  22
HETATM   22  C22 UNL     1      12.282  31.735   3.431  1.00  0.00     0.029 C 
HETATM   23  C23 UNL     1      12.795  32.108   4.799  1.00  0.00     0.010 C 
ENDBRANCH  20  22
ENDBRANCH  18  20
ENDBRANCH  17  18
ENDBRANCH   8  16
BRANCH   9  24
HETATM   24  C25 UNL     1       7.165  30.527  -1.450  1.00  0.00    -0.002 C 
HETATM   25  C26 UNL     1       5.638  30.734  -1.707  1.00  0.00     0.011 C 
BRANCH  24  26
HETATM   26  C27 UNL     1       7.350  29.094  -1.117  1.00  0.00     0.005 C 
BRANCH  26  27
HETATM   27  C28 UNL     1       6.642  28.150  -2.106  1.00  0.00    -0.004 C 
HETATM   28  C29 UNL     1       6.457  26.842  -1.313  1.00  0.00     0.005 C 
ENDBRANCH  26  27
ENDBRANCH  24  26
ENDBRANCH   9  24
BRANCH   1  29
HETATM   29  C2  UNL     1       7.391  36.562  -1.765  1.00  0.00     0.004 C 
HETATM   30  C1  UNL     1       6.767  36.987  -0.695  1.00  0.00     0.010 C 
ENDBRANCH   1  29
BRANCH   3  31
HETATM   31  C6  UNL     1      11.082  37.079  -0.619  1.00  0.00     0.041 C 
BRANCH  31  32
HETATM   32  C7  UNL     1      12.481  36.957  -0.257  1.00  0.00     0.035 C 
BRANCH  32  33
HETATM   33  C8  UNL     1      12.777  36.784   1.178  1.00  0.00     0.121 C 
BRANCH  33  34
HETATM   34  O2  UNL     1      13.582  37.853   1.669  1.00  0.00    -0.395 OA
ATOM     35  H2  UNL     1      13.446  37.984   2.600  1.00  0.00     0.210 HD
ENDBRANCH  33  34
BRANCH  33  36
HETATM   36  C9  UNL     1      13.424  35.546   1.659  1.00  0.00     0.006 C 
HETATM   37  C10 UNL     1      13.207  35.511   3.196  1.00  0.00     0.012 C 
HETATM   38  C11 UNL     1      12.875  34.244   1.180  1.00  0.00     0.012 C 
ENDBRANCH  33  36
ENDBRANCH  32  33
ENDBRANCH  31  32
ENDBRANCH   3  31
BRANCH  13  39
HETATM   39  C32 UNL     1       7.063  34.742  -3.651  1.00  0.00     0.155 C 
HETATM   40  C33 UNL     1       5.593  34.530  -3.613  1.00  0.00     0.094 C 
HETATM   41  O6  UNL     1       7.508  35.267  -4.643  1.00  0.00    -0.295 OA
ENDBRANCH  13  39
TORSDOF 15
ENDMDL
MODEL 4
REMARK VINA RESULT: -6.025512737      1.596      2.344
REMARK  15 active torsions:
REMARK  status: ('A' for Active; 'I' for Inactive)
REMARK    1  A    between atoms: C2_2  and  C3_3 
REMARK    2  A    between atoms: C4_5  and  C6_7 
REMARK    3  A    between atoms: C6_7  and  C7_8 
REMARK    4  A    between atoms: C7_8  and  C8_9 
REMARK    5  A    between atoms: C8_9  and  O2_10 
REMARK    6  A    between atoms: C8_9  and  C9_12 
REMARK    7  A    between atoms: C15_18  and  O3_19 
REMARK    8  A    between atoms: C15_18  and  C16_21 
REMARK    9  A    between atoms: C17_22  and  C18_23 
REMARK   10  A    between atoms: C18_23  and  C20_25 
REMARK   11  A    between atoms: C20_25  and  C22_27 
REMARK   12  A    between atoms: C24_29  and  C25_30 
REMARK   13  A    between atoms: C25_30  and  C27_32 
REMARK   14  A    between atoms: C27_32  and  C28_33 
REMARK   15  A    between atoms: C31_38  and  C32_39 
ROOT
HETATM    1  C3  UNL     1       9.826  35.476  -1.036  1.00  0.00     0.119 C 
HETATM    2  O1  UNL     1      11.134  35.869  -1.330  1.00  0.00    -0.361 OA
HETATM    3  C4  UNL     1      11.701  35.126  -0.259  1.00  0.00     0.066 C 
HETATM    4  C5  UNL     1      12.483  33.992  -0.849  1.00  0.00     0.046 C 
HETATM    5  C12 UNL     1      10.316  34.946   0.205  1.00  0.00     0.061 C 
HETATM    6  C13 UNL     1       9.939  33.644   0.768  1.00  0.00     0.014 C 
HETATM    7  C14 UNL     1      10.067  32.402   0.021  1.00  0.00     0.043 C 
HETATM    8  C15 UNL     1       8.920  31.371   0.234  1.00  0.00     0.088 C 
HETATM    9  C24 UNL     1       7.667  31.705  -0.415  1.00  0.00     0.127 C 
HETATM   10  C30 UNL     1       7.467  33.176  -0.748  1.00  0.00     0.267 C 
HETATM   11  O4  UNL     1       6.493  33.715  -0.101  1.00  0.00    -0.265 OA
HETATM   12  O5  UNL     1       8.289  33.672  -1.620  1.00  0.00    -0.304 OA
HETATM   13  C31 UNL     1       9.145  34.616  -2.042  1.00  0.00     0.239 C 
ENDROOT
BRANCH   8  14
HETATM   14  O3  UNL     1       9.493  30.189  -0.279  1.00  0.00    -0.385 OA
ATOM     15  H3  UNL     1      10.016  29.891   0.456  1.00  0.00     0.211 HD
ENDBRANCH   8  14
BRANCH   8  16
HETATM   16  C16 UNL     1       8.795  31.173   1.704  1.00  0.00     0.008 C 
HETATM   17  C17 UNL     1       9.104  30.161   2.446  1.00  0.00    -0.019 C 
BRANCH  17  18
HETATM   18  C18 UNL     1       9.680  28.853   2.144  1.00  0.00     0.032 C 
HETATM   19  C19 UNL     1       8.640  27.738   2.207  1.00  0.00     0.018 C 
BRANCH  18  20
HETATM   20  C20 UNL     1      10.691  28.461   3.211  1.00  0.00    -0.082 C 
HETATM   21  C21 UNL     1      10.928  27.191   3.477  1.00  0.00     0.015 C 
BRANCH  20  22
HETATM   22  C22 UNL     1      11.382  29.541   3.925  1.00  0.00     0.029 C 
HETATM   23  C23 UNL     1      12.432  28.986   4.855  1.00  0.00     0.010 C 
ENDBRANCH  20  22
ENDBRANCH  18  20
ENDBRANCH  17  18
ENDBRANCH   8  16
BRANCH   9  24
HETATM   24  C25 UNL     1       7.264  31.016  -1.697  1.00  0.00    -0.002 C 
HETATM   25  C26 UNL     1       5.705  31.040  -1.599  1.00  0.00     0.011 C 
BRANCH  24  26
HETATM   26  C27 UNL     1       7.658  29.593  -1.841  1.00  0.00     0.005 C 
BRANCH  26  27
HETATM   27  C28 UNL     1       6.483  28.620  -1.639  1.00  0.00    -0.004 C 
HETATM   28  C29 UNL     1       7.136  27.362  -1.034  1.00  0.00     0.005 C 
ENDBRANCH  26  27
ENDBRANCH  24  26
ENDBRANCH   9  24
BRANCH   1  29
HETATM   29  C2  UNL     1       9.034  36.740  -0.882  1.00  0.00     0.004 C 
HETATM   30  C1  UNL     1       8.523  37.182   0.239  1.00  0.00     0.010 C 
ENDBRANCH   1  29
BRANCH   3  31
HETATM   31  C6  UNL     1      12.611  36.062   0.516  1.00  0.00     0.041 C 
BRANCH  31  32
HETATM   32  C7  UNL     1      13.619  35.429   1.343  1.00  0.00     0.035 C 
BRANCH  32  33
HETATM   33  C8  UNL     1      13.178  34.953   2.669  1.00  0.00     0.121 C 
BRANCH  33  34
HETATM   34  O2  UNL     1      13.692  35.782   3.708  1.00  0.00    -0.395 OA
ATOM     35  H2  UNL     1      14.277  35.294   4.276  1.00  0.00     0.210 HD
ENDBRANCH  33  34
BRANCH  33  36
HETATM   36  C9  UNL     1      13.459  33.566   3.092  1.00  0.00     0.006 C 
HETATM   37  C10 UNL     1      13.451  33.574   4.645  1.00  0.00     0.012 C 
HETATM   38  C11 UNL     1      12.468  32.513   2.724  1.00  0.00     0.012 C 
ENDBRANCH  33  36
ENDBRANCH  32  33
ENDBRANCH  31  32
ENDBRANCH   3  31
BRANCH  13  39
HETATM   39  C32 UNL     1       8.437  35.411  -3.085  1.00  0.00     0.155 C 
HETATM   40  C33 UNL     1       9.102  36.115  -4.210  1.00  0.00     0.094 C 
HETATM   41  O6  UNL     1       7.233  35.498  -3.028  1.00  0.00    -0.295 OA
ENDBRANCH  13  39
TORSDOF 15
ENDMDL
MODEL 5
REMARK VINA RESULT: -5.947143256      2.326      5.835
REMARK  15 active torsions:
REMARK  status: ('A' for Active; 'I' for Inactive)
REMARK    1  A    between atoms: C2_2  and  C3_3 
REMARK    2  A    between atoms: C4_5  and  C6_7 
REMARK    3  A    between atoms: C6_7  and  C7_8 
REMARK    4  A    between atoms: C7_8  and  C8_9 
REMARK    5  A    between atoms: C8_9  and  O2_10 
REMARK    6  A    between atoms: C8_9  and  C9_12 
REMARK    7  A    between atoms: C15_18  and  O3_19 
REMARK    8  A    between atoms: C15_18  and  C16_21 
REMARK    9  A    between atoms: C17_22  and  C18_23 
REMARK   10  A    between atoms: C18_23  and  C20_25 
REMARK   11  A    between atoms: C20_25  and  C22_27 
REMARK   12  A    between atoms: C24_29  and  C25_30 
REMARK   13  A    between atoms: C25_30  and  C27_32 
REMARK   14  A    between atoms: C27_32  and  C28_33 
REMARK   15  A    between atoms: C31_38  and  C32_39 
ROOT
HETATM    1  C3  UNL     1      12.185  34.065  -0.153  1.00  0.00     0.119 C 
HETATM    2  O1  UNL     1      12.062  32.688   0.050  1.00  0.00    -0.361 OA
HETATM    3  C4  UNL     1      10.728  32.782   0.533  1.00  0.00     0.066 C 
HETATM    4  C5  UNL     1       9.824  32.166  -0.491  1.00  0.00     0.046 C 
HETATM    5  C12 UNL     1      10.962  34.234   0.579  1.00  0.00     0.061 C 
HETATM    6  C13 UNL     1       9.864  35.124   0.184  1.00  0.00     0.014 C 
HETATM    7  C14 UNL     1       9.238  35.059  -1.128  1.00  0.00     0.043 C 
HETATM    8  C15 UNL     1       8.849  36.432  -1.753  1.00  0.00     0.088 C 
HETATM    9  C24 UNL     1       9.963  37.214  -2.254  1.00  0.00     0.127 C 
HETATM   10  C30 UNL     1      11.324  36.878  -1.664  1.00  0.00     0.267 C 
HETATM   11  O4  UNL     1      11.834  37.843  -0.981  1.00  0.00    -0.265 OA
HETATM   12  O5  UNL     1      11.773  35.691  -1.927  1.00  0.00    -0.304 OA
HETATM   13  C31 UNL     1      12.325  34.522  -1.563  1.00  0.00     0.239 C 
ENDROOT
BRANCH   8  14
HETATM   14  O3  UNL     1       7.962  36.043  -2.777  1.00  0.00    -0.385 OA
ATOM     15  H3  UNL     1       7.195  36.569  -2.580  1.00  0.00     0.211 HD
ENDBRANCH   8  14
BRANCH   8  16
HETATM   16  C16 UNL     1       8.030  37.145  -0.735  1.00  0.00     0.008 C 
HETATM   17  C17 UNL     1       6.845  36.896  -0.284  1.00  0.00    -0.019 C 
BRANCH  17  18
HETATM   18  C18 UNL     1       5.872  35.849  -0.587  1.00  0.00     0.032 C 
HETATM   19  C19 UNL     1       4.468  36.410  -0.790  1.00  0.00     0.018 C 
BRANCH  18  20
HETATM   20  C20 UNL     1       5.716  34.913   0.603  1.00  0.00    -0.082 C 
HETATM   21  C21 UNL     1       4.893  35.213   1.589  1.00  0.00     0.015 C 
BRANCH  20  22
HETATM   22  C22 UNL     1       6.510  33.679   0.609  1.00  0.00     0.029 C 
HETATM   23  C23 UNL     1       6.106  32.774  -0.529  1.00  0.00     0.010 C 
ENDBRANCH  20  22
ENDBRANCH  18  20
ENDBRANCH  17  18
ENDBRANCH   8  16
BRANCH   9  24
HETATM   24  C25 UNL     1      10.248  37.275  -3.736  1.00  0.00    -0.002 C 
HETATM   25  C26 UNL     1      11.514  38.190  -3.782  1.00  0.00     0.011 C 
BRANCH  24  26
HETATM   26  C27 UNL     1       9.221  37.928  -4.585  1.00  0.00     0.005 C 
BRANCH  26  27
HETATM   27  C28 UNL     1       8.828  39.329  -4.083  1.00  0.00    -0.004 C 
HETATM   28  C29 UNL     1       7.293  39.266  -3.956  1.00  0.00     0.005 C 
ENDBRANCH  26  27
ENDBRANCH  24  26
ENDBRANCH   9  24
BRANCH   1  29
HETATM   29  C2  UNL     1      13.406  34.492   0.605  1.00  0.00     0.004 C 
HETATM   30  C1  UNL     1      13.448  35.449   1.498  1.00  0.00     0.010 C 
ENDBRANCH   1  29
BRANCH   3  31
HETATM   31  C6  UNL     1      10.660  32.014   1.842  1.00  0.00     0.041 C 
BRANCH  31  32
HETATM   32  C7  UNL     1       9.496  31.171   2.025  1.00  0.00     0.035 C 
BRANCH  32  33
HETATM   33  C8  UNL     1       9.702  29.920   2.782  1.00  0.00     0.121 C 
BRANCH  33  34
HETATM   34  O2  UNL     1      11.083  29.576   2.838  1.00  0.00    -0.395 OA
ATOM     35  H2  UNL     1      11.618  30.340   3.023  1.00  0.00     0.210 HD
ENDBRANCH  33  34
BRANCH  33  36
HETATM   36  C9  UNL     1       9.000  28.684   2.379  1.00  0.00     0.006 C 
HETATM   37  C10 UNL     1       8.769  28.796   0.847  1.00  0.00     0.012 C 
HETATM   38  C11 UNL     1       9.722  27.389   2.548  1.00  0.00     0.012 C 
ENDBRANCH  33  36
ENDBRANCH  32  33
ENDBRANCH  31  32
ENDBRANCH   3  31
BRANCH  13  39
HETATM   39  C32 UNL     1      13.745  34.551  -2.014  1.00  0.00     0.155 C 
HETATM   40  C33 UNL     1      14.588  33.349  -2.236  1.00  0.00     0.094 C 
HETATM   41  O6  UNL     1      14.264  35.622  -2.220  1.00  0.00    -0.295 OA
ENDBRANCH  13  39
TORSDOF 15
ENDMDL
