MODEL 1
REMARK VINA RESULT: -8.409349582      0.000      0.000
REMARK  16 active torsions:
REMARK  status: ('A' for Active; 'I' for Inactive)
REMARK    1  A    between atoms: C2_2  and  O2_4 
REMARK    2  A    between atoms: O2_4  and  C3_5 
REMARK    3  A    between atoms: C3_5  and  C5_7 
REMARK    4  A    between atoms: C5_7  and  C6_8 
REMARK    5  A    between atoms: C5_7  and  O5_38 
REMARK    6  A    between atoms: C7_9  and  C9_11 
REMARK    7  A    between atoms: C10_12  and  C11_13 
REMARK    8  A    between atoms: C11_13  and  C13_15 
REMARK    9  A    between atoms: C13_15  and  C15_17 
REMARK   10  A    between atoms: C16_18  and  C17_19 
REMARK   11  A    between atoms: C19_21  and  C20_22 
REMARK   12  A    between atoms: C20_22  and  C21_23 
REMARK   13  A    between atoms: C25_27  and  C26_28 
REMARK   14  A    between atoms: C26_28  and  O3_29 
REMARK   15  A    between atoms: C29_33  and  O4_34 
REMARK   16  A    between atoms: O5_38  and  C32_39 
ROOT
HETATM    1  C15 UNL     1      12.679  29.584   5.460  1.00  0.00    -0.021 C 
HETATM    2  C16 UNL     1      12.178  29.589   4.287  1.00  0.00     0.003 C 
ENDROOT
BRANCH   1   3
HETATM    3  C13 UNL     1      12.605  30.515   6.557  1.00  0.00     0.011 C 
HETATM    4  C14 UNL     1      13.572  31.678   6.201  1.00  0.00     0.015 C 
BRANCH   3   5
HETATM    5  C11 UNL     1      13.085  29.893   7.873  1.00  0.00     0.011 C 
HETATM    6  C12 UNL     1      12.369  28.580   8.073  1.00  0.00     0.015 C 
BRANCH   5   7
HETATM    7  C10 UNL     1      12.829  30.796   9.030  1.00  0.00    -0.021 C 
HETATM    8  C9  UNL     1      11.887  30.567   9.910  1.00  0.00     0.003 C 
BRANCH   8   9
HETATM    9  C7  UNL     1      11.624  31.462  11.067  1.00  0.00    -0.064 C 
HETATM   10  C6  UNL     1      10.413  31.909  11.218  1.00  0.00     0.014 C 
HETATM   11  C8  UNL     1      12.746  31.762  11.942  1.00  0.00     0.048 C 
BRANCH  10  12
HETATM   12  C5  UNL     1       9.861  32.786  12.245  1.00  0.00     0.184 C 
BRANCH  12  13
HETATM   13  C3  UNL     1       8.713  32.181  13.038  1.00  0.00     0.161 C 
HETATM   14  C4  UNL     1       8.836  30.690  12.972  1.00  0.00     0.043 C 
BRANCH  13  15
HETATM   15  O2  UNL     1       7.517  32.703  12.612  1.00  0.00    -0.314 OA
BRANCH  15  16
HETATM   16  C2  UNL     1       6.522  33.241  13.413  1.00  0.00     0.255 C 
HETATM   17  C1  UNL     1       6.496  34.701  13.758  1.00  0.00     0.126 C 
HETATM   18  O1  UNL     1       5.655  32.444  13.824  1.00  0.00    -0.266 OA
ENDBRANCH  15  16
ENDBRANCH  13  15
ENDBRANCH  12  13
BRANCH  12  19
HETATM   19  O5  UNL     1       9.520  34.045  11.758  1.00  0.00    -0.310 OA
BRANCH  19  20
HETATM   20  C32 UNL     1      10.186  35.212  12.124  1.00  0.00     0.255 C 
HETATM   21  C33 UNL     1      11.654  35.345  12.057  1.00  0.00     0.126 C 
HETATM   22  O6  UNL     1       9.481  36.181  12.527  1.00  0.00    -0.266 OA
ENDBRANCH  19  20
ENDBRANCH  12  19
ENDBRANCH  10  12
ENDBRANCH   8   9
ENDBRANCH   5   7
ENDBRANCH   3   5
ENDBRANCH   1   3
BRANCH   2  23
HETATM   23  C17 UNL     1      11.334  30.500   3.548  1.00  0.00    -0.066 C 
HETATM   24  C18 UNL     1      11.779  31.831   3.157  1.00  0.00     0.048 C 
HETATM   25  C19 UNL     1      10.103  30.083   3.250  1.00  0.00    -0.020 C 
BRANCH  25  26
HETATM   26  C20 UNL     1       9.118  30.846   2.517  1.00  0.00     0.033 C 
BRANCH  26  27
HETATM   27  C21 UNL     1       8.774  30.412   1.139  1.00  0.00     0.004 C 
HETATM   28  C22 UNL     1       9.331  29.088   0.711  1.00  0.00    -0.013 C 
HETATM   29  C23 UNL     1       8.568  27.919   1.319  1.00  0.00     0.010 C 
HETATM   30  C24 UNL     1       9.053  29.064  -0.775  1.00  0.00     0.017 C 
HETATM   31  C25 UNL     1       8.707  30.475  -1.198  1.00  0.00    -0.009 C 
HETATM   32  C27 UNL     1       7.248  30.586  -1.585  1.00  0.00     0.015 C 
HETATM   33  C30 UNL     1       8.913  31.357   0.015  1.00  0.00    -0.004 C 
HETATM   34  C28 UNL     1       6.582  31.483  -0.583  1.00  0.00     0.033 C 
HETATM   35  C29 UNL     1       7.693  32.301   0.011  1.00  0.00     0.127 C 
HETATM   36  C31 UNL     1      10.107  32.217  -0.068  1.00  0.00     0.019 C 
BRANCH  31  37
HETATM   37  C26 UNL     1       9.527  30.824  -2.386  1.00  0.00     0.174 C 
BRANCH  37  38
HETATM   38  O3  UNL     1      10.485  29.909  -2.753  1.00  0.00    -0.400 OA
ATOM     39  H3  UNL     1      11.227  30.250  -3.238  1.00  0.00     0.209 HD
ENDBRANCH  37  38
ENDBRANCH  31  37
BRANCH  35  40
HETATM   40  O4  UNL     1       7.960  33.462  -0.677  1.00  0.00    -0.395 OA
ATOM     41  H4  UNL     1       7.203  33.831  -1.118  1.00  0.00     0.210 HD
ENDBRANCH  35  40
ENDBRANCH  26  27
ENDBRANCH  25  26
ENDBRANCH   2  23
TORSDOF 16
ENDMDL
MODEL 2
REMARK VINA RESULT: -8.388055452      2.359      3.817
REMARK  16 active torsions:
REMARK  status: ('A' for Active; 'I' for Inactive)
REMARK    1  A    between atoms: C2_2  and  O2_4 
REMARK    2  A    between atoms: O2_4  and  C3_5 
REMARK    3  A    between atoms: C3_5  and  C5_7 
REMARK    4  A    between atoms: C5_7  and  C6_8 
REMARK    5  A    between atoms: C5_7  and  O5_38 
REMARK    6  A    between atoms: C7_9  and  C9_11 
REMARK    7  A    between atoms: C10_12  and  C11_13 
REMARK    8  A    between atoms: C11_13  and  C13_15 
REMARK    9  A    between atoms: C13_15  and  C15_17 
REMARK   10  A    between atoms: C16_18  and  C17_19 
REMARK   11  A    between atoms: C19_21  and  C20_22 
REMARK   12  A    between atoms: C20_22  and  C21_23 
REMARK   13  A    between atoms: C25_27  and  C26_28 
REMARK   14  A    between atoms: C26_28  and  O3_29 
REMARK   15  A    between atoms: C29_33  and  O4_34 
REMARK   16  A    between atoms: O5_38  and  C32_39 
ROOT
HETATM    1  C15 UNL     1      12.851  29.422   5.874  1.00  0.00    -0.021 C 
HETATM    2  C16 UNL     1      12.458  29.323   4.665  1.00  0.00     0.003 C 
ENDROOT
BRANCH   1   3
HETATM    3  C13 UNL     1      12.653  30.429   6.885  1.00  0.00     0.011 C 
HETATM    4  C14 UNL     1      13.714  31.530   6.609  1.00  0.00     0.015 C 
BRANCH   3   5
HETATM    5  C11 UNL     1      12.899  29.885   8.297  1.00  0.00     0.011 C 
HETATM    6  C12 UNL     1      12.087  28.625   8.474  1.00  0.00     0.015 C 
BRANCH   5   7
HETATM    7  C10 UNL     1      12.530  30.881   9.340  1.00  0.00    -0.021 C 
HETATM    8  C9  UNL     1      12.092  30.536  10.524  1.00  0.00     0.003 C 
BRANCH   8   9
HETATM    9  C7  UNL     1      11.721  31.523  11.571  1.00  0.00    -0.064 C 
HETATM   10  C6  UNL     1      10.500  31.967  11.574  1.00  0.00     0.014 C 
HETATM   11  C8  UNL     1      12.758  31.911  12.515  1.00  0.00     0.048 C 
BRANCH  10  12
HETATM   12  C5  UNL     1       9.853  32.922  12.467  1.00  0.00     0.184 C 
BRANCH  12  13
HETATM   13  C3  UNL     1       8.663  32.362  13.230  1.00  0.00     0.161 C 
HETATM   14  C4  UNL     1       8.768  30.869  13.226  1.00  0.00     0.043 C 
BRANCH  13  15
HETATM   15  O2  UNL     1       7.495  32.883  12.732  1.00  0.00    -0.314 OA
BRANCH  15  16
HETATM   16  C2  UNL     1       6.471  33.459  13.467  1.00  0.00     0.255 C 
HETATM   17  C1  UNL     1       6.353  34.948  13.616  1.00  0.00     0.126 C 
HETATM   18  O1  UNL     1       5.659  32.672  13.992  1.00  0.00    -0.266 OA
ENDBRANCH  15  16
ENDBRANCH  13  15
ENDBRANCH  12  13
BRANCH  12  19
HETATM   19  O5  UNL     1       9.521  34.118  11.834  1.00  0.00    -0.310 OA
BRANCH  19  20
HETATM   20  C32 UNL     1      10.153  35.329  12.110  1.00  0.00     0.255 C 
HETATM   21  C33 UNL     1      11.621  35.482  12.097  1.00  0.00     0.126 C 
HETATM   22  O6  UNL     1       9.415  36.319  12.380  1.00  0.00    -0.266 OA
ENDBRANCH  19  20
ENDBRANCH  12  19
ENDBRANCH  10  12
ENDBRANCH   8   9
ENDBRANCH   5   7
ENDBRANCH   3   5
ENDBRANCH   1   3
BRANCH   2  23
HETATM   23  C17 UNL     1      11.661  30.147   3.786  1.00  0.00    -0.066 C 
HETATM   24  C18 UNL     1      10.289  29.810   3.433  1.00  0.00     0.048 C 
HETATM   25  C19 UNL     1      12.243  31.235   3.280  1.00  0.00    -0.020 C 
BRANCH  25  26
HETATM   26  C20 UNL     1      11.610  32.181   2.389  1.00  0.00     0.033 C 
BRANCH  26  27
HETATM   27  C21 UNL     1      12.386  33.374   1.961  1.00  0.00     0.004 C 
HETATM   28  C22 UNL     1      12.793  34.317   3.053  1.00  0.00    -0.013 C 
HETATM   29  C23 UNL     1      13.968  33.785   3.863  1.00  0.00     0.010 C 
HETATM   30  C24 UNL     1      13.297  35.523   2.294  1.00  0.00     0.017 C 
HETATM   31  C25 UNL     1      12.826  35.391   0.862  1.00  0.00    -0.009 C 
HETATM   32  C27 UNL     1      13.988  35.128  -0.072  1.00  0.00     0.015 C 
HETATM   33  C30 UNL     1      11.929  34.173   0.809  1.00  0.00    -0.004 C 
HETATM   34  C28 UNL     1      13.812  33.749  -0.635  1.00  0.00     0.033 C 
HETATM   35  C29 UNL     1      12.347  33.449  -0.489  1.00  0.00     0.127 C 
HETATM   36  C31 UNL     1      10.498  34.491   0.666  1.00  0.00     0.019 C 
BRANCH  31  37
HETATM   37  C26 UNL     1      12.189  36.670   0.457  1.00  0.00     0.174 C 
BRANCH  37  38
HETATM   38  O3  UNL     1      12.247  36.979  -0.881  1.00  0.00    -0.400 OA
ATOM     39  H3  UNL     1      11.653  36.501  -1.448  1.00  0.00     0.209 HD
ENDBRANCH  37  38
ENDBRANCH  31  37
BRANCH  35  40
HETATM   40  O4  UNL     1      11.585  33.858  -1.559  1.00  0.00    -0.395 OA
ATOM     41  H4  UNL     1      10.840  34.396  -1.318  1.00  0.00     0.210 HD
ENDBRANCH  35  40
ENDBRANCH  26  27
ENDBRANCH  25  26
ENDBRANCH   2  23
TORSDOF 16
ENDMDL
MODEL 3
REMARK VINA RESULT: -8.377525714      1.117      1.392
REMARK  16 active torsions:
REMARK  status: ('A' for Active; 'I' for Inactive)
REMARK    1  A    between atoms: C2_2  and  O2_4 
REMARK    2  A    between atoms: O2_4  and  C3_5 
REMARK    3  A    between atoms: C3_5  and  C5_7 
REMARK    4  A    between atoms: C5_7  and  C6_8 
REMARK    5  A    between atoms: C5_7  and  O5_38 
REMARK    6  A    between atoms: C7_9  and  C9_11 
REMARK    7  A    between atoms: C10_12  and  C11_13 
REMARK    8  A    between atoms: C11_13  and  C13_15 
REMARK    9  A    between atoms: C13_15  and  C15_17 
REMARK   10  A    between atoms: C16_18  and  C17_19 
REMARK   11  A    between atoms: C19_21  and  C20_22 
REMARK   12  A    between atoms: C20_22  and  C21_23 
REMARK   13  A    between atoms: C25_27  and  C26_28 
REMARK   14  A    between atoms: C26_28  and  O3_29 
REMARK   15  A    between atoms: C29_33  and  O4_34 
REMARK   16  A    between atoms: O5_38  and  C32_39 
ROOT
HETATM    1  C15 UNL     1      13.093  29.811   6.327  1.00  0.00    -0.021 C 
HETATM    2  C16 UNL     1      12.714  29.956   5.119  1.00  0.00     0.003 C 
ENDROOT
BRANCH   1   3
HETATM    3  C13 UNL     1      13.289  30.746   7.408  1.00  0.00     0.011 C 
HETATM    4  C14 UNL     1      14.784  31.165   7.349  1.00  0.00     0.015 C 
BRANCH   3   5
HETATM    5  C11 UNL     1      13.036  30.104   8.776  1.00  0.00     0.011 C 
HETATM    6  C12 UNL     1      12.091  28.942   8.595  1.00  0.00     0.015 C 
BRANCH   5   7
HETATM    7  C10 UNL     1      12.461  31.083   9.741  1.00  0.00    -0.021 C 
HETATM    8  C9  UNL     1      12.528  30.919  11.038  1.00  0.00     0.003 C 
BRANCH   8   9
HETATM    9  C7  UNL     1      11.958  31.890  12.008  1.00  0.00    -0.064 C 
HETATM   10  C6  UNL     1      10.729  32.272  11.825  1.00  0.00     0.014 C 
HETATM   11  C8  UNL     1      12.823  32.332  13.092  1.00  0.00     0.048 C 
BRANCH  10  12
HETATM   12  C5  UNL     1       9.911  33.196  12.602  1.00  0.00     0.184 C 
BRANCH  12  13
HETATM   13  C3  UNL     1       8.727  32.550  13.303  1.00  0.00     0.161 C 
HETATM   14  C4  UNL     1       8.904  31.064  13.244  1.00  0.00     0.043 C 
BRANCH  13  15
HETATM   15  O2  UNL     1       7.550  33.034  12.789  1.00  0.00    -0.314 OA
BRANCH  15  16
HETATM   16  C2  UNL     1       6.425  33.401  13.511  1.00  0.00     0.255 C 
HETATM   17  C1  UNL     1       6.150  34.834  13.861  1.00  0.00     0.126 C 
HETATM   18  O1  UNL     1       5.661  32.475  13.848  1.00  0.00    -0.266 OA
ENDBRANCH  15  16
ENDBRANCH  13  15
ENDBRANCH  12  13
BRANCH  12  19
HETATM   19  O5  UNL     1       9.508  34.312  11.871  1.00  0.00    -0.310 OA
BRANCH  19  20
HETATM   20  C32 UNL     1       9.895  35.612  12.187  1.00  0.00     0.255 C 
HETATM   21  C33 UNL     1      11.217  36.159  11.827  1.00  0.00     0.126 C 
HETATM   22  O6  UNL     1       9.060  36.330  12.808  1.00  0.00    -0.266 OA
ENDBRANCH  19  20
ENDBRANCH  12  19
ENDBRANCH  10  12
ENDBRANCH   8   9
ENDBRANCH   5   7
ENDBRANCH   3   5
ENDBRANCH   1   3
BRANCH   2  23
HETATM   23  C17 UNL     1      12.319  31.084   4.307  1.00  0.00    -0.066 C 
HETATM   24  C18 UNL     1      12.724  32.448   4.617  1.00  0.00     0.048 C 
HETATM   25  C19 UNL     1      11.537  30.832   3.257  1.00  0.00    -0.020 C 
BRANCH  25  26
HETATM   26  C20 UNL     1      11.042  31.824   2.328  1.00  0.00     0.033 C 
BRANCH  26  27
HETATM   27  C21 UNL     1       9.829  31.502   1.533  1.00  0.00     0.004 C 
HETATM   28  C22 UNL     1       9.565  30.044   1.303  1.00  0.00    -0.013 C 
HETATM   29  C23 UNL     1       8.993  29.362   2.538  1.00  0.00     0.010 C 
HETATM   30  C24 UNL     1       8.468  30.054   0.263  1.00  0.00     0.017 C 
HETATM   31  C25 UNL     1       8.410  31.447  -0.325  1.00  0.00    -0.009 C 
HETATM   32  C27 UNL     1       7.137  32.158   0.084  1.00  0.00     0.015 C 
HETATM   33  C30 UNL     1       9.564  32.222   0.274  1.00  0.00    -0.004 C 
HETATM   34  C28 UNL     1       7.526  33.313   0.958  1.00  0.00     0.033 C 
HETATM   35  C29 UNL     1       8.960  33.601   0.614  1.00  0.00     0.127 C 
HETATM   36  C31 UNL     1      10.669  32.471  -0.668  1.00  0.00     0.019 C 
BRANCH  31  37
HETATM   37  C26 UNL     1       8.419  31.333  -1.806  1.00  0.00     0.174 C 
BRANCH  37  38
HETATM   38  O3  UNL     1       7.834  32.367  -2.497  1.00  0.00    -0.400 OA
ATOM     39  H3  UNL     1       8.426  32.995  -2.894  1.00  0.00     0.209 HD
ENDBRANCH  37  38
ENDBRANCH  31  37
BRANCH  35  40
HETATM   40  O4  UNL     1       9.116  34.487  -0.427  1.00  0.00    -0.395 OA
ATOM     41  H4  UNL     1       8.491  35.203  -0.420  1.00  0.00     0.210 HD
ENDBRANCH  35  40
ENDBRANCH  26  27
ENDBRANCH  25  26
ENDBRANCH   2  23
TORSDOF 16
ENDMDL
MODEL 4
REMARK VINA RESULT: -8.278091541      2.578      4.298
REMARK  16 active torsions:
REMARK  status: ('A' for Active; 'I' for Inactive)
REMARK    1  A    between atoms: C2_2  and  O2_4 
REMARK    2  A    between atoms: O2_4  and  C3_5 
REMARK    3  A    between atoms: C3_5  and  C5_7 
REMARK    4  A    between atoms: C5_7  and  C6_8 
REMARK    5  A    between atoms: C5_7  and  O5_38 
REMARK    6  A    between atoms: C7_9  and  C9_11 
REMARK    7  A    between atoms: C10_12  and  C11_13 
REMARK    8  A    between atoms: C11_13  and  C13_15 
REMARK    9  A    between atoms: C13_15  and  C15_17 
REMARK   10  A    between atoms: C16_18  and  C17_19 
REMARK   11  A    between atoms: C19_21  and  C20_22 
REMARK   12  A    between atoms: C20_22  and  C21_23 
REMARK   13  A    between atoms: C25_27  and  C26_28 
REMARK   14  A    between atoms: C26_28  and  O3_29 
REMARK   15  A    between atoms: C29_33  and  O4_34 
REMARK   16  A    between atoms: O5_38  and  C32_39 
ROOT
HETATM    1  C15 UNL     1      12.786  29.860   5.407  1.00  0.00    -0.021 C 
HETATM    2  C16 UNL     1      12.316  29.725   4.229  1.00  0.00     0.003 C 
ENDROOT
BRANCH   1   3
HETATM    3  C13 UNL     1      12.693  30.920   6.380  1.00  0.00     0.011 C 
HETATM    4  C14 UNL     1      13.908  31.852   6.118  1.00  0.00     0.015 C 
BRANCH   3   5
HETATM    5  C11 UNL     1      12.806  30.395   7.815  1.00  0.00     0.011 C 
HETATM    6  C12 UNL     1      13.080  28.911   7.764  1.00  0.00     0.015 C 
BRANCH   5   7
HETATM    7  C10 UNL     1      11.565  30.658   8.594  1.00  0.00    -0.021 C 
HETATM    8  C9  UNL     1      11.568  30.835   9.891  1.00  0.00     0.003 C 
BRANCH   8   9
HETATM    9  C7  UNL     1      10.334  31.098  10.676  1.00  0.00    -0.064 C 
HETATM   10  C6  UNL     1      10.116  32.320  11.062  1.00  0.00     0.014 C 
HETATM   11  C8  UNL     1       9.464  29.964  10.946  1.00  0.00     0.048 C 
BRANCH  10  12
HETATM   12  C5  UNL     1       9.006  32.875  11.829  1.00  0.00     0.184 C 
BRANCH  12  13
HETATM   13  C3  UNL     1       8.604  34.283  11.424  1.00  0.00     0.161 C 
HETATM   14  C4  UNL     1       9.508  35.247  12.127  1.00  0.00     0.043 C 
BRANCH  13  15
HETATM   15  O2  UNL     1       7.258  34.468  11.624  1.00  0.00    -0.314 OA
BRANCH  15  16
HETATM   16  C2  UNL     1       6.627  35.665  11.923  1.00  0.00     0.255 C 
HETATM   17  C1  UNL     1       6.575  36.792  10.934  1.00  0.00     0.126 C 
HETATM   18  O1  UNL     1       6.107  35.747  13.054  1.00  0.00    -0.266 OA
ENDBRANCH  15  16
ENDBRANCH  13  15
ENDBRANCH  12  13
BRANCH  12  19
HETATM   19  O5  UNL     1       9.201  32.790  13.206  1.00  0.00    -0.310 OA
BRANCH  19  20
HETATM   20  C32 UNL     1       8.340  32.104  14.059  1.00  0.00     0.255 C 
HETATM   21  C33 UNL     1       8.246  30.631  14.081  1.00  0.00     0.126 C 
HETATM   22  O6  UNL     1       7.620  32.795  14.835  1.00  0.00    -0.266 OA
ENDBRANCH  19  20
ENDBRANCH  12  19
ENDBRANCH  10  12
ENDBRANCH   8   9
ENDBRANCH   5   7
ENDBRANCH   3   5
ENDBRANCH   1   3
BRANCH   2  23
HETATM   23  C17 UNL     1      11.503  30.546   3.361  1.00  0.00    -0.066 C 
HETATM   24  C18 UNL     1      10.135  30.191   3.010  1.00  0.00     0.048 C 
HETATM   25  C19 UNL     1      12.066  31.647   2.863  1.00  0.00    -0.020 C 
BRANCH  25  26
HETATM   26  C20 UNL     1      11.416  32.591   1.982  1.00  0.00     0.033 C 
BRANCH  26  27
HETATM   27  C21 UNL     1      12.227  33.697   1.412  1.00  0.00     0.004 C 
HETATM   28  C22 UNL     1      12.591  34.799   2.362  1.00  0.00    -0.013 C 
HETATM   29  C23 UNL     1      13.718  34.396   3.305  1.00  0.00     0.010 C 
HETATM   30  C24 UNL     1      13.148  35.868   1.449  1.00  0.00     0.017 C 
HETATM   31  C25 UNL     1      12.747  35.514   0.034  1.00  0.00    -0.009 C 
HETATM   32  C27 UNL     1      13.951  35.101  -0.786  1.00  0.00     0.015 C 
HETATM   33  C30 UNL     1      11.839  34.307   0.127  1.00  0.00    -0.004 C 
HETATM   34  C28 UNL     1      13.786  33.651  -1.134  1.00  0.00     0.033 C 
HETATM   35  C29 UNL     1      12.312  33.385  -1.018  1.00  0.00     0.127 C 
HETATM   36  C31 UNL     1      10.421  34.605  -0.137  1.00  0.00     0.019 C 
BRANCH  31  37
HETATM   37  C26 UNL     1      12.147  36.715  -0.600  1.00  0.00     0.174 C 
BRANCH  37  38
HETATM   38  O3  UNL     1      12.306  36.826  -1.961  1.00  0.00    -0.400 OA
ATOM     39  H3  UNL     1      11.551  36.597  -2.491  1.00  0.00     0.209 HD
ENDBRANCH  37  38
ENDBRANCH  31  37
BRANCH  35  40
HETATM   40  O4  UNL     1      11.609  33.623  -2.176  1.00  0.00    -0.395 OA
ATOM     41  H4  UNL     1      10.861  33.050  -2.297  1.00  0.00     0.210 HD
ENDBRANCH  35  40
ENDBRANCH  26  27
ENDBRANCH  25  26
ENDBRANCH   2  23
TORSDOF 16
ENDMDL
MODEL 5
REMARK VINA RESULT: -8.235659992      2.577      4.526
REMARK  16 active torsions:
REMARK  status: ('A' for Active; 'I' for Inactive)
REMARK    1  A    between atoms: C2_2  and  O2_4 
REMARK    2  A    between atoms: O2_4  and  C3_5 
REMARK    3  A    between atoms: C3_5  and  C5_7 
REMARK    4  A    between atoms: C5_7  and  C6_8 
REMARK    5  A    between atoms: C5_7  and  O5_38 
REMARK    6  A    between atoms: C7_9  and  C9_11 
REMARK    7  A    between atoms: C10_12  and  C11_13 
REMARK    8  A    between atoms: C11_13  and  C13_15 
REMARK    9  A    between atoms: C13_15  and  C15_17 
REMARK   10  A    between atoms: C16_18  and  C17_19 
REMARK   11  A    between atoms: C19_21  and  C20_22 
REMARK   12  A    between atoms: C20_22  and  C21_23 
REMARK   13  A    between atoms: C25_27  and  C26_28 
REMARK   14  A    between atoms: C26_28  and  O3_29 
REMARK   15  A    between atoms: C29_33  and  O4_34 
REMARK   16  A    between atoms: O5_38  and  C32_39 
ROOT
HETATM    1  C15 UNL     1      12.201  30.857   5.732  1.00  0.00    -0.021 C 
HETATM    2  C16 UNL     1      12.038  31.888   5.000  1.00  0.00     0.003 C 
ENDROOT
BRANCH   1   3
HETATM    3  C13 UNL     1      13.247  29.867   5.806  1.00  0.00     0.011 C 
HETATM    4  C14 UNL     1      12.721  28.628   5.030  1.00  0.00     0.015 C 
BRANCH   3   5
HETATM    5  C11 UNL     1      13.527  29.432   7.248  1.00  0.00     0.011 C 
HETATM    6  C12 UNL     1      13.295  27.945   7.355  1.00  0.00     0.015 C 
BRANCH   5   7
HETATM    7  C10 UNL     1      12.657  30.156   8.216  1.00  0.00    -0.021 C 
HETATM    8  C9  UNL     1      11.959  29.540   9.137  1.00  0.00     0.003 C 
BRANCH   8   9
HETATM    9  C7  UNL     1      11.088  30.253  10.107  1.00  0.00    -0.064 C 
HETATM   10  C6  UNL     1      11.598  31.266  10.742  1.00  0.00     0.014 C 
HETATM   11  C8  UNL     1       9.728  29.762  10.264  1.00  0.00     0.048 C 
BRANCH  10  12
HETATM   12  C5  UNL     1      10.994  32.149  11.733  1.00  0.00     0.184 C 
BRANCH  12  13
HETATM   13  C3  UNL     1      11.830  33.371  12.078  1.00  0.00     0.161 C 
HETATM   14  C4  UNL     1      12.628  33.060  13.306  1.00  0.00     0.043 C 
BRANCH  13  15
HETATM   15  O2  UNL     1      11.031  34.486  12.149  1.00  0.00    -0.314 OA
BRANCH  15  16
HETATM   16  C2  UNL     1      11.432  35.799  11.961  1.00  0.00     0.255 C 
HETATM   17  C1  UNL     1      10.491  36.947  12.180  1.00  0.00     0.126 C 
HETATM   18  O1  UNL     1      12.615  35.968  11.602  1.00  0.00    -0.266 OA
ENDBRANCH  15  16
ENDBRANCH  13  15
ENDBRANCH  12  13
BRANCH  12  19
HETATM   19  O5  UNL     1      10.595  31.478  12.887  1.00  0.00    -0.310 OA
BRANCH  19  20
HETATM   20  C32 UNL     1       9.334  31.627  13.459  1.00  0.00     0.255 C 
HETATM   21  C33 UNL     1       8.316  30.560  13.432  1.00  0.00     0.126 C 
HETATM   22  O6  UNL     1       9.078  32.732  14.018  1.00  0.00    -0.266 OA
ENDBRANCH  19  20
ENDBRANCH  12  19
ENDBRANCH  10  12
ENDBRANCH   8   9
ENDBRANCH   5   7
ENDBRANCH   3   5
ENDBRANCH   1   3
BRANCH   2  23
HETATM   23  C17 UNL     1      12.802  32.516   3.946  1.00  0.00    -0.066 C 
HETATM   24  C18 UNL     1      14.026  33.260   4.208  1.00  0.00     0.048 C 
HETATM   25  C19 UNL     1      12.326  32.408   2.705  1.00  0.00    -0.020 C 
BRANCH  25  26
HETATM   26  C20 UNL     1      12.947  32.963   1.523  1.00  0.00     0.033 C 
BRANCH  26  27
HETATM   27  C21 UNL     1      12.306  34.136   0.875  1.00  0.00     0.004 C 
HETATM   28  C22 UNL     1      12.213  35.377   1.712  1.00  0.00    -0.013 C 
HETATM   29  C23 UNL     1      13.547  36.104   1.813  1.00  0.00     0.010 C 
HETATM   30  C24 UNL     1      11.293  36.265   0.906  1.00  0.00     0.017 C 
HETATM   31  C25 UNL     1      10.612  35.398  -0.130  1.00  0.00    -0.009 C 
HETATM   32  C27 UNL     1      11.096  35.734  -1.525  1.00  0.00     0.015 C 
HETATM   33  C30 UNL     1      11.031  33.971   0.153  1.00  0.00    -0.004 C 
HETATM   34  C28 UNL     1      11.838  34.539  -2.046  1.00  0.00     0.033 C 
HETATM   35  C29 UNL     1      11.328  33.378  -1.241  1.00  0.00     0.127 C 
HETATM   36  C31 UNL     1       9.965  33.141   0.741  1.00  0.00     0.019 C 
BRANCH  31  37
HETATM   37  C26 UNL     1       9.151  35.656  -0.074  1.00  0.00     0.174 C 
BRANCH  37  38
HETATM   38  O3  UNL     1       8.716  36.461   0.952  1.00  0.00    -0.400 OA
ATOM     39  H3  UNL     1       7.851  36.273   1.295  1.00  0.00     0.209 HD
ENDBRANCH  37  38
ENDBRANCH  31  37
BRANCH  35  40
HETATM   40  O4  UNL     1      10.215  32.774  -1.777  1.00  0.00    -0.395 OA
ATOM     41  H4  UNL     1      10.078  31.883  -1.476  1.00  0.00     0.210 HD
ENDBRANCH  35  40
ENDBRANCH  26  27
ENDBRANCH  25  26
ENDBRANCH   2  23
TORSDOF 16
ENDMDL
