MODEL 1
REMARK VINA RESULT: -7.884334550      0.000      0.000
REMARK  15 active torsions:
REMARK  status: ('A' for Active; 'I' for Inactive)
REMARK    1  A    between atoms: C2_2  and  C3_3 
REMARK    2  A    between atoms: C3_3  and  C4_4 
REMARK    3  A    between atoms: C4_4  and  C5_5 
REMARK    4  A    between atoms: C5_5  and  C6_6 
REMARK    5  A    between atoms: C6_6  and  C7_7 
REMARK    6  A    between atoms: C7_7  and  O2_9 
REMARK    7  A    between atoms: O2_9  and  C8_10 
REMARK    8  A    between atoms: C10_13  and  C11_14 
REMARK    9  A    between atoms: C12_15  and  C13_16 
REMARK   10  A    between atoms: C12_15  and  C25_28 
REMARK   11  A    between atoms: C14_17  and  C15_18 
REMARK   12  A    between atoms: C25_28  and  C26_29 
REMARK   13  A    between atoms: C26_29  and  C27_30 
REMARK   14  A    between atoms: C30_33  and  C31_34 
REMARK   15  A    between atoms: C31_34  and  O3_37 
ROOT
HETATM    1  C8  UNL     1      12.967  30.644   6.792  1.00  0.00     0.356 A 
HETATM    2  C9  UNL     1      13.356  29.363   6.356  1.00  0.00     0.358 A 
HETATM    3  N1  UNL     1      12.174  30.063   5.722  1.00  0.00     0.148 N 
HETATM    4  C10 UNL     1      12.475  30.822   4.507  1.00  0.00     0.265 C 
HETATM    5  C30 UNL     1      12.691  32.202   5.080  1.00  0.00     0.131 C 
HETATM    6  C34 UNL     1      13.565  31.885   6.225  1.00  0.00     0.204 C 
HETATM    7  O4  UNL     1      14.530  32.494   6.598  1.00  0.00    -0.292 OA
ENDROOT
BRANCH   4   8
HETATM    8  C11 UNL     1      11.306  30.750   3.632  1.00  0.00     0.021 C 
HETATM    9  C12 UNL     1      10.732  29.641   3.170  1.00  0.00    -0.038 C 
BRANCH   9  10
HETATM   10  C13 UNL     1       9.561  29.814   2.300  1.00  0.00     0.007 C 
HETATM   11  C14 UNL     1       9.589  29.719   0.983  1.00  0.00    -0.020 C 
BRANCH  11  12
HETATM   12  C15 UNL     1       8.403  29.895   0.134  1.00  0.00     0.024 C 
HETATM   13  C16 UNL     1       8.202  28.662  -0.723  1.00  0.00    -0.040 C 
HETATM   14  C17 UNL     1       9.258  28.424  -1.738  1.00  0.00     0.015 C 
HETATM   15  C18 UNL     1       8.146  27.459   0.216  1.00  0.00     0.015 C 
HETATM   16  C19 UNL     1       6.824  28.785  -1.325  1.00  0.00     0.009 C 
HETATM   17  C20 UNL     1       6.786  29.949  -2.243  1.00  0.00     0.002 C 
HETATM   18  C21 UNL     1       7.787  31.018  -2.019  1.00  0.00     0.009 C 
HETATM   19  C22 UNL     1       8.253  31.163  -0.590  1.00  0.00    -0.040 C 
HETATM   20  C23 UNL     1       9.534  31.942  -0.638  1.00  0.00     0.015 C 
HETATM   21  C24 UNL     1       7.240  32.110   0.087  1.00  0.00     0.015 C 
ENDBRANCH  11  12
ENDBRANCH   9  10
BRANCH   9  22
HETATM   22  C25 UNL     1      11.163  28.316   3.554  1.00  0.00     0.011 C 
BRANCH  22  23
HETATM   23  C26 UNL     1      10.442  27.133   3.139  1.00  0.00     0.003 C 
BRANCH  23  24
HETATM   24  C27 UNL     1      10.625  25.865   3.288  1.00  0.00    -0.088 C 
HETATM   25  C28 UNL     1       9.575  24.931   2.681  1.00  0.00     0.043 C 
HETATM   26  C29 UNL     1      11.729  25.239   4.041  1.00  0.00     0.043 C 
ENDBRANCH  23  24
ENDBRANCH  22  23
ENDBRANCH   9  22
ENDBRANCH   4   8
BRANCH   5  27
HETATM   27  C31 UNL     1      13.162  33.243   4.164  1.00  0.00     0.063 C 
HETATM   28  C32 UNL     1      12.852  34.649   4.496  1.00  0.00     0.046 C 
HETATM   29  C33 UNL     1      12.531  32.952   2.792  1.00  0.00     0.046 C 
BRANCH  27  30
HETATM   30  O3  UNL     1      14.546  33.038   3.958  1.00  0.00    -0.390 OA
ATOM     31  H3  UNL     1      14.996  33.278   4.759  1.00  0.00     0.210 HD
ENDBRANCH  27  30
ENDBRANCH   5  27
BRANCH   1  32
HETATM   32  O2  UNL     1      12.234  30.906   7.982  1.00  0.00    -0.271 OA
BRANCH  32  33
HETATM   33  C7  UNL     1      12.802  30.699   9.229  1.00  0.00     0.261 C 
HETATM   34  O1  UNL     1      13.983  31.091   9.404  1.00  0.00    -0.265 OA
BRANCH  33  35
HETATM   35  C6  UNL     1      12.059  30.040  10.338  1.00  0.00     0.111 C 
BRANCH  35  36
HETATM   36  C5  UNL     1      10.663  29.647   9.886  1.00  0.00     0.010 C 
BRANCH  36  37
HETATM   37  C4  UNL     1      10.289  28.245  10.245  1.00  0.00     0.000 C 
BRANCH  37  38
HETATM   38  C3  UNL     1      11.370  27.238   9.943  1.00  0.00    -0.000 C 
BRANCH  38  39
HETATM   39  C2  UNL     1      10.907  25.821  10.270  1.00  0.00    -0.005 C 
HETATM   40  C1  UNL     1      12.052  24.866  10.097  1.00  0.00     0.005 C 
ENDBRANCH  38  39
ENDBRANCH  37  38
ENDBRANCH  36  37
ENDBRANCH  35  36
ENDBRANCH  33  35
ENDBRANCH  32  33
ENDBRANCH   1  32
TORSDOF 15
ENDMDL
MODEL 2
REMARK VINA RESULT: -7.863841051      3.902      7.901
REMARK  15 active torsions:
REMARK  status: ('A' for Active; 'I' for Inactive)
REMARK    1  A    between atoms: C2_2  and  C3_3 
REMARK    2  A    between atoms: C3_3  and  C4_4 
REMARK    3  A    between atoms: C4_4  and  C5_5 
REMARK    4  A    between atoms: C5_5  and  C6_6 
REMARK    5  A    between atoms: C6_6  and  C7_7 
REMARK    6  A    between atoms: C7_7  and  O2_9 
REMARK    7  A    between atoms: O2_9  and  C8_10 
REMARK    8  A    between atoms: C10_13  and  C11_14 
REMARK    9  A    between atoms: C12_15  and  C13_16 
REMARK   10  A    between atoms: C12_15  and  C25_28 
REMARK   11  A    between atoms: C14_17  and  C15_18 
REMARK   12  A    between atoms: C25_28  and  C26_29 
REMARK   13  A    between atoms: C26_29  and  C27_30 
REMARK   14  A    between atoms: C30_33  and  C31_34 
REMARK   15  A    between atoms: C31_34  and  O3_37 
ROOT
HETATM    1  C8  UNL     1       9.595  29.305   2.355  1.00  0.00     0.356 A 
HETATM    2  C9  UNL     1       8.627  30.097   3.003  1.00  0.00     0.358 A 
HETATM    3  N1  UNL     1       9.465  30.673   1.882  1.00  0.00     0.148 N 
HETATM    4  C10 UNL     1       8.858  30.608   0.553  1.00  0.00     0.265 C 
HETATM    5  C30 UNL     1       9.456  29.324   0.028  1.00  0.00     0.131 C 
HETATM    6  C34 UNL     1       9.254  28.440   1.192  1.00  0.00     0.204 C 
HETATM    7  O4  UNL     1       8.898  27.294   1.184  1.00  0.00    -0.292 OA
ENDROOT
BRANCH   4   8
HETATM    8  C11 UNL     1       9.298  31.783  -0.199  1.00  0.00     0.021 C 
HETATM    9  C12 UNL     1       8.588  32.887  -0.425  1.00  0.00    -0.038 C 
BRANCH   9  10
HETATM   10  C13 UNL     1       9.239  33.944  -1.211  1.00  0.00     0.007 C 
HETATM   11  C14 UNL     1      10.365  34.543  -0.868  1.00  0.00    -0.020 C 
BRANCH  11  12
HETATM   12  C15 UNL     1      10.997  35.598  -1.672  1.00  0.00     0.024 C 
HETATM   13  C16 UNL     1      12.473  35.298  -1.836  1.00  0.00    -0.040 C 
HETATM   14  C17 UNL     1      13.270  35.363  -0.585  1.00  0.00     0.015 C 
HETATM   15  C18 UNL     1      12.591  33.891  -2.417  1.00  0.00     0.015 C 
HETATM   16  C19 UNL     1      12.979  36.235  -2.905  1.00  0.00     0.009 C 
HETATM   17  C20 UNL     1      12.883  37.634  -2.425  1.00  0.00     0.002 C 
HETATM   18  C21 UNL     1      11.899  37.913  -1.353  1.00  0.00     0.009 C 
HETATM   19  C22 UNL     1      10.700  36.996  -1.336  1.00  0.00    -0.040 C 
HETATM   20  C23 UNL     1      10.081  37.131   0.024  1.00  0.00     0.015 C 
HETATM   21  C24 UNL     1       9.675  37.627  -2.302  1.00  0.00     0.015 C 
ENDBRANCH  11  12
ENDBRANCH   9  10
BRANCH   9  22
HETATM   22  C25 UNL     1       7.272  33.102   0.132  1.00  0.00     0.011 C 
BRANCH  22  23
HETATM   23  C26 UNL     1       6.982  34.239   0.977  1.00  0.00     0.003 C 
BRANCH  23  24
HETATM   24  C27 UNL     1       6.254  35.296   0.850  1.00  0.00    -0.088 C 
HETATM   25  C28 UNL     1       4.935  35.333   1.626  1.00  0.00     0.043 C 
HETATM   26  C29 UNL     1       6.555  36.447  -0.022  1.00  0.00     0.043 C 
ENDBRANCH  23  24
ENDBRANCH  22  23
ENDBRANCH   9  22
ENDBRANCH   4   8
BRANCH   5  27
HETATM   27  C31 UNL     1       8.966  28.834  -1.261  1.00  0.00     0.063 C 
HETATM   28  C32 UNL     1       9.369  29.566  -2.479  1.00  0.00     0.046 C 
HETATM   29  C33 UNL     1       7.430  28.867  -1.200  1.00  0.00     0.046 C 
BRANCH  27  30
HETATM   30  O3  UNL     1       9.277  27.456  -1.342  1.00  0.00    -0.390 OA
ATOM     31  H3  UNL     1       8.462  26.972  -1.275  1.00  0.00     0.210 HD
ENDBRANCH  27  30
ENDBRANCH   5  27
BRANCH   1  32
HETATM   32  O2  UNL     1      10.875  28.994   2.890  1.00  0.00    -0.271 OA
BRANCH  32  33
HETATM   33  C7  UNL     1      11.763  29.996   3.245  1.00  0.00     0.261 C 
HETATM   34  O1  UNL     1      12.217  30.726   2.326  1.00  0.00    -0.265 OA
BRANCH  33  35
HETATM   35  C6  UNL     1      12.178  30.224   4.656  1.00  0.00     0.111 C 
BRANCH  35  36
HETATM   36  C5  UNL     1      12.150  31.706   4.988  1.00  0.00     0.010 C 
BRANCH  36  37
HETATM   37  C4  UNL     1      13.499  32.280   5.280  1.00  0.00     0.000 C 
BRANCH  37  38
HETATM   38  C3  UNL     1      13.943  33.315   4.278  1.00  0.00    -0.000 C 
BRANCH  38  39
HETATM   39  C2  UNL     1      13.159  34.614   4.448  1.00  0.00    -0.005 C 
HETATM   40  C1  UNL     1      13.065  35.320   3.127  1.00  0.00     0.005 C 
ENDBRANCH  38  39
ENDBRANCH  37  38
ENDBRANCH  36  37
ENDBRANCH  35  36
ENDBRANCH  33  35
ENDBRANCH  32  33
ENDBRANCH   1  32
TORSDOF 15
ENDMDL
MODEL 3
REMARK VINA RESULT: -7.804584769      1.433      2.395
REMARK  15 active torsions:
REMARK  status: ('A' for Active; 'I' for Inactive)
REMARK    1  A    between atoms: C2_2  and  C3_3 
REMARK    2  A    between atoms: C3_3  and  C4_4 
REMARK    3  A    between atoms: C4_4  and  C5_5 
REMARK    4  A    between atoms: C5_5  and  C6_6 
REMARK    5  A    between atoms: C6_6  and  C7_7 
REMARK    6  A    between atoms: C7_7  and  O2_9 
REMARK    7  A    between atoms: O2_9  and  C8_10 
REMARK    8  A    between atoms: C10_13  and  C11_14 
REMARK    9  A    between atoms: C12_15  and  C13_16 
REMARK   10  A    between atoms: C12_15  and  C25_28 
REMARK   11  A    between atoms: C14_17  and  C15_18 
REMARK   12  A    between atoms: C25_28  and  C26_29 
REMARK   13  A    between atoms: C26_29  and  C27_30 
REMARK   14  A    between atoms: C30_33  and  C31_34 
REMARK   15  A    between atoms: C31_34  and  O3_37 
ROOT
HETATM    1  C8  UNL     1      12.724  30.705   6.286  1.00  0.00     0.356 A 
HETATM    2  C9  UNL     1      12.890  29.432   5.708  1.00  0.00     0.358 A 
HETATM    3  N1  UNL     1      11.792  30.357   5.227  1.00  0.00     0.148 N 
HETATM    4  C10 UNL     1      12.135  31.183   4.069  1.00  0.00     0.265 C 
HETATM    5  C30 UNL     1      12.589  32.453   4.749  1.00  0.00     0.131 C 
HETATM    6  C34 UNL     1      13.470  31.897   5.795  1.00  0.00     0.204 C 
HETATM    7  O4  UNL     1      14.535  32.319   6.151  1.00  0.00    -0.292 OA
ENDROOT
BRANCH   4   8
HETATM    8  C11 UNL     1      10.920  31.372   3.277  1.00  0.00     0.021 C 
HETATM    9  C12 UNL     1      10.190  30.413   2.712  1.00  0.00    -0.038 C 
BRANCH   9  10
HETATM   10  C13 UNL     1       9.004  30.840   1.958  1.00  0.00     0.007 C 
HETATM   11  C14 UNL     1       9.043  31.531   0.833  1.00  0.00    -0.020 C 
BRANCH  11  12
HETATM   12  C15 UNL     1       7.841  31.946   0.097  1.00  0.00     0.024 C 
HETATM   13  C16 UNL     1       7.686  31.094  -1.146  1.00  0.00    -0.040 C 
HETATM   14  C17 UNL     1       8.740  31.283  -2.173  1.00  0.00     0.015 C 
HETATM   15  C18 UNL     1       7.692  29.633  -0.701  1.00  0.00     0.015 C 
HETATM   16  C19 UNL     1       6.297  31.363  -1.672  1.00  0.00     0.009 C 
HETATM   17  C20 UNL     1       6.198  32.776  -2.113  1.00  0.00     0.002 C 
HETATM   18  C21 UNL     1       7.155  33.737  -1.515  1.00  0.00     0.009 C 
HETATM   19  C22 UNL     1       7.628  33.382  -0.126  1.00  0.00    -0.040 C 
HETATM   20  C23 UNL     1       8.874  34.182   0.116  1.00  0.00     0.015 C 
HETATM   21  C24 UNL     1       6.582  33.977   0.839  1.00  0.00     0.015 C 
ENDBRANCH  11  12
ENDBRANCH   9  10
BRANCH   9  22
HETATM   22  C25 UNL     1      10.474  29.006   2.883  1.00  0.00     0.011 C 
BRANCH  22  23
HETATM   23  C26 UNL     1       9.440  28.001   2.756  1.00  0.00     0.003 C 
BRANCH  23  24
HETATM   24  C27 UNL     1       9.390  26.817   2.250  1.00  0.00    -0.088 C 
HETATM   25  C28 UNL     1       8.716  26.669   0.883  1.00  0.00     0.043 C 
HETATM   26  C29 UNL     1       9.874  25.583   2.899  1.00  0.00     0.043 C 
ENDBRANCH  23  24
ENDBRANCH  22  23
ENDBRANCH   9  22
ENDBRANCH   4   8
BRANCH   5  27
HETATM   27  C31 UNL     1      13.159  33.502   3.902  1.00  0.00     0.063 C 
HETATM   28  C32 UNL     1      12.915  34.909   4.283  1.00  0.00     0.046 C 
HETATM   29  C33 UNL     1      12.575  33.307   2.493  1.00  0.00     0.046 C 
BRANCH  27  30
HETATM   30  O3  UNL     1      14.537  33.225   3.745  1.00  0.00    -0.390 OA
ATOM     31  H3  UNL     1      14.623  32.556   3.076  1.00  0.00     0.210 HD
ENDBRANCH  27  30
ENDBRANCH   5  27
BRANCH   1  32
HETATM   32  O2  UNL     1      12.109  30.948   7.545  1.00  0.00    -0.271 OA
BRANCH  32  33
HETATM   33  C7  UNL     1      12.634  30.412   8.710  1.00  0.00     0.261 C 
HETATM   34  O1  UNL     1      13.761  30.824   9.085  1.00  0.00    -0.265 OA
BRANCH  33  35
HETATM   35  C6  UNL     1      11.907  29.387   9.508  1.00  0.00     0.111 C 
BRANCH  35  36
HETATM   36  C5  UNL     1      10.544  29.909   9.933  1.00  0.00     0.010 C 
BRANCH  36  37
HETATM   37  C4  UNL     1      10.590  30.790  11.140  1.00  0.00     0.000 C 
BRANCH  37  38
HETATM   38  C3  UNL     1      11.629  30.374  12.150  1.00  0.00    -0.000 C 
BRANCH  38  39
HETATM   39  C2  UNL     1      12.535  31.546  12.519  1.00  0.00    -0.005 C 
HETATM   40  C1  UNL     1      12.059  32.787  11.822  1.00  0.00     0.005 C 
ENDBRANCH  38  39
ENDBRANCH  37  38
ENDBRANCH  36  37
ENDBRANCH  35  36
ENDBRANCH  33  35
ENDBRANCH  32  33
ENDBRANCH   1  32
TORSDOF 15
ENDMDL
MODEL 4
REMARK VINA RESULT: -7.746705678      1.117      1.815
REMARK  15 active torsions:
REMARK  status: ('A' for Active; 'I' for Inactive)
REMARK    1  A    between atoms: C2_2  and  C3_3 
REMARK    2  A    between atoms: C3_3  and  C4_4 
REMARK    3  A    between atoms: C4_4  and  C5_5 
REMARK    4  A    between atoms: C5_5  and  C6_6 
REMARK    5  A    between atoms: C6_6  and  C7_7 
REMARK    6  A    between atoms: C7_7  and  O2_9 
REMARK    7  A    between atoms: O2_9  and  C8_10 
REMARK    8  A    between atoms: C10_13  and  C11_14 
REMARK    9  A    between atoms: C12_15  and  C13_16 
REMARK   10  A    between atoms: C12_15  and  C25_28 
REMARK   11  A    between atoms: C14_17  and  C15_18 
REMARK   12  A    between atoms: C25_28  and  C26_29 
REMARK   13  A    between atoms: C26_29  and  C27_30 
REMARK   14  A    between atoms: C30_33  and  C31_34 
REMARK   15  A    between atoms: C31_34  and  O3_37 
ROOT
HETATM    1  C8  UNL     1      12.916  30.702   6.622  1.00  0.00     0.356 A 
HETATM    2  C9  UNL     1      13.290  29.422   6.168  1.00  0.00     0.358 A 
HETATM    3  N1  UNL     1      12.114  30.145   5.547  1.00  0.00     0.148 N 
HETATM    4  C10 UNL     1      12.421  30.916   4.341  1.00  0.00     0.265 C 
HETATM    5  C30 UNL     1      12.654  32.286   4.932  1.00  0.00     0.131 C 
HETATM    6  C34 UNL     1      13.527  31.943   6.070  1.00  0.00     0.204 C 
HETATM    7  O4  UNL     1      14.500  32.537   6.448  1.00  0.00    -0.292 OA
ENDROOT
BRANCH   4   8
HETATM    8  C11 UNL     1      11.249  30.869   3.468  1.00  0.00     0.021 C 
HETATM    9  C12 UNL     1      10.631  29.773   3.034  1.00  0.00    -0.038 C 
BRANCH   9  10
HETATM   10  C13 UNL     1       9.467  29.970   2.160  1.00  0.00     0.007 C 
HETATM   11  C14 UNL     1       9.491  29.848   0.845  1.00  0.00    -0.020 C 
BRANCH  11  12
HETATM   12  C15 UNL     1       8.311  30.050  -0.007  1.00  0.00     0.024 C 
HETATM   13  C16 UNL     1       8.146  28.865  -0.936  1.00  0.00    -0.040 C 
HETATM   14  C17 UNL     1       9.218  28.706  -1.950  1.00  0.00     0.015 C 
HETATM   15  C18 UNL     1       8.103  27.608  -0.069  1.00  0.00     0.015 C 
HETATM   16  C19 UNL     1       6.773  28.996  -1.548  1.00  0.00     0.009 C 
HETATM   17  C20 UNL     1       6.722  30.210  -2.399  1.00  0.00     0.002 C 
HETATM   18  C21 UNL     1       7.700  31.283  -2.100  1.00  0.00     0.009 C 
HETATM   19  C22 UNL     1       8.145  31.355  -0.659  1.00  0.00    -0.040 C 
HETATM   20  C23 UNL     1       9.411  32.159  -0.646  1.00  0.00     0.015 C 
HETATM   21  C24 UNL     1       7.105  32.241   0.058  1.00  0.00     0.015 C 
ENDBRANCH  11  12
ENDBRANCH   9  10
BRANCH   9  22
HETATM   22  C25 UNL     1      11.010  28.441   3.450  1.00  0.00     0.011 C 
BRANCH  22  23
HETATM   23  C26 UNL     1      10.228  27.280   3.085  1.00  0.00     0.003 C 
BRANCH  23  24
HETATM   24  C27 UNL     1      10.421  26.007   3.144  1.00  0.00    -0.088 C 
HETATM   25  C28 UNL     1       9.402  25.111   2.436  1.00  0.00     0.043 C 
HETATM   26  C29 UNL     1      11.507  25.336   3.884  1.00  0.00     0.043 C 
ENDBRANCH  23  24
ENDBRANCH  22  23
ENDBRANCH   9  22
ENDBRANCH   4   8
BRANCH   5  27
HETATM   27  C31 UNL     1      13.134  33.333   4.029  1.00  0.00     0.063 C 
HETATM   28  C32 UNL     1      12.826  34.738   4.371  1.00  0.00     0.046 C 
HETATM   29  C33 UNL     1      12.513  33.057   2.650  1.00  0.00     0.046 C 
BRANCH  27  30
HETATM   30  O3  UNL     1      14.519  33.127   3.830  1.00  0.00    -0.390 OA
ATOM     31  H3  UNL     1      14.694  33.219   2.901  1.00  0.00     0.210 HD
ENDBRANCH  27  30
ENDBRANCH   5  27
BRANCH   1  32
HETATM   32  O2  UNL     1      12.190  30.956   7.818  1.00  0.00    -0.271 OA
BRANCH  32  33
HETATM   33  C7  UNL     1      12.656  30.511   9.044  1.00  0.00     0.261 C 
HETATM   34  O1  UNL     1      13.778  30.930   9.428  1.00  0.00    -0.265 OA
BRANCH  33  35
HETATM   35  C6  UNL     1      11.876  29.572   9.895  1.00  0.00     0.111 C 
BRANCH  35  36
HETATM   36  C5  UNL     1      10.402  29.944   9.887  1.00  0.00     0.010 C 
BRANCH  36  37
HETATM   37  C4  UNL     1       9.911  30.478  11.194  1.00  0.00     0.000 C 
BRANCH  37  38
HETATM   38  C3  UNL     1      10.988  30.582  12.244  1.00  0.00    -0.000 C 
BRANCH  38  39
HETATM   39  C2  UNL     1      11.464  32.024  12.400  1.00  0.00    -0.005 C 
HETATM   40  C1  UNL     1      12.879  32.034  12.900  1.00  0.00     0.005 C 
ENDBRANCH  38  39
ENDBRANCH  37  38
ENDBRANCH  36  37
ENDBRANCH  35  36
ENDBRANCH  33  35
ENDBRANCH  32  33
ENDBRANCH   1  32
TORSDOF 15
ENDMDL
MODEL 5
REMARK VINA RESULT: -7.718431154      1.188      1.744
REMARK  15 active torsions:
REMARK  status: ('A' for Active; 'I' for Inactive)
REMARK    1  A    between atoms: C2_2  and  C3_3 
REMARK    2  A    between atoms: C3_3  and  C4_4 
REMARK    3  A    between atoms: C4_4  and  C5_5 
REMARK    4  A    between atoms: C5_5  and  C6_6 
REMARK    5  A    between atoms: C6_6  and  C7_7 
REMARK    6  A    between atoms: C7_7  and  O2_9 
REMARK    7  A    between atoms: O2_9  and  C8_10 
REMARK    8  A    between atoms: C10_13  and  C11_14 
REMARK    9  A    between atoms: C12_15  and  C13_16 
REMARK   10  A    between atoms: C12_15  and  C25_28 
REMARK   11  A    between atoms: C14_17  and  C15_18 
REMARK   12  A    between atoms: C25_28  and  C26_29 
REMARK   13  A    between atoms: C26_29  and  C27_30 
REMARK   14  A    between atoms: C30_33  and  C31_34 
REMARK   15  A    between atoms: C31_34  and  O3_37 
ROOT
HETATM    1  C8  UNL     1      12.712  30.582   6.089  1.00  0.00     0.356 A 
HETATM    2  C9  UNL     1      12.888  29.341   5.446  1.00  0.00     0.358 A 
HETATM    3  N1  UNL     1      11.777  30.277   5.020  1.00  0.00     0.148 N 
HETATM    4  C10 UNL     1      12.103  31.164   3.903  1.00  0.00     0.265 C 
HETATM    5  C30 UNL     1      12.547  32.403   4.644  1.00  0.00     0.131 C 
HETATM    6  C34 UNL     1      13.441  31.805   5.655  1.00  0.00     0.204 C 
HETATM    7  O4  UNL     1      14.503  32.221   6.026  1.00  0.00    -0.292 OA
ENDROOT
BRANCH   4   8
HETATM    8  C11 UNL     1      10.881  31.379   3.129  1.00  0.00     0.021 C 
HETATM    9  C12 UNL     1      10.103  30.433   2.605  1.00  0.00    -0.038 C 
BRANCH   9  10
HETATM   10  C13 UNL     1       8.920  30.886   1.862  1.00  0.00     0.007 C 
HETATM   11  C14 UNL     1       8.950  31.372   0.634  1.00  0.00    -0.020 C 
BRANCH  11  12
HETATM   12  C15 UNL     1       7.751  31.818  -0.089  1.00  0.00     0.024 C 
HETATM   13  C16 UNL     1       7.567  30.977  -1.336  1.00  0.00    -0.040 C 
HETATM   14  C17 UNL     1       8.617  31.150  -2.371  1.00  0.00     0.015 C 
HETATM   15  C18 UNL     1       7.546  29.514  -0.901  1.00  0.00     0.015 C 
HETATM   16  C19 UNL     1       6.180  31.280  -1.849  1.00  0.00     0.009 C 
HETATM   17  C20 UNL     1       6.108  32.697  -2.280  1.00  0.00     0.002 C 
HETATM   18  C21 UNL     1       7.090  33.633  -1.684  1.00  0.00     0.009 C 
HETATM   19  C22 UNL     1       7.567  33.259  -0.301  1.00  0.00    -0.040 C 
HETATM   20  C23 UNL     1       8.832  34.031  -0.066  1.00  0.00     0.015 C 
HETATM   21  C24 UNL     1       6.542  33.870   0.676  1.00  0.00     0.015 C 
ENDBRANCH  11  12
ENDBRANCH   9  10
BRANCH   9  22
HETATM   22  C25 UNL     1      10.335  29.022   2.811  1.00  0.00     0.011 C 
BRANCH  22  23
HETATM   23  C26 UNL     1       9.274  28.049   2.670  1.00  0.00     0.003 C 
BRANCH  23  24
HETATM   24  C27 UNL     1       9.181  26.888   2.118  1.00  0.00    -0.088 C 
HETATM   25  C28 UNL     1       9.850  25.715   2.839  1.00  0.00     0.043 C 
HETATM   26  C29 UNL     1       8.535  26.602   0.822  1.00  0.00     0.043 C 
ENDBRANCH  23  24
ENDBRANCH  22  23
ENDBRANCH   9  22
ENDBRANCH   4   8
BRANCH   5  27
HETATM   27  C31 UNL     1      13.099  33.500   3.848  1.00  0.00     0.063 C 
HETATM   28  C32 UNL     1      12.849  34.883   4.305  1.00  0.00     0.046 C 
HETATM   29  C33 UNL     1      12.502  33.375   2.436  1.00  0.00     0.046 C 
BRANCH  27  30
HETATM   30  O3  UNL     1      14.478  33.243   3.661  1.00  0.00    -0.390 OA
ATOM     31  H3  UNL     1      14.935  33.539   4.440  1.00  0.00     0.210 HD
ENDBRANCH  27  30
ENDBRANCH   5  27
BRANCH   1  32
HETATM   32  O2  UNL     1      12.102  30.753   7.363  1.00  0.00    -0.271 OA
BRANCH  32  33
HETATM   33  C7  UNL     1      12.676  30.220   8.506  1.00  0.00     0.261 C 
HETATM   34  O1  UNL     1      13.398  30.977   9.203  1.00  0.00    -0.265 OA
BRANCH  33  35
HETATM   35  C6  UNL     1      12.457  28.806   8.916  1.00  0.00     0.111 C 
BRANCH  35  36
HETATM   36  C5  UNL     1      11.355  28.717   9.958  1.00  0.00     0.010 C 
BRANCH  36  37
HETATM   37  C4  UNL     1      10.966  27.315  10.300  1.00  0.00     0.000 C 
BRANCH  37  38
HETATM   38  C3  UNL     1      11.796  26.271   9.597  1.00  0.00    -0.000 C 
BRANCH  38  39
HETATM   39  C2  UNL     1      11.725  24.932  10.326  1.00  0.00    -0.005 C 
HETATM   40  C1  UNL     1      10.329  24.707  10.829  1.00  0.00     0.005 C 
ENDBRANCH  38  39
ENDBRANCH  37  38
ENDBRANCH  36  37
ENDBRANCH  35  36
ENDBRANCH  33  35
ENDBRANCH  32  33
ENDBRANCH   1  32
TORSDOF 15
ENDMDL
