MODEL 1
REMARK VINA RESULT: -7.116521925      0.000      0.000
REMARK  12 active torsions:
REMARK  status: ('A' for Active; 'I' for Inactive)
REMARK    1  A    between atoms: C2_2  and  C4_4 
REMARK    2  A    between atoms: C5_5  and  C6_6 
REMARK    3  A    between atoms: C6_6  and  O1_7 
REMARK    4  A    between atoms: C8_10  and  O2_11 
REMARK    5  A    between atoms: C12_17  and  C13_18 
REMARK    6  A    between atoms: C12_17  and  C14_21 
REMARK    7  A    between atoms: C13_18  and  O4_19 
REMARK    8  A    between atoms: C14_21  and  C15_22 
REMARK    9  A    between atoms: C16_23  and  C17_24 
REMARK   10  A    between atoms: C17_24  and  O5_27 
REMARK   11  A    between atoms: O5_27  and  C20_28 
REMARK   12  A    between atoms: C26_35  and  O7_36 
ROOT
HETATM    1  C6  UNL     1       4.923  44.913  14.459  1.00  0.00     0.094 C 
HETATM    2  C7  UNL     1       5.187  46.256  13.714  1.00  0.00     0.103 C 
HETATM    3  C8  UNL     1       4.325  47.379  14.102  1.00  0.00     0.261 C 
HETATM    4  O3  UNL     1       3.468  47.234  15.217  1.00  0.00    -0.350 OA
HETATM    5  C9  UNL     1       3.063  45.926  15.183  1.00  0.00     0.075 C 
HETATM    6  C10 UNL     1       2.469  45.773  13.875  1.00  0.00     0.047 C 
HETATM    7  C11 UNL     1       1.922  45.427  16.015  1.00  0.00     0.051 C 
HETATM    8  C12 UNL     1       2.420  44.218  16.816  1.00  0.00    -0.005 C 
HETATM    9  C22 UNL     1       3.768  44.750  16.931  1.00  0.00    -0.018 C 
HETATM   10  C23 UNL     1       3.658  45.862  17.963  1.00  0.00     0.017 C 
HETATM   11  C24 UNL     1       4.833  43.892  17.528  1.00  0.00     0.013 C 
HETATM   12  C25 UNL     1       5.893  44.990  17.447  1.00  0.00     0.033 C 
HETATM   13  C26 UNL     1       5.432  45.946  16.365  1.00  0.00     0.133 C 
HETATM   14  C27 UNL     1       4.316  45.241  15.666  1.00  0.00     0.059 C 
ENDROOT
BRANCH   8  15
HETATM   15  C13 UNL     1       1.480  44.068  17.939  1.00  0.00     0.174 C 
BRANCH  15  16
HETATM   16  O4  UNL     1       0.131  44.232  17.751  1.00  0.00    -0.400 OA
ATOM     17  H4  UNL     1      -0.377  44.785  18.333  1.00  0.00     0.209 HD
ENDBRANCH  15  16
ENDBRANCH   8  15
BRANCH   8  18
HETATM   18  C14 UNL     1       2.419  42.905  16.152  1.00  0.00     0.039 C 
BRANCH  18  19
HETATM   19  C15 UNL     1       2.106  41.723  17.003  1.00  0.00    -0.027 C 
HETATM   20  C16 UNL     1       2.926  40.700  17.190  1.00  0.00     0.007 C 
BRANCH  20  21
HETATM   21  C17 UNL     1       2.592  39.546  18.034  1.00  0.00     0.081 C 
HETATM   22  C18 UNL     1       2.216  38.389  17.102  1.00  0.00     0.051 C 
HETATM   23  C19 UNL     1       1.473  39.834  19.011  1.00  0.00     0.051 C 
BRANCH  21  24
HETATM   24  O5  UNL     1       3.698  39.088  18.793  1.00  0.00    -0.307 OA
BRANCH  24  25
HETATM   25  C20 UNL     1       4.691  39.998  19.122  1.00  0.00     0.255 C 
HETATM   26  C21 UNL     1       6.006  40.019  18.396  1.00  0.00     0.126 C 
HETATM   27  O6  UNL     1       4.563  40.853  20.036  1.00  0.00    -0.266 OA
ENDBRANCH  24  25
ENDBRANCH  21  24
ENDBRANCH  20  21
ENDBRANCH  18  19
ENDBRANCH   8  18
BRANCH   1  28
HETATM   28  C5  UNL     1       6.188  44.148  14.341  1.00  0.00     0.012 C 
HETATM   29  C4  UNL     1       6.253  42.840  14.533  1.00  0.00     0.005 C 
BRANCH  29  30
HETATM   30  C2  UNL     1       7.499  42.098  14.415  1.00  0.00    -0.072 C 
HETATM   31  C1  UNL     1       8.138  42.091  13.262  1.00  0.00     0.018 C 
HETATM   32  C3  UNL     1       8.057  41.352  15.579  1.00  0.00     0.047 C 
ENDBRANCH  29  30
ENDBRANCH   1  28
BRANCH   1  33
HETATM   33  O1  UNL     1       4.234  44.161  13.458  1.00  0.00    -0.385 OA
ATOM     34  H1  UNL     1       3.780  44.911  13.092  1.00  0.00     0.211 HD
ENDBRANCH   1  33
BRANCH  13  35
HETATM   35  O7  UNL     1       6.677  46.097  15.757  1.00  0.00    -0.395 OA
ATOM     36  H7  UNL     1       6.492  46.937  15.354  1.00  0.00     0.210 HD
ENDBRANCH  13  35
BRANCH   3  37
HETATM   37  O2  UNL     1       5.004  48.616  14.289  1.00  0.00    -0.371 OA
ATOM     38  H2  UNL     1       4.864  49.024  15.136  1.00  0.00     0.212 HD
ENDBRANCH   3  37
TORSDOF 12
ENDMDL
MODEL 2
REMARK VINA RESULT: -6.700583390      1.795      2.595
REMARK  12 active torsions:
REMARK  status: ('A' for Active; 'I' for Inactive)
REMARK    1  A    between atoms: C2_2  and  C4_4 
REMARK    2  A    between atoms: C5_5  and  C6_6 
REMARK    3  A    between atoms: C6_6  and  O1_7 
REMARK    4  A    between atoms: C8_10  and  O2_11 
REMARK    5  A    between atoms: C12_17  and  C13_18 
REMARK    6  A    between atoms: C12_17  and  C14_21 
REMARK    7  A    between atoms: C13_18  and  O4_19 
REMARK    8  A    between atoms: C14_21  and  C15_22 
REMARK    9  A    between atoms: C16_23  and  C17_24 
REMARK   10  A    between atoms: C17_24  and  O5_27 
REMARK   11  A    between atoms: O5_27  and  C20_28 
REMARK   12  A    between atoms: C26_35  and  O7_36 
ROOT
HETATM    1  C6  UNL     1       4.863  44.867  14.639  1.00  0.00     0.094 C 
HETATM    2  C7  UNL     1       5.006  46.107  13.707  1.00  0.00     0.103 C 
HETATM    3  C8  UNL     1       4.169  47.262  14.052  1.00  0.00     0.261 C 
HETATM    4  O3  UNL     1       3.451  47.251  15.269  1.00  0.00    -0.350 OA
HETATM    5  C9  UNL     1       3.076  45.946  15.446  1.00  0.00     0.075 C 
HETATM    6  C10 UNL     1       2.338  45.623  14.246  1.00  0.00     0.047 C 
HETATM    7  C11 UNL     1       2.051  45.546  16.462  1.00  0.00     0.051 C 
HETATM    8  C12 UNL     1       2.666  44.453  17.343  1.00  0.00    -0.005 C 
HETATM    9  C22 UNL     1       4.005  45.007  17.231  1.00  0.00    -0.018 C 
HETATM   10  C23 UNL     1       3.988  46.239  18.123  1.00  0.00     0.017 C 
HETATM   11  C24 UNL     1       5.152  44.242  17.801  1.00  0.00     0.013 C 
HETATM   12  C25 UNL     1       6.170  45.330  17.459  1.00  0.00     0.033 C 
HETATM   13  C26 UNL     1       5.564  46.138  16.329  1.00  0.00     0.133 C 
HETATM   14  C27 UNL     1       4.391  45.339  15.860  1.00  0.00     0.059 C 
ENDROOT
BRANCH   8  15
HETATM   15  C13 UNL     1       1.866  44.438  18.579  1.00  0.00     0.174 C 
BRANCH  15  16
HETATM   16  O4  UNL     1       2.255  43.683  19.657  1.00  0.00    -0.400 OA
ATOM     17  H4  UNL     1       1.648  43.083  20.074  1.00  0.00     0.209 HD
ENDBRANCH  15  16
ENDBRANCH   8  15
BRANCH   8  18
HETATM   18  C14 UNL     1       2.620  43.066  16.852  1.00  0.00     0.039 C 
BRANCH  18  19
HETATM   19  C15 UNL     1       1.271  42.455  16.694  1.00  0.00    -0.027 C 
HETATM   20  C16 UNL     1       0.781  41.513  17.487  1.00  0.00     0.007 C 
BRANCH  20  21
HETATM   21  C17 UNL     1      -0.553  40.928  17.309  1.00  0.00     0.081 C 
HETATM   22  C18 UNL     1      -0.381  39.406  17.246  1.00  0.00     0.051 C 
HETATM   23  C19 UNL     1      -1.263  41.439  16.074  1.00  0.00     0.051 C 
BRANCH  21  24
HETATM   24  O5  UNL     1      -1.408  41.175  18.412  1.00  0.00    -0.307 OA
BRANCH  24  25
HETATM   25  C20 UNL     1      -1.175  42.303  19.184  1.00  0.00     0.255 C 
HETATM   26  C21 UNL     1      -1.739  43.642  18.805  1.00  0.00     0.126 C 
HETATM   27  O6  UNL     1      -0.486  42.283  20.237  1.00  0.00    -0.266 OA
ENDBRANCH  24  25
ENDBRANCH  21  24
ENDBRANCH  20  21
ENDBRANCH  18  19
ENDBRANCH   8  18
BRANCH   1  28
HETATM   28  C5  UNL     1       6.124  44.104  14.470  1.00  0.00     0.012 C 
HETATM   29  C4  UNL     1       6.222  42.814  14.748  1.00  0.00     0.005 C 
BRANCH  29  30
HETATM   30  C2  UNL     1       7.464  42.075  14.578  1.00  0.00    -0.072 C 
HETATM   31  C1  UNL     1       8.024  42.023  13.387  1.00  0.00     0.018 C 
HETATM   32  C3  UNL     1       8.104  41.382  15.732  1.00  0.00     0.047 C 
ENDBRANCH  29  30
ENDBRANCH   1  28
BRANCH   1  33
HETATM   33  O1  UNL     1       4.081  43.987  13.828  1.00  0.00    -0.385 OA
ATOM     34  H1  UNL     1       3.581  44.683  13.416  1.00  0.00     0.211 HD
ENDBRANCH   1  33
BRANCH  13  35
HETATM   35  O7  UNL     1       6.726  46.221  15.565  1.00  0.00    -0.395 OA
ATOM     36  H7  UNL     1       6.502  45.522  14.962  1.00  0.00     0.210 HD
ENDBRANCH  13  35
BRANCH   3  37
HETATM   37  O2  UNL     1       4.835  48.519  14.002  1.00  0.00    -0.371 OA
ATOM     38  H2  UNL     1       4.395  49.222  14.464  1.00  0.00     0.212 HD
ENDBRANCH   3  37
TORSDOF 12
ENDMDL
MODEL 3
REMARK VINA RESULT: -6.673598564      2.340      4.004
REMARK  12 active torsions:
REMARK  status: ('A' for Active; 'I' for Inactive)
REMARK    1  A    between atoms: C2_2  and  C4_4 
REMARK    2  A    between atoms: C5_5  and  C6_6 
REMARK    3  A    between atoms: C6_6  and  O1_7 
REMARK    4  A    between atoms: C8_10  and  O2_11 
REMARK    5  A    between atoms: C12_17  and  C13_18 
REMARK    6  A    between atoms: C12_17  and  C14_21 
REMARK    7  A    between atoms: C13_18  and  O4_19 
REMARK    8  A    between atoms: C14_21  and  C15_22 
REMARK    9  A    between atoms: C16_23  and  C17_24 
REMARK   10  A    between atoms: C17_24  and  O5_27 
REMARK   11  A    between atoms: O5_27  and  C20_28 
REMARK   12  A    between atoms: C26_35  and  O7_36 
ROOT
HETATM    1  C6  UNL     1       5.002  44.133  15.509  1.00  0.00     0.094 C 
HETATM    2  C7  UNL     1       6.374  44.354  14.806  1.00  0.00     0.103 C 
HETATM    3  C8  UNL     1       6.508  45.605  14.050  1.00  0.00     0.261 C 
HETATM    4  O3  UNL     1       5.493  46.584  14.156  1.00  0.00    -0.350 OA
HETATM    5  C9  UNL     1       4.328  45.873  14.272  1.00  0.00     0.075 C 
HETATM    6  C10 UNL     1       4.308  45.031  13.098  1.00  0.00     0.047 C 
HETATM    7  C11 UNL     1       2.986  46.518  14.117  1.00  0.00     0.051 C 
HETATM    8  C12 UNL     1       2.157  46.179  15.361  1.00  0.00    -0.005 C 
HETATM    9  C22 UNL     1       3.321  46.165  16.230  1.00  0.00    -0.018 C 
HETATM   10  C23 UNL     1       3.684  47.631  16.412  1.00  0.00     0.017 C 
HETATM   11  C24 UNL     1       3.159  45.719  17.645  1.00  0.00     0.013 C 
HETATM   12  C25 UNL     1       4.617  46.009  18.001  1.00  0.00     0.033 C 
HETATM   13  C26 UNL     1       5.387  45.978  16.696  1.00  0.00     0.133 C 
HETATM   14  C27 UNL     1       4.444  45.393  15.696  1.00  0.00     0.059 C 
ENDROOT
BRANCH   8  15
HETATM   15  C13 UNL     1       1.084  47.187  15.413  1.00  0.00     0.174 C 
BRANCH  15  16
HETATM   16  O4  UNL     1       0.807  47.973  14.323  1.00  0.00    -0.400 OA
ATOM     17  H4  UNL     1       0.338  48.793  14.423  1.00  0.00     0.209 HD
ENDBRANCH  15  16
ENDBRANCH   8  15
BRANCH   8  18
HETATM   18  C14 UNL     1       1.454  44.886  15.388  1.00  0.00     0.039 C 
BRANCH  18  19
HETATM   19  C15 UNL     1       0.137  44.852  16.083  1.00  0.00    -0.027 C 
HETATM   20  C16 UNL     1      -0.238  43.901  16.925  1.00  0.00     0.007 C 
BRANCH  20  21
HETATM   21  C17 UNL     1      -1.543  43.892  17.597  1.00  0.00     0.081 C 
HETATM   22  C18 UNL     1      -2.106  42.471  17.486  1.00  0.00     0.051 C 
HETATM   23  C19 UNL     1      -2.513  44.900  17.018  1.00  0.00     0.051 C 
BRANCH  21  24
HETATM   24  O5  UNL     1      -1.443  44.162  18.985  1.00  0.00    -0.307 OA
BRANCH  24  25
HETATM   25  C20 UNL     1      -0.622  43.352  19.754  1.00  0.00     0.255 C 
HETATM   26  C21 UNL     1       0.873  43.500  19.725  1.00  0.00     0.126 C 
HETATM   27  O6  UNL     1      -1.063  42.454  20.517  1.00  0.00    -0.266 OA
ENDBRANCH  24  25
ENDBRANCH  21  24
ENDBRANCH  20  21
ENDBRANCH  18  19
ENDBRANCH   8  18
BRANCH   1  28
HETATM   28  C5  UNL     1       5.276  43.170  16.604  1.00  0.00     0.012 C 
HETATM   29  C4  UNL     1       4.372  42.307  17.040  1.00  0.00     0.005 C 
BRANCH  29  30
HETATM   30  C2  UNL     1       4.651  41.367  18.114  1.00  0.00    -0.072 C 
HETATM   31  C1  UNL     1       5.592  40.459  17.947  1.00  0.00     0.018 C 
HETATM   32  C3  UNL     1       3.889  41.422  19.394  1.00  0.00     0.047 C 
ENDBRANCH  29  30
ENDBRANCH   1  28
BRANCH   1  33
HETATM   33  O1  UNL     1       4.392  43.167  14.650  1.00  0.00    -0.385 OA
ATOM     34  H1  UNL     1       4.361  43.742  13.893  1.00  0.00     0.211 HD
ENDBRANCH   1  33
BRANCH  13  35
HETATM   35  O7  UNL     1       6.468  45.243  17.177  1.00  0.00    -0.395 OA
ATOM     36  H7  UNL     1       7.126  45.663  16.636  1.00  0.00     0.210 HD
ENDBRANCH  13  35
BRANCH   3  37
HETATM   37  O2  UNL     1       7.737  46.295  14.248  1.00  0.00    -0.371 OA
ATOM     38  H2  UNL     1       8.510  45.743  14.245  1.00  0.00     0.212 HD
ENDBRANCH   3  37
TORSDOF 12
ENDMDL
MODEL 4
REMARK VINA RESULT: -6.603327414      0.877      1.581
REMARK  12 active torsions:
REMARK  status: ('A' for Active; 'I' for Inactive)
REMARK    1  A    between atoms: C2_2  and  C4_4 
REMARK    2  A    between atoms: C5_5  and  C6_6 
REMARK    3  A    between atoms: C6_6  and  O1_7 
REMARK    4  A    between atoms: C8_10  and  O2_11 
REMARK    5  A    between atoms: C12_17  and  C13_18 
REMARK    6  A    between atoms: C12_17  and  C14_21 
REMARK    7  A    between atoms: C13_18  and  O4_19 
REMARK    8  A    between atoms: C14_21  and  C15_22 
REMARK    9  A    between atoms: C16_23  and  C17_24 
REMARK   10  A    between atoms: C17_24  and  O5_27 
REMARK   11  A    between atoms: O5_27  and  C20_28 
REMARK   12  A    between atoms: C26_35  and  O7_36 
ROOT
HETATM    1  C6  UNL     1       4.952  44.807  14.633  1.00  0.00     0.094 C 
HETATM    2  C7  UNL     1       5.129  46.054  13.716  1.00  0.00     0.103 C 
HETATM    3  C8  UNL     1       4.255  47.194  14.016  1.00  0.00     0.261 C 
HETATM    4  O3  UNL     1       3.468  47.166  15.190  1.00  0.00    -0.350 OA
HETATM    5  C9  UNL     1       3.104  45.854  15.340  1.00  0.00     0.075 C 
HETATM    6  C10 UNL     1       2.442  45.525  14.098  1.00  0.00     0.047 C 
HETATM    7  C11 UNL     1       2.029  45.432  16.293  1.00  0.00     0.051 C 
HETATM    8  C12 UNL     1       2.611  44.345  17.204  1.00  0.00    -0.005 C 
HETATM    9  C22 UNL     1       3.944  44.921  17.171  1.00  0.00    -0.018 C 
HETATM   10  C23 UNL     1       3.857  46.148  18.066  1.00  0.00     0.017 C 
HETATM   11  C24 UNL     1       5.069  44.171  17.803  1.00  0.00     0.013 C 
HETATM   12  C25 UNL     1       6.087  45.277  17.526  1.00  0.00     0.033 C 
HETATM   13  C26 UNL     1       5.534  46.080  16.365  1.00  0.00     0.133 C 
HETATM   14  C27 UNL     1       4.404  45.266  15.826  1.00  0.00     0.059 C 
ENDROOT
BRANCH   8  15
HETATM   15  C13 UNL     1       1.741  44.311  18.391  1.00  0.00     0.174 C 
BRANCH  15  16
HETATM   16  O4  UNL     1       0.395  44.073  18.268  1.00  0.00    -0.400 OA
ATOM     17  H4  UNL     1       0.017  43.255  18.568  1.00  0.00     0.209 HD
ENDBRANCH  15  16
ENDBRANCH   8  15
BRANCH   8  18
HETATM   18  C14 UNL     1       2.615  42.960  16.705  1.00  0.00     0.039 C 
BRANCH  18  19
HETATM   19  C15 UNL     1       2.886  41.888  17.704  1.00  0.00    -0.027 C 
HETATM   20  C16 UNL     1       3.799  40.941  17.553  1.00  0.00     0.007 C 
BRANCH  20  21
HETATM   21  C17 UNL     1       4.046  39.896  18.553  1.00  0.00     0.081 C 
HETATM   22  C18 UNL     1       3.825  40.522  19.935  1.00  0.00     0.051 C 
HETATM   23  C19 UNL     1       5.432  39.296  18.451  1.00  0.00     0.051 C 
BRANCH  21  24
HETATM   24  O5  UNL     1       3.123  38.825  18.461  1.00  0.00    -0.307 OA
BRANCH  24  25
HETATM   25  C20 UNL     1       2.202  38.661  19.484  1.00  0.00     0.255 C 
HETATM   26  C21 UNL     1       2.370  37.589  20.524  1.00  0.00     0.126 C 
HETATM   27  O6  UNL     1       1.181  39.384  19.612  1.00  0.00    -0.266 OA
ENDBRANCH  24  25
ENDBRANCH  21  24
ENDBRANCH  20  21
ENDBRANCH  18  19
ENDBRANCH   8  18
BRANCH   1  28
HETATM   28  C5  UNL     1       6.233  44.065  14.533  1.00  0.00     0.012 C 
HETATM   29  C4  UNL     1       6.325  42.764  14.756  1.00  0.00     0.005 C 
BRANCH  29  30
HETATM   30  C2  UNL     1       7.586  42.046  14.656  1.00  0.00    -0.072 C 
HETATM   31  C1  UNL     1       8.189  41.963  13.487  1.00  0.00     0.018 C 
HETATM   32  C3  UNL     1       8.199  41.408  15.856  1.00  0.00     0.047 C 
ENDBRANCH  29  30
ENDBRANCH   1  28
BRANCH   1  33
HETATM   33  O1  UNL     1       4.232  43.920  13.774  1.00  0.00    -0.385 OA
ATOM     34  H1  UNL     1       4.072  44.572  13.102  1.00  0.00     0.211 HD
ENDBRANCH   1  33
BRANCH  13  35
HETATM   35  O7  UNL     1       6.737  46.186  15.670  1.00  0.00    -0.395 OA
ATOM     36  H7  UNL     1       6.581  47.059  15.330  1.00  0.00     0.210 HD
ENDBRANCH  13  35
BRANCH   3  37
HETATM   37  O2  UNL     1       4.902  48.462  14.010  1.00  0.00    -0.371 OA
ATOM     38  H2  UNL     1       4.320  49.207  13.921  1.00  0.00     0.212 HD
ENDBRANCH   3  37
TORSDOF 12
ENDMDL
MODEL 5
REMARK VINA RESULT: -6.588314954      1.465      1.761
REMARK  12 active torsions:
REMARK  status: ('A' for Active; 'I' for Inactive)
REMARK    1  A    between atoms: C2_2  and  C4_4 
REMARK    2  A    between atoms: C5_5  and  C6_6 
REMARK    3  A    between atoms: C6_6  and  O1_7 
REMARK    4  A    between atoms: C8_10  and  O2_11 
REMARK    5  A    between atoms: C12_17  and  C13_18 
REMARK    6  A    between atoms: C12_17  and  C14_21 
REMARK    7  A    between atoms: C13_18  and  O4_19 
REMARK    8  A    between atoms: C14_21  and  C15_22 
REMARK    9  A    between atoms: C16_23  and  C17_24 
REMARK   10  A    between atoms: C17_24  and  O5_27 
REMARK   11  A    between atoms: O5_27  and  C20_28 
REMARK   12  A    between atoms: C26_35  and  O7_36 
ROOT
HETATM    1  C6  UNL     1       5.660  44.187  15.275  1.00  0.00     0.094 C 
HETATM    2  C7  UNL     1       6.546  45.183  14.468  1.00  0.00     0.103 C 
HETATM    3  C8  UNL     1       5.872  46.400  14.001  1.00  0.00     0.261 C 
HETATM    4  O3  UNL     1       4.561  46.675  14.451  1.00  0.00    -0.350 OA
HETATM    5  C9  UNL     1       3.958  45.450  14.555  1.00  0.00     0.075 C 
HETATM    6  C10 UNL     1       4.091  44.877  13.235  1.00  0.00     0.047 C 
HETATM    7  C11 UNL     1       2.477  45.305  14.722  1.00  0.00     0.051 C 
HETATM    8  C12 UNL     1       2.228  44.429  15.955  1.00  0.00    -0.005 C 
HETATM    9  C22 UNL     1       3.410  44.922  16.641  1.00  0.00    -0.018 C 
HETATM   10  C23 UNL     1       3.034  46.324  17.098  1.00  0.00     0.017 C 
HETATM   11  C24 UNL     1       3.813  44.286  17.930  1.00  0.00     0.013 C 
HETATM   12  C25 UNL     1       4.976  45.253  18.151  1.00  0.00     0.033 C 
HETATM   13  C26 UNL     1       5.344  45.794  16.784  1.00  0.00     0.133 C 
HETATM   14  C27 UNL     1       4.613  44.930  15.809  1.00  0.00     0.059 C 
ENDROOT
BRANCH   8  15
HETATM   15  C13 UNL     1       0.842  44.706  16.368  1.00  0.00     0.174 C 
BRANCH  15  16
HETATM   16  O4  UNL     1      -0.105  45.076  15.446  1.00  0.00    -0.400 OA
ATOM     17  H4  UNL     1      -0.617  45.866  15.567  1.00  0.00     0.209 HD
ENDBRANCH  15  16
ENDBRANCH   8  15
BRANCH   8  18
HETATM   18  C14 UNL     1       2.280  42.968  15.783  1.00  0.00     0.039 C 
BRANCH  18  19
HETATM   19  C15 UNL     1       1.434  42.154  16.699  1.00  0.00    -0.027 C 
HETATM   20  C16 UNL     1       1.910  41.292  17.585  1.00  0.00     0.007 C 
BRANCH  20  21
HETATM   21  C17 UNL     1       1.053  40.501  18.476  1.00  0.00     0.081 C 
HETATM   22  C18 UNL     1       0.630  39.243  17.710  1.00  0.00     0.051 C 
HETATM   23  C19 UNL     1      -0.159  41.266  18.963  1.00  0.00     0.051 C 
BRANCH  21  24
HETATM   24  O5  UNL     1       1.742  40.040  19.626  1.00  0.00    -0.307 OA
BRANCH  24  25
HETATM   25  C20 UNL     1       3.128  40.050  19.610  1.00  0.00     0.255 C 
HETATM   26  C21 UNL     1       3.912  38.903  19.037  1.00  0.00     0.126 C 
HETATM   27  O6  UNL     1       3.814  41.001  20.065  1.00  0.00    -0.266 OA
ENDBRANCH  24  25
ENDBRANCH  21  24
ENDBRANCH  20  21
ENDBRANCH  18  19
ENDBRANCH   8  18
BRANCH   1  28
HETATM   28  C5  UNL     1       6.612  43.386  16.082  1.00  0.00     0.012 C 
HETATM   29  C4  UNL     1       6.577  42.063  16.124  1.00  0.00     0.005 C 
BRANCH  29  30
HETATM   30  C2  UNL     1       7.515  41.286  16.919  1.00  0.00    -0.072 C 
HETATM   31  C1  UNL     1       8.788  41.630  16.932  1.00  0.00     0.018 C 
HETATM   32  C3  UNL     1       7.054  40.113  17.716  1.00  0.00     0.047 C 
ENDBRANCH  29  30
ENDBRANCH   1  28
BRANCH   1  33
HETATM   33  O1  UNL     1       5.429  43.161  14.308  1.00  0.00    -0.385 OA
ATOM     34  H1  UNL     1       4.535  43.425  14.123  1.00  0.00     0.211 HD
ENDBRANCH   1  33
BRANCH  13  35
HETATM   35  O7  UNL     1       6.723  45.685  16.946  1.00  0.00    -0.395 OA
ATOM     36  H7  UNL     1       6.910  46.612  16.855  1.00  0.00     0.210 HD
ENDBRANCH  13  35
BRANCH   3  37
HETATM   37  O2  UNL     1       6.610  47.602  14.187  1.00  0.00    -0.371 OA
ATOM     38  H2  UNL     1       6.339  48.126  14.931  1.00  0.00     0.212 HD
ENDBRANCH   3  37
TORSDOF 12
ENDMDL
