MODEL 1
REMARK VINA RESULT: -9.812621698      0.000      0.000
REMARK  13 active torsions:
REMARK  status: ('A' for Active; 'I' for Inactive)
REMARK    1  A    between atoms: N1_2  and  C2_4 
REMARK    2  A    between atoms: C2_4  and  C3_5 
REMARK    3  A    between atoms: C2_4  and  C7_9 
REMARK    4  A    between atoms: C3_5  and  C4_6 
REMARK    5  A    between atoms: C7_9  and  N2_10 
REMARK    6  A    between atoms: C7_9  and  C32_39 
REMARK    7  A    between atoms: N2_10  and  C8_12 
REMARK    8  A    between atoms: C8_12  and  C9_13 
REMARK    9  A    between atoms: C9_13  and  C10_14 
REMARK   10  A    between atoms: C9_13  and  N3_22 
REMARK   11  A    between atoms: C10_14  and  C11_15 
REMARK   12  A    between atoms: C11_15  and  C12_16 
REMARK   13  A    between atoms: C22_27  and  C23_28 
REMARK       I    between atoms: C23_28  and  N4_30 
ROOT
HETATM    1  C9  UNL     1      28.557  31.274  23.096  1.00  0.00     0.118 C 
ENDROOT
BRANCH   1   2
HETATM    2  C8  UNL     1      28.149  32.604  23.628  1.00  0.00     0.086 C 
BRANCH   2   3
HETATM    3  N2  UNL     1      26.830  32.763  24.097  1.00  0.00    -0.366 N 
ATOM      4  H2  UNL     1      26.312  31.976  24.488  1.00  0.00     0.165 HD
BRANCH   3   5
HETATM    5  C7  UNL     1      26.230  34.087  24.007  1.00  0.00     0.060 C 
BRANCH   5   6
HETATM    6  C2  UNL     1      26.021  34.652  25.367  1.00  0.00     0.055 C 
BRANCH   6   7
HETATM    7  N1  UNL     1      26.894  34.289  26.368  1.00  0.00    -0.374 N 
HETATM    8  C1  UNL     1      27.512  34.991  27.349  1.00  0.00     0.118 C 
ATOM      9  H1  UNL     1      27.119  33.294  26.373  1.00  0.00     0.164 HD
ENDBRANCH   6   7
BRANCH   6  10
HETATM   10  C3  UNL     1      24.651  35.158  25.643  1.00  0.00     0.009 C 
BRANCH  10  11
HETATM   11  C4  UNL     1      24.271  36.561  25.772  1.00  0.00     0.002 C 
HETATM   12  C5  UNL     1      23.192  36.724  24.622  1.00  0.00     0.013 C 
HETATM   13  C6  UNL     1      25.334  37.571  25.286  1.00  0.00     0.013 C 
ENDBRANCH  10  11
ENDBRANCH   6  10
ENDBRANCH   5   6
BRANCH   5  14
HETATM   14  C32 UNL     1      25.258  34.073  22.933  1.00  0.00    -0.059 C 
HETATM   15  C33 UNL     1      25.064  32.810  22.138  1.00  0.00     0.045 C 
HETATM   16  C34 UNL     1      25.235  35.208  21.959  1.00  0.00     0.045 C 
ENDBRANCH   5  14
ENDBRANCH   3   5
ENDBRANCH   2   3
ENDBRANCH   1   2
BRANCH   1  17
HETATM   17  C10 UNL     1      28.435  31.375  21.559  1.00  0.00     0.031 C 
BRANCH  17  18
HETATM   18  C11 UNL     1      28.483  32.752  21.032  1.00  0.00     0.007 C 
BRANCH  18  19
HETATM   19  C12 UNL     1      28.240  32.908  19.560  1.00  0.00    -0.014 C 
HETATM   20  C13 UNL     1      27.696  31.620  19.008  1.00  0.00     0.004 C 
HETATM   21  C14 UNL     1      26.978  31.792  17.701  1.00  0.00     0.000 C 
HETATM   22  C15 UNL     1      25.831  32.751  17.764  1.00  0.00     0.000 C 
HETATM   23  C16 UNL     1      25.966  33.751  18.893  1.00  0.00     0.000 C 
HETATM   24  C17 UNL     1      27.416  34.076  19.174  1.00  0.00     0.004 C 
ENDBRANCH  18  19
ENDBRANCH  17  18
ENDBRANCH   1  17
BRANCH   1  25
HETATM   25  N3  UNL     1      29.729  30.660  23.377  1.00  0.00    -0.398 N 
HETATM   26  C18 UNL     1      29.912  29.894  24.554  1.00  0.00     0.123 C 
HETATM   27  C19 UNL     1      31.426  29.818  24.559  1.00  0.00     0.020 C 
HETATM   28  C20 UNL     1      31.705  31.342  24.429  1.00  0.00     0.033 C 
HETATM   29  C22 UNL     1      31.802  29.782  23.130  1.00  0.00     0.106 C 
HETATM   30  C21 UNL     1      31.007  31.113  23.073  1.00  0.00     0.093 C 
BRANCH  29  31
HETATM   31  C23 UNL     1      31.287  28.735  22.246  1.00  0.00     0.226 C 
HETATM   32  O1  UNL     1      30.610  28.953  21.214  1.00  0.00    -0.273 OA
HETATM   33  N4  UNL     1      31.550  27.378  22.544  1.00  0.00    -0.352 N 
HETATM   34  C24 UNL     1      31.075  26.309  21.694  1.00  0.00     0.126 C 
HETATM   35  C31 UNL     1      32.314  27.059  23.734  1.00  0.00     0.126 C 
HETATM   36  C25 UNL     1      30.046  25.521  22.459  1.00  0.00     0.029 C 
HETATM   37  C26 UNL     1      30.488  25.356  23.873  1.00  0.00    -0.037 C 
HETATM   38  C27 UNL     1      30.098  24.019  24.438  1.00  0.00     0.010 C 
HETATM   39  C29 UNL     1      29.583  26.024  24.902  1.00  0.00     0.010 C 
HETATM   40  C30 UNL     1      31.949  25.635  24.119  1.00  0.00     0.029 C 
HETATM   41  C28 UNL     1      29.568  24.726  25.664  1.00  0.00     0.002 C 
ENDBRANCH  29  31
ENDBRANCH   1  25
TORSDOF 13
ENDMDL
MODEL 2
REMARK VINA RESULT: -9.794598367      1.118      1.657
REMARK  13 active torsions:
REMARK  status: ('A' for Active; 'I' for Inactive)
REMARK    1  A    between atoms: N1_2  and  C2_4 
REMARK    2  A    between atoms: C2_4  and  C3_5 
REMARK    3  A    between atoms: C2_4  and  C7_9 
REMARK    4  A    between atoms: C3_5  and  C4_6 
REMARK    5  A    between atoms: C7_9  and  N2_10 
REMARK    6  A    between atoms: C7_9  and  C32_39 
REMARK    7  A    between atoms: N2_10  and  C8_12 
REMARK    8  A    between atoms: C8_12  and  C9_13 
REMARK    9  A    between atoms: C9_13  and  C10_14 
REMARK   10  A    between atoms: C9_13  and  N3_22 
REMARK   11  A    between atoms: C10_14  and  C11_15 
REMARK   12  A    between atoms: C11_15  and  C12_16 
REMARK   13  A    between atoms: C22_27  and  C23_28 
REMARK       I    between atoms: C23_28  and  N4_30 
ROOT
HETATM    1  C9  UNL     1      28.613  31.133  23.323  1.00  0.00     0.118 C 
ENDROOT
BRANCH   1   2
HETATM    2  C8  UNL     1      28.132  32.419  23.899  1.00  0.00     0.086 C 
BRANCH   2   3
HETATM    3  N2  UNL     1      26.743  32.619  24.029  1.00  0.00    -0.366 N 
ATOM      4  H2  UNL     1      26.112  31.834  24.189  1.00  0.00     0.165 HD
BRANCH   3   5
HETATM    5  C7  UNL     1      26.238  33.981  23.928  1.00  0.00     0.060 C 
BRANCH   5   6
HETATM    6  C2  UNL     1      26.019  34.551  25.285  1.00  0.00     0.055 C 
BRANCH   6   7
HETATM    7  N1  UNL     1      26.915  34.235  26.281  1.00  0.00    -0.374 N 
HETATM    8  C1  UNL     1      27.484  34.964  27.272  1.00  0.00     0.118 C 
ATOM      9  H1  UNL     1      27.209  33.259  26.272  1.00  0.00     0.164 HD
ENDBRANCH   6   7
BRANCH   6  10
HETATM   10  C3  UNL     1      24.630  35.001  25.569  1.00  0.00     0.009 C 
BRANCH  10  11
HETATM   11  C4  UNL     1      24.201  36.386  25.733  1.00  0.00     0.002 C 
HETATM   12  C5  UNL     1      23.166  36.558  24.545  1.00  0.00     0.013 C 
HETATM   13  C6  UNL     1      25.250  37.445  25.328  1.00  0.00     0.013 C 
ENDBRANCH  10  11
ENDBRANCH   6  10
ENDBRANCH   5   6
BRANCH   5  14
HETATM   14  C32 UNL     1      25.308  34.040  22.820  1.00  0.00    -0.059 C 
HETATM   15  C33 UNL     1      25.121  32.823  21.955  1.00  0.00     0.045 C 
HETATM   16  C34 UNL     1      25.342  35.223  21.905  1.00  0.00     0.045 C 
ENDBRANCH   5  14
ENDBRANCH   3   5
ENDBRANCH   2   3
ENDBRANCH   1   2
BRANCH   1  17
HETATM   17  C10 UNL     1      28.357  31.225  21.803  1.00  0.00     0.031 C 
BRANCH  17  18
HETATM   18  C11 UNL     1      28.623  32.551  21.217  1.00  0.00     0.007 C 
BRANCH  18  19
HETATM   19  C12 UNL     1      28.492  32.658  19.727  1.00  0.00    -0.014 C 
HETATM   20  C13 UNL     1      27.670  31.507  19.218  1.00  0.00     0.004 C 
HETATM   21  C14 UNL     1      27.075  31.757  17.862  1.00  0.00     0.000 C 
HETATM   22  C15 UNL     1      26.200  32.969  17.802  1.00  0.00     0.000 C 
HETATM   23  C16 UNL     1      26.529  33.982  18.877  1.00  0.00     0.000 C 
HETATM   24  C17 UNL     1      28.001  33.963  19.226  1.00  0.00     0.004 C 
ENDBRANCH  18  19
ENDBRANCH  17  18
ENDBRANCH   1  17
BRANCH   1  25
HETATM   25  N3  UNL     1      29.855  30.628  23.502  1.00  0.00    -0.398 N 
HETATM   26  C18 UNL     1      30.826  31.288  24.295  1.00  0.00     0.123 C 
HETATM   27  C19 UNL     1      32.065  30.555  23.819  1.00  0.00     0.020 C 
HETATM   28  C20 UNL     1      31.854  30.773  22.294  1.00  0.00     0.033 C 
HETATM   29  C22 UNL     1      31.598  29.182  23.532  1.00  0.00     0.106 C 
HETATM   30  C21 UNL     1      30.610  29.909  22.583  1.00  0.00     0.093 C 
BRANCH  29  31
HETATM   31  C23 UNL     1      30.953  28.377  24.571  1.00  0.00     0.226 C 
HETATM   32  O1  UNL     1      31.069  28.589  25.801  1.00  0.00    -0.273 OA
HETATM   33  N4  UNL     1      30.140  27.282  24.202  1.00  0.00    -0.352 N 
HETATM   34  C24 UNL     1      29.470  26.466  25.190  1.00  0.00     0.126 C 
HETATM   35  C31 UNL     1      29.980  26.973  22.793  1.00  0.00     0.126 C 
HETATM   36  C25 UNL     1      30.078  25.090  25.155  1.00  0.00     0.029 C 
HETATM   37  C26 UNL     1      30.328  24.686  23.742  1.00  0.00    -0.037 C 
HETATM   38  C27 UNL     1      30.096  23.218  23.520  1.00  0.00     0.010 C 
HETATM   39  C29 UNL     1      31.798  24.479  23.393  1.00  0.00     0.010 C 
HETATM   40  C30 UNL     1      29.599  25.506  22.708  1.00  0.00     0.029 C 
HETATM   41  C28 UNL     1      31.421  23.149  22.796  1.00  0.00     0.002 C 
ENDBRANCH  29  31
ENDBRANCH   1  25
TORSDOF 13
ENDMDL
MODEL 3
REMARK VINA RESULT: -9.494659522      2.300      5.263
REMARK  13 active torsions:
REMARK  status: ('A' for Active; 'I' for Inactive)
REMARK    1  A    between atoms: N1_2  and  C2_4 
REMARK    2  A    between atoms: C2_4  and  C3_5 
REMARK    3  A    between atoms: C2_4  and  C7_9 
REMARK    4  A    between atoms: C3_5  and  C4_6 
REMARK    5  A    between atoms: C7_9  and  N2_10 
REMARK    6  A    between atoms: C7_9  and  C32_39 
REMARK    7  A    between atoms: N2_10  and  C8_12 
REMARK    8  A    between atoms: C8_12  and  C9_13 
REMARK    9  A    between atoms: C9_13  and  C10_14 
REMARK   10  A    between atoms: C9_13  and  N3_22 
REMARK   11  A    between atoms: C10_14  and  C11_15 
REMARK   12  A    between atoms: C11_15  and  C12_16 
REMARK   13  A    between atoms: C22_27  and  C23_28 
REMARK       I    between atoms: C23_28  and  N4_30 
ROOT
HETATM    1  C9  UNL     1      29.126  31.505  20.824  1.00  0.00     0.118 C 
ENDROOT
BRANCH   1   2
HETATM    2  C8  UNL     1      28.476  32.020  19.587  1.00  0.00     0.086 C 
BRANCH   2   3
HETATM    3  N2  UNL     1      28.261  33.407  19.468  1.00  0.00    -0.366 N 
ATOM      4  H2  UNL     1      29.000  34.074  19.692  1.00  0.00     0.165 HD
BRANCH   3   5
HETATM    5  C7  UNL     1      26.953  33.857  19.016  1.00  0.00     0.060 C 
BRANCH   5   6
HETATM    6  C2  UNL     1      27.082  34.622  17.746  1.00  0.00     0.055 C 
BRANCH   6   7
HETATM    7  N1  UNL     1      27.849  35.765  17.745  1.00  0.00    -0.374 N 
HETATM    8  C1  UNL     1      27.785  36.916  17.031  1.00  0.00     0.118 C 
ATOM      9  H1  UNL     1      28.619  35.741  18.414  1.00  0.00     0.164 HD
ENDBRANCH   6   7
BRANCH   6  10
HETATM   10  C3  UNL     1      26.015  34.373  16.741  1.00  0.00     0.009 C 
BRANCH  10  11
HETATM   11  C4  UNL     1      24.774  35.131  16.611  1.00  0.00     0.002 C 
HETATM   12  C5  UNL     1      23.735  34.205  17.369  1.00  0.00     0.013 C 
HETATM   13  C6  UNL     1      24.154  35.127  15.197  1.00  0.00     0.013 C 
ENDBRANCH  10  11
ENDBRANCH   6  10
ENDBRANCH   5   6
BRANCH   5  14
HETATM   14  C32 UNL     1      26.183  34.258  20.176  1.00  0.00    -0.059 C 
HETATM   15  C33 UNL     1      26.890  34.913  21.332  1.00  0.00     0.045 C 
HETATM   16  C34 UNL     1      25.194  33.299  20.757  1.00  0.00     0.045 C 
ENDBRANCH   5  14
ENDBRANCH   3   5
ENDBRANCH   2   3
ENDBRANCH   1   2
BRANCH   1  17
HETATM   17  C10 UNL     1      28.082  30.595  21.507  1.00  0.00     0.031 C 
BRANCH  17  18
HETATM   18  C11 UNL     1      27.895  30.852  22.947  1.00  0.00     0.007 C 
BRANCH  18  19
HETATM   19  C12 UNL     1      27.695  32.283  23.346  1.00  0.00    -0.014 C 
HETATM   20  C13 UNL     1      26.283  32.472  23.827  1.00  0.00     0.004 C 
HETATM   21  C14 UNL     1      26.106  33.692  24.683  1.00  0.00     0.000 C 
HETATM   22  C15 UNL     1      26.978  33.708  25.898  1.00  0.00     0.000 C 
HETATM   23  C16 UNL     1      28.216  32.851  25.741  1.00  0.00     0.000 C 
HETATM   24  C17 UNL     1      28.689  32.819  24.305  1.00  0.00     0.004 C 
ENDBRANCH  18  19
ENDBRANCH  17  18
ENDBRANCH   1  17
BRANCH   1  25
HETATM   25  N3  UNL     1      30.316  30.863  20.857  1.00  0.00    -0.398 N 
HETATM   26  C18 UNL     1      31.547  31.563  20.839  1.00  0.00     0.123 C 
HETATM   27  C19 UNL     1      32.471  30.417  20.477  1.00  0.00     0.020 C 
HETATM   28  C20 UNL     1      31.700  29.928  19.218  1.00  0.00     0.033 C 
HETATM   29  C22 UNL     1      31.866  29.232  21.120  1.00  0.00     0.106 C 
HETATM   30  C21 UNL     1      30.624  29.635  20.283  1.00  0.00     0.093 C 
BRANCH  29  31
HETATM   31  C23 UNL     1      31.633  29.202  22.566  1.00  0.00     0.226 C 
HETATM   32  O1  UNL     1      32.185  29.972  23.386  1.00  0.00    -0.273 OA
HETATM   33  N4  UNL     1      30.734  28.255  23.108  1.00  0.00    -0.352 N 
HETATM   34  C24 UNL     1      30.460  28.194  24.526  1.00  0.00     0.126 C 
HETATM   35  C31 UNL     1      30.076  27.323  22.212  1.00  0.00     0.126 C 
HETATM   36  C25 UNL     1      31.005  26.896  25.056  1.00  0.00     0.029 C 
HETATM   37  C26 UNL     1      30.728  25.800  24.085  1.00  0.00    -0.037 C 
HETATM   38  C27 UNL     1      30.421  24.497  24.770  1.00  0.00     0.010 C 
HETATM   39  C29 UNL     1      31.971  25.158  23.480  1.00  0.00     0.010 C 
HETATM   40  C30 UNL     1      29.680  26.119  23.049  1.00  0.00     0.029 C 
HETATM   41  C28 UNL     1      31.396  23.814  23.838  1.00  0.00     0.002 C 
ENDBRANCH  29  31
ENDBRANCH   1  25
TORSDOF 13
ENDMDL
MODEL 4
REMARK VINA RESULT: -9.389216486      1.170      1.809
REMARK  13 active torsions:
REMARK  status: ('A' for Active; 'I' for Inactive)
REMARK    1  A    between atoms: N1_2  and  C2_4 
REMARK    2  A    between atoms: C2_4  and  C3_5 
REMARK    3  A    between atoms: C2_4  and  C7_9 
REMARK    4  A    between atoms: C3_5  and  C4_6 
REMARK    5  A    between atoms: C7_9  and  N2_10 
REMARK    6  A    between atoms: C7_9  and  C32_39 
REMARK    7  A    between atoms: N2_10  and  C8_12 
REMARK    8  A    between atoms: C8_12  and  C9_13 
REMARK    9  A    between atoms: C9_13  and  C10_14 
REMARK   10  A    between atoms: C9_13  and  N3_22 
REMARK   11  A    between atoms: C10_14  and  C11_15 
REMARK   12  A    between atoms: C11_15  and  C12_16 
REMARK   13  A    between atoms: C22_27  and  C23_28 
REMARK       I    between atoms: C23_28  and  N4_30 
ROOT
HETATM    1  C9  UNL     1      28.366  31.339  22.541  1.00  0.00     0.118 C 
ENDROOT
BRANCH   1   2
HETATM    2  C8  UNL     1      28.176  32.467  23.496  1.00  0.00     0.086 C 
BRANCH   2   3
HETATM    3  N2  UNL     1      26.886  32.699  24.013  1.00  0.00    -0.366 N 
ATOM      4  H2  UNL     1      26.326  31.935  24.392  1.00  0.00     0.165 HD
BRANCH   3   5
HETATM    5  C7  UNL     1      26.378  34.063  23.989  1.00  0.00     0.060 C 
BRANCH   5   6
HETATM    6  C2  UNL     1      26.345  34.625  25.367  1.00  0.00     0.055 C 
BRANCH   6   7
HETATM    7  N1  UNL     1      27.331  34.250  26.251  1.00  0.00    -0.374 N 
HETATM    8  C1  UNL     1      27.699  34.715  27.470  1.00  0.00     0.118 C 
ATOM      9  H1  UNL     1      27.896  33.466  25.924  1.00  0.00     0.164 HD
ENDBRANCH   6   7
BRANCH   6  10
HETATM   10  C3  UNL     1      25.023  35.141  25.812  1.00  0.00     0.009 C 
BRANCH  10  11
HETATM   11  C4  UNL     1      24.667  36.548  25.965  1.00  0.00     0.002 C 
HETATM   12  C5  UNL     1      23.288  36.631  25.188  1.00  0.00     0.013 C 
HETATM   13  C6  UNL     1      25.509  37.529  25.121  1.00  0.00     0.013 C 
ENDBRANCH  10  11
ENDBRANCH   6  10
ENDBRANCH   5   6
BRANCH   5  14
HETATM   14  C32 UNL     1      25.308  34.133  23.016  1.00  0.00    -0.059 C 
HETATM   15  C33 UNL     1      24.917  32.888  22.266  1.00  0.00     0.045 C 
HETATM   16  C34 UNL     1      25.296  35.258  22.029  1.00  0.00     0.045 C 
ENDBRANCH   5  14
ENDBRANCH   3   5
ENDBRANCH   2   3
ENDBRANCH   1   2
BRANCH   1  17
HETATM   17  C10 UNL     1      27.631  31.750  21.247  1.00  0.00     0.031 C 
BRANCH  17  18
HETATM   18  C11 UNL     1      28.101  33.015  20.651  1.00  0.00     0.007 C 
BRANCH  18  19
HETATM   19  C12 UNL     1      27.780  33.226  19.202  1.00  0.00    -0.014 C 
HETATM   20  C13 UNL     1      27.335  31.924  18.597  1.00  0.00     0.004 C 
HETATM   21  C14 UNL     1      26.547  32.097  17.331  1.00  0.00     0.000 C 
HETATM   22  C15 UNL     1      25.319  32.936  17.494  1.00  0.00     0.000 C 
HETATM   23  C16 UNL     1      25.411  33.882  18.673  1.00  0.00     0.000 C 
HETATM   24  C17 UNL     1      26.834  34.329  18.916  1.00  0.00     0.004 C 
ENDBRANCH  18  19
ENDBRANCH  17  18
ENDBRANCH   1  17
BRANCH   1  25
HETATM   25  N3  UNL     1      29.566  30.826  22.189  1.00  0.00    -0.398 N 
HETATM   26  C18 UNL     1      30.732  31.627  22.112  1.00  0.00     0.123 C 
HETATM   27  C19 UNL     1      31.615  30.691  21.310  1.00  0.00     0.020 C 
HETATM   28  C20 UNL     1      30.625  30.436  20.138  1.00  0.00     0.033 C 
HETATM   29  C22 UNL     1      31.214  29.336  21.744  1.00  0.00     0.106 C 
HETATM   30  C21 UNL     1      29.807  29.801  21.282  1.00  0.00     0.093 C 
BRANCH  29  31
HETATM   31  C23 UNL     1      31.287  28.948  23.153  1.00  0.00     0.226 C 
HETATM   32  O1  UNL     1      32.049  29.481  23.993  1.00  0.00    -0.273 OA
HETATM   33  N4  UNL     1      30.460  27.908  23.634  1.00  0.00    -0.352 N 
HETATM   34  C24 UNL     1      30.485  27.498  25.021  1.00  0.00     0.126 C 
HETATM   35  C31 UNL     1      29.567  27.238  22.707  1.00  0.00     0.126 C 
HETATM   36  C25 UNL     1      31.040  26.101  25.089  1.00  0.00     0.029 C 
HETATM   37  C26 UNL     1      30.492  25.287  23.968  1.00  0.00    -0.037 C 
HETATM   38  C27 UNL     1      30.249  23.858  24.368  1.00  0.00     0.010 C 
HETATM   39  C29 UNL     1      31.536  24.800  22.968  1.00  0.00     0.010 C 
HETATM   40  C30 UNL     1      29.275  25.869  23.295  1.00  0.00     0.029 C 
HETATM   41  C28 UNL     1      30.959  23.417  23.109  1.00  0.00     0.002 C 
ENDBRANCH  29  31
ENDBRANCH   1  25
TORSDOF 13
ENDMDL
MODEL 5
REMARK VINA RESULT: -9.382025404      2.175      4.776
REMARK  13 active torsions:
REMARK  status: ('A' for Active; 'I' for Inactive)
REMARK    1  A    between atoms: N1_2  and  C2_4 
REMARK    2  A    between atoms: C2_4  and  C3_5 
REMARK    3  A    between atoms: C2_4  and  C7_9 
REMARK    4  A    between atoms: C3_5  and  C4_6 
REMARK    5  A    between atoms: C7_9  and  N2_10 
REMARK    6  A    between atoms: C7_9  and  C32_39 
REMARK    7  A    between atoms: N2_10  and  C8_12 
REMARK    8  A    between atoms: C8_12  and  C9_13 
REMARK    9  A    between atoms: C9_13  and  C10_14 
REMARK   10  A    between atoms: C9_13  and  N3_22 
REMARK   11  A    between atoms: C10_14  and  C11_15 
REMARK   12  A    between atoms: C11_15  and  C12_16 
REMARK   13  A    between atoms: C22_27  and  C23_28 
REMARK       I    between atoms: C23_28  and  N4_30 
ROOT
HETATM    1  C9  UNL     1      29.581  32.186  21.128  1.00  0.00     0.118 C 
ENDROOT
BRANCH   1   2
HETATM    2  C8  UNL     1      29.173  33.077  20.005  1.00  0.00     0.086 C 
BRANCH   2   3
HETATM    3  N2  UNL     1      27.832  33.503  19.940  1.00  0.00    -0.366 N 
ATOM      4  H2  UNL     1      27.300  33.698  20.788  1.00  0.00     0.165 HD
BRANCH   3   5
HETATM    5  C7  UNL     1      27.229  33.656  18.623  1.00  0.00     0.060 C 
BRANCH   5   6
HETATM    6  C2  UNL     1      26.659  35.022  18.473  1.00  0.00     0.055 C 
BRANCH   6   7
HETATM    7  N1  UNL     1      27.439  35.998  17.894  1.00  0.00    -0.374 N 
HETATM    8  C1  UNL     1      27.241  36.831  16.843  1.00  0.00     0.118 C 
ATOM      9  H1  UNL     1      28.346  36.117  18.344  1.00  0.00     0.164 HD
ENDBRANCH   6   7
BRANCH   6  10
HETATM   10  C3  UNL     1      25.518  35.338  19.372  1.00  0.00     0.009 C 
BRANCH  10  11
HETATM   11  C4  UNL     1      24.370  36.173  19.029  1.00  0.00     0.002 C 
HETATM   12  C5  UNL     1      23.758  36.501  20.455  1.00  0.00     0.013 C 
HETATM   13  C6  UNL     1      23.181  35.417  18.396  1.00  0.00     0.013 C 
ENDBRANCH  10  11
ENDBRANCH   6  10
ENDBRANCH   5   6
BRANCH   5  14
HETATM   14  C32 UNL     1      26.566  32.415  18.279  1.00  0.00    -0.059 C 
HETATM   15  C33 UNL     1      27.240  31.464  17.328  1.00  0.00     0.045 C 
HETATM   16  C34 UNL     1      25.116  32.444  17.911  1.00  0.00     0.045 C 
ENDBRANCH   5  14
ENDBRANCH   3   5
ENDBRANCH   2   3
ENDBRANCH   1   2
BRANCH   1  17
HETATM   17  C10 UNL     1      28.275  31.575  21.681  1.00  0.00     0.031 C 
BRANCH  17  18
HETATM   18  C11 UNL     1      28.141  31.644  23.148  1.00  0.00     0.007 C 
BRANCH  18  19
HETATM   19  C12 UNL     1      26.819  32.118  23.674  1.00  0.00    -0.014 C 
HETATM   20  C13 UNL     1      27.053  33.121  24.770  1.00  0.00     0.004 C 
HETATM   21  C14 UNL     1      25.865  34.002  25.030  1.00  0.00     0.000 C 
HETATM   22  C15 UNL     1      25.413  34.774  23.831  1.00  0.00     0.000 C 
HETATM   23  C16 UNL     1      25.824  34.124  22.527  1.00  0.00     0.000 C 
HETATM   24  C17 UNL     1      25.872  32.617  22.650  1.00  0.00     0.004 C 
ENDBRANCH  18  19
ENDBRANCH  17  18
ENDBRANCH   1  17
BRANCH   1  25
HETATM   25  N3  UNL     1      30.491  31.192  21.027  1.00  0.00    -0.398 N 
HETATM   26  C18 UNL     1      31.873  31.454  20.857  1.00  0.00     0.123 C 
HETATM   27  C19 UNL     1      32.324  30.080  20.401  1.00  0.00     0.020 C 
HETATM   28  C20 UNL     1      31.297  29.904  19.247  1.00  0.00     0.033 C 
HETATM   29  C22 UNL     1      31.443  29.139  21.125  1.00  0.00     0.106 C 
HETATM   30  C21 UNL     1      30.313  29.947  20.435  1.00  0.00     0.093 C 
BRANCH  29  31
HETATM   31  C23 UNL     1      31.381  29.145  22.587  1.00  0.00     0.226 C 
HETATM   32  O1  UNL     1      32.132  29.827  23.323  1.00  0.00    -0.273 OA
HETATM   33  N4  UNL     1      30.425  28.341  23.248  1.00  0.00    -0.352 N 
HETATM   34  C24 UNL     1      30.314  28.323  24.690  1.00  0.00     0.126 C 
HETATM   35  C31 UNL     1      29.537  27.514  22.453  1.00  0.00     0.126 C 
HETATM   36  C25 UNL     1      30.723  26.960  25.177  1.00  0.00     0.029 C 
HETATM   37  C26 UNL     1      30.177  25.915  24.266  1.00  0.00    -0.037 C 
HETATM   38  C27 UNL     1      29.768  24.671  25.006  1.00  0.00     0.010 C 
HETATM   39  C29 UNL     1      31.234  25.097  23.532  1.00  0.00     0.010 C 
HETATM   40  C30 UNL     1      29.072  26.382  23.353  1.00  0.00     0.029 C 
HETATM   41  C28 UNL     1      30.516  23.852  23.980  1.00  0.00     0.002 C 
ENDBRANCH  29  31
ENDBRANCH   1  25
TORSDOF 13
ENDMDL
