MODEL 1
REMARK VINA RESULT: -10.022308113      0.000      0.000
REMARK  14 active torsions:
REMARK  status: ('A' for Active; 'I' for Inactive)
REMARK    1  A    between atoms: C2_2  and  C3_3 
REMARK    2  A    between atoms: C3_3  and  C4_4 
REMARK    3  A    between atoms: C5_5  and  C6_6 
REMARK    4  A    between atoms: C8_8  and  C9_9 
REMARK       I    between atoms: N1_16  and  C14_17 
REMARK    5  A    between atoms: C14_17  and  C15_19 
REMARK    6  A    between atoms: C15_19  and  N2_20 
REMARK    7  A    between atoms: C15_19  and  C16_24 
REMARK    8  A    between atoms: C16_24  and  C17_26 
REMARK    9  A    between atoms: C20_29  and  O5_30 
REMARK   10  A    between atoms: O5_30  and  C21_31 
REMARK   11  A    between atoms: C21_31  and  C22_32 
REMARK   12  A    between atoms: C22_32  and  C23_33 
REMARK   13  A    between atoms: C23_33  and  C24_34 
REMARK   14  A    between atoms: C24_34  and  C25_35 
ROOT
HETATM    1  C15 UNL     1      29.350  31.131  20.440  1.00  0.00     0.344 C 
ENDROOT
BRANCH   1   2
HETATM    2  C14 UNL     1      28.112  31.960  20.671  1.00  0.00     0.262 C 
HETATM    3  N1  UNL     1      27.177  32.240  19.608  1.00  0.00    -0.320 N 
HETATM    4  C10 UNL     1      25.916  32.992  19.733  1.00  0.00     0.115 C 
HETATM    5  C13 UNL     1      27.301  31.873  18.253  1.00  0.00     0.091 C 
HETATM    6  C8  UNL     1      26.040  34.224  20.558  1.00  0.00     0.118 C 
HETATM    7  C11 UNL     1      25.781  33.526  18.311  1.00  0.00     0.039 C 
HETATM    8  C5  UNL     1      25.514  35.320  19.721  1.00  0.00     0.029 C 
HETATM    9  C4  UNL     1      26.269  34.967  18.371  1.00  0.00     0.007 C 
HETATM   10  C12 UNL     1      26.509  32.596  17.486  1.00  0.00    -0.002 C 
HETATM   11  O3  UNL     1      27.965  32.378  21.833  1.00  0.00    -0.270 OA
BRANCH   6  12
HETATM   12  C9  UNL     1      25.554  34.150  21.935  1.00  0.00     0.179 C 
HETATM   13  O1  UNL     1      25.725  35.212  22.633  1.00  0.00    -0.648 OA
HETATM   14  O2  UNL     1      24.947  33.115  22.583  1.00  0.00    -0.648 OA
ENDBRANCH   6  12
BRANCH   8  15
HETATM   15  C6  UNL     1      24.116  35.415  19.400  1.00  0.00    -0.031 C 
HETATM   16  C7  UNL     1      23.185  36.262  19.745  1.00  0.00     0.007 C 
ENDBRANCH   8  15
BRANCH   9  17
HETATM   17  C3  UNL     1      25.580  35.761  17.303  1.00  0.00     0.032 C 
BRANCH  17  18
HETATM   18  C2  UNL     1      26.329  36.896  16.779  1.00  0.00    -0.036 C 
HETATM   19  C1  UNL     1      27.608  37.150  16.823  1.00  0.00     0.007 C 
ENDBRANCH  17  18
ENDBRANCH   9  17
ENDBRANCH   1   2
BRANCH   1  20
HETATM   20  N2  UNL     1      30.489  32.062  20.336  1.00  0.00    -0.059 N 
ATOM     21  H23 UNL     1      30.480  32.608  19.475  1.00  0.00     0.275 HD
ATOM     22  H22 UNL     1      30.427  32.842  20.989  1.00  0.00     0.275 HD
ATOM     23  H21 UNL     1      31.342  31.514  20.450  1.00  0.00     0.275 HD
ENDBRANCH   1  20
BRANCH   1  24
HETATM   24  C16 UNL     1      29.574  30.392  21.708  1.00  0.00     0.170 C 
HETATM   25  O4  UNL     1      28.658  29.648  22.092  1.00  0.00    -0.295 OA
BRANCH  24  26
HETATM   26  C17 UNL     1      30.769  30.445  22.567  1.00  0.00     0.058 C 
HETATM   27  C18 UNL     1      30.490  30.687  24.017  1.00  0.00     0.015 C 
HETATM   28  C19 UNL     1      31.170  29.630  24.845  1.00  0.00     0.033 C 
HETATM   29  C20 UNL     1      30.600  28.274  24.366  1.00  0.00     0.121 C 
HETATM   30  C31 UNL     1      31.289  28.018  23.059  1.00  0.00     0.033 C 
HETATM   31  C32 UNL     1      31.677  29.255  22.325  1.00  0.00     0.015 C 
BRANCH  29  32
HETATM   32  O5  UNL     1      30.802  27.335  25.344  1.00  0.00    -0.386 OA
BRANCH  32  33
HETATM   33  C21 UNL     1      32.012  26.697  25.144  1.00  0.00     0.168 C 
BRANCH  33  34
HETATM   34  C22 UNL     1      31.995  25.284  25.608  1.00  0.00     0.026 C 
BRANCH  34  35
HETATM   35  C23 UNL     1      32.913  24.419  24.802  1.00  0.00     0.002 C 
BRANCH  35  36
HETATM   36  C24 UNL     1      32.120  23.700  23.734  1.00  0.00     0.005 C 
BRANCH  36  37
HETATM   37  C25 UNL     1      30.829  24.436  23.393  1.00  0.00    -0.014 C 
HETATM   38  C26 UNL     1      30.710  24.460  21.896  1.00  0.00     0.004 C 
HETATM   39  C27 UNL     1      29.322  24.780  21.418  1.00  0.00     0.000 C 
HETATM   40  C28 UNL     1      28.508  25.276  22.576  1.00  0.00     0.000 C 
HETATM   41  C29 UNL     1      28.345  24.135  23.550  1.00  0.00     0.000 C 
HETATM   42  C30 UNL     1      29.704  23.781  24.097  1.00  0.00     0.004 C 
ENDBRANCH  36  37
ENDBRANCH  35  36
ENDBRANCH  34  35
ENDBRANCH  33  34
ENDBRANCH  32  33
ENDBRANCH  29  32
ENDBRANCH  24  26
ENDBRANCH   1  24
TORSDOF 14
ENDMDL
MODEL 2
REMARK VINA RESULT: -9.898605578      0.948      1.458
REMARK  14 active torsions:
REMARK  status: ('A' for Active; 'I' for Inactive)
REMARK    1  A    between atoms: C2_2  and  C3_3 
REMARK    2  A    between atoms: C3_3  and  C4_4 
REMARK    3  A    between atoms: C5_5  and  C6_6 
REMARK    4  A    between atoms: C8_8  and  C9_9 
REMARK       I    between atoms: N1_16  and  C14_17 
REMARK    5  A    between atoms: C14_17  and  C15_19 
REMARK    6  A    between atoms: C15_19  and  N2_20 
REMARK    7  A    between atoms: C15_19  and  C16_24 
REMARK    8  A    between atoms: C16_24  and  C17_26 
REMARK    9  A    between atoms: C20_29  and  O5_30 
REMARK   10  A    between atoms: O5_30  and  C21_31 
REMARK   11  A    between atoms: C21_31  and  C22_32 
REMARK   12  A    between atoms: C22_32  and  C23_33 
REMARK   13  A    between atoms: C23_33  and  C24_34 
REMARK   14  A    between atoms: C24_34  and  C25_35 
ROOT
HETATM    1  C15 UNL     1      28.849  32.050  19.987  1.00  0.00     0.344 C 
ENDROOT
BRANCH   1   2
HETATM    2  C14 UNL     1      27.605  32.813  20.362  1.00  0.00     0.262 C 
HETATM    3  N1  UNL     1      26.534  33.031  19.418  1.00  0.00    -0.320 N 
HETATM    4  C10 UNL     1      25.259  33.715  19.691  1.00  0.00     0.115 C 
HETATM    5  C13 UNL     1      26.514  32.654  18.061  1.00  0.00     0.091 C 
HETATM    6  C8  UNL     1      25.413  34.961  20.489  1.00  0.00     0.118 C 
HETATM    7  C11 UNL     1      24.924  34.224  18.293  1.00  0.00     0.039 C 
HETATM    8  C5  UNL     1      24.731  36.018  19.716  1.00  0.00     0.029 C 
HETATM    9  C4  UNL     1      25.336  35.690  18.287  1.00  0.00     0.007 C 
HETATM   10  C12 UNL     1      25.597  33.325  17.392  1.00  0.00    -0.002 C 
HETATM   11  O3  UNL     1      27.577  33.237  21.531  1.00  0.00    -0.270 OA
BRANCH   6  12
HETATM   12  C9  UNL     1      25.102  34.878  21.915  1.00  0.00     0.179 C 
HETATM   13  O1  UNL     1      24.723  33.724  22.325  1.00  0.00    -0.648 OA
HETATM   14  O2  UNL     1      25.158  35.849  22.870  1.00  0.00    -0.648 OA
ENDBRANCH   6  12
BRANCH   8  15
HETATM   15  C6  UNL     1      23.302  36.033  19.566  1.00  0.00    -0.031 C 
HETATM   16  C7  UNL     1      22.370  36.810  20.051  1.00  0.00     0.007 C 
ENDBRANCH   8  15
BRANCH   9  17
HETATM   17  C3  UNL     1      24.481  36.433  17.306  1.00  0.00     0.032 C 
BRANCH  17  18
HETATM   18  C2  UNL     1      25.182  37.379  16.448  1.00  0.00    -0.036 C 
HETATM   19  C1  UNL     1      26.462  37.576  16.285  1.00  0.00     0.007 C 
ENDBRANCH  17  18
ENDBRANCH   9  17
ENDBRANCH   1   2
BRANCH   1  20
HETATM   20  N2  UNL     1      29.990  32.976  20.117  1.00  0.00    -0.059 N 
ATOM     21  H23 UNL     1      29.912  33.792  19.510  1.00  0.00     0.275 HD
ATOM     22  H22 UNL     1      29.999  33.473  21.007  1.00  0.00     0.275 HD
ATOM     23  H21 UNL     1      30.840  32.437  19.953  1.00  0.00     0.275 HD
ENDBRANCH   1  20
BRANCH   1  24
HETATM   24  C16 UNL     1      29.042  31.051  21.068  1.00  0.00     0.170 C 
HETATM   25  O4  UNL     1      28.112  30.254  21.267  1.00  0.00    -0.295 OA
BRANCH  24  26
HETATM   26  C17 UNL     1      30.221  30.901  21.938  1.00  0.00     0.058 C 
HETATM   27  C18 UNL     1      29.921  30.879  23.405  1.00  0.00     0.015 C 
HETATM   28  C19 UNL     1      30.550  29.663  24.029  1.00  0.00     0.033 C 
HETATM   29  C20 UNL     1      29.947  28.441  23.298  1.00  0.00     0.121 C 
HETATM   30  C31 UNL     1      30.653  28.408  21.975  1.00  0.00     0.033 C 
HETATM   31  C32 UNL     1      31.096  29.746  21.491  1.00  0.00     0.015 C 
BRANCH  29  32
HETATM   32  O5  UNL     1      30.099  27.329  24.086  1.00  0.00    -0.386 OA
BRANCH  32  33
HETATM   33  C21 UNL     1      30.970  27.602  25.125  1.00  0.00     0.168 C 
BRANCH  33  34
HETATM   34  C22 UNL     1      32.137  26.679  25.146  1.00  0.00     0.026 C 
BRANCH  34  35
HETATM   35  C23 UNL     1      31.752  25.301  25.584  1.00  0.00     0.002 C 
BRANCH  35  36
HETATM   36  C24 UNL     1      32.310  24.288  24.609  1.00  0.00     0.005 C 
BRANCH  36  37
HETATM   37  C25 UNL     1      31.281  23.881  23.561  1.00  0.00    -0.014 C 
HETATM   38  C26 UNL     1      29.926  23.978  24.203  1.00  0.00     0.004 C 
HETATM   39  C27 UNL     1      28.801  24.006  23.208  1.00  0.00     0.000 C 
HETATM   40  C28 UNL     1      29.333  23.633  21.857  1.00  0.00     0.000 C 
HETATM   41  C29 UNL     1      30.285  24.719  21.418  1.00  0.00     0.000 C 
HETATM   42  C30 UNL     1      31.462  24.726  22.359  1.00  0.00     0.004 C 
ENDBRANCH  36  37
ENDBRANCH  35  36
ENDBRANCH  34  35
ENDBRANCH  33  34
ENDBRANCH  32  33
ENDBRANCH  29  32
ENDBRANCH  24  26
ENDBRANCH   1  24
TORSDOF 14
ENDMDL
MODEL 3
REMARK VINA RESULT: -9.765480721      4.132     10.409
REMARK  14 active torsions:
REMARK  status: ('A' for Active; 'I' for Inactive)
REMARK    1  A    between atoms: C2_2  and  C3_3 
REMARK    2  A    between atoms: C3_3  and  C4_4 
REMARK    3  A    between atoms: C5_5  and  C6_6 
REMARK    4  A    between atoms: C8_8  and  C9_9 
REMARK       I    between atoms: N1_16  and  C14_17 
REMARK    5  A    between atoms: C14_17  and  C15_19 
REMARK    6  A    between atoms: C15_19  and  N2_20 
REMARK    7  A    between atoms: C15_19  and  C16_24 
REMARK    8  A    between atoms: C16_24  and  C17_26 
REMARK    9  A    between atoms: C20_29  and  O5_30 
REMARK   10  A    between atoms: O5_30  and  C21_31 
REMARK   11  A    between atoms: C21_31  and  C22_32 
REMARK   12  A    between atoms: C22_32  and  C23_33 
REMARK   13  A    between atoms: C23_33  and  C24_34 
REMARK   14  A    between atoms: C24_34  and  C25_35 
ROOT
HETATM    1  C15 UNL     1      24.797  34.194  24.245  1.00  0.00     0.344 C 
ENDROOT
BRANCH   1   2
HETATM    2  C14 UNL     1      26.027  33.456  23.786  1.00  0.00     0.262 C 
HETATM    3  N1  UNL     1      26.691  33.783  22.547  1.00  0.00    -0.320 N 
HETATM    4  C10 UNL     1      27.923  33.164  22.029  1.00  0.00     0.115 C 
HETATM    5  C13 UNL     1      26.279  34.733  21.591  1.00  0.00     0.091 C 
HETATM    6  C8  UNL     1      27.949  31.683  22.173  1.00  0.00     0.118 C 
HETATM    7  C11 UNL     1      27.719  33.373  20.532  1.00  0.00     0.039 C 
HETATM    8  C5  UNL     1      28.238  31.154  20.826  1.00  0.00     0.029 C 
HETATM    9  C4  UNL     1      27.212  32.039  20.002  1.00  0.00     0.007 C 
HETATM   10  C12 UNL     1      26.855  34.520  20.425  1.00  0.00    -0.002 C 
HETATM   11  O3  UNL     1      26.418  32.554  24.548  1.00  0.00    -0.270 OA
BRANCH   6  12
HETATM   12  C9  UNL     1      28.732  31.139  23.281  1.00  0.00     0.179 C 
HETATM   13  O1  UNL     1      28.809  29.860  23.321  1.00  0.00    -0.648 OA
HETATM   14  O2  UNL     1      29.393  31.796  24.277  1.00  0.00    -0.648 OA
ENDBRANCH   6  12
BRANCH   8  15
HETATM   15  C6  UNL     1      29.525  31.333  20.210  1.00  0.00    -0.031 C 
HETATM   16  C7  UNL     1      30.590  30.580  20.153  1.00  0.00     0.007 C 
ENDBRANCH   8  15
BRANCH   9  17
HETATM   17  C3  UNL     1      27.618  31.898  18.566  1.00  0.00     0.032 C 
BRANCH  17  18
HETATM   18  C2  UNL     1      26.556  32.094  17.588  1.00  0.00    -0.036 C 
HETATM   19  C1  UNL     1      25.335  32.527  17.749  1.00  0.00     0.007 C 
ENDBRANCH  17  18
ENDBRANCH   9  17
ENDBRANCH   1   2
BRANCH   1  20
HETATM   20  N2  UNL     1      24.218  33.431  25.366  1.00  0.00    -0.059 N 
ATOM     21  H23 UNL     1      24.893  33.235  26.105  1.00  0.00     0.275 HD
ATOM     22  H22 UNL     1      23.565  33.978  25.926  1.00  0.00     0.275 HD
ATOM     23  H21 UNL     1      23.799  32.587  24.976  1.00  0.00     0.275 HD
ENDBRANCH   1  20
BRANCH   1  24
HETATM   24  C16 UNL     1      25.294  35.453  24.855  1.00  0.00     0.170 C 
HETATM   25  O4  UNL     1      25.994  35.345  25.874  1.00  0.00    -0.295 OA
BRANCH  24  26
HETATM   26  C17 UNL     1      25.045  36.827  24.383  1.00  0.00     0.058 C 
HETATM   27  C18 UNL     1      24.371  36.920  23.049  1.00  0.00     0.015 C 
HETATM   28  C19 UNL     1      23.161  37.806  23.158  1.00  0.00     0.033 C 
HETATM   29  C20 UNL     1      22.245  37.159  24.223  1.00  0.00     0.121 C 
HETATM   30  C31 UNL     1      22.895  37.499  25.532  1.00  0.00     0.033 C 
HETATM   31  C32 UNL     1      24.373  37.666  25.451  1.00  0.00     0.015 C 
BRANCH  29  32
HETATM   32  O5  UNL     1      20.966  37.620  24.052  1.00  0.00    -0.386 OA
BRANCH  32  33
HETATM   33  C21 UNL     1      20.949  38.627  23.104  1.00  0.00     0.168 C 
BRANCH  33  34
HETATM   34  C22 UNL     1      19.888  38.427  22.080  1.00  0.00     0.026 C 
BRANCH  34  35
HETATM   35  C23 UNL     1      20.317  38.912  20.730  1.00  0.00     0.002 C 
BRANCH  35  36
HETATM   36  C24 UNL     1      20.123  37.809  19.714  1.00  0.00     0.005 C 
BRANCH  36  37
HETATM   37  C25 UNL     1      21.357  36.923  19.596  1.00  0.00    -0.014 C 
HETATM   38  C26 UNL     1      21.172  36.058  18.381  1.00  0.00     0.004 C 
HETATM   39  C27 UNL     1      22.451  35.432  17.901  1.00  0.00     0.000 C 
HETATM   40  C28 UNL     1      23.508  35.614  18.949  1.00  0.00     0.000 C 
HETATM   41  C29 UNL     1      23.800  37.090  19.060  1.00  0.00     0.000 C 
HETATM   42  C30 UNL     1      22.563  37.782  19.572  1.00  0.00     0.004 C 
ENDBRANCH  36  37
ENDBRANCH  35  36
ENDBRANCH  34  35
ENDBRANCH  33  34
ENDBRANCH  32  33
ENDBRANCH  29  32
ENDBRANCH  24  26
ENDBRANCH   1  24
TORSDOF 14
ENDMDL
MODEL 4
REMARK VINA RESULT: -9.747678938      1.170      2.335
REMARK  14 active torsions:
REMARK  status: ('A' for Active; 'I' for Inactive)
REMARK    1  A    between atoms: C2_2  and  C3_3 
REMARK    2  A    between atoms: C3_3  and  C4_4 
REMARK    3  A    between atoms: C5_5  and  C6_6 
REMARK    4  A    between atoms: C8_8  and  C9_9 
REMARK       I    between atoms: N1_16  and  C14_17 
REMARK    5  A    between atoms: C14_17  and  C15_19 
REMARK    6  A    between atoms: C15_19  and  N2_20 
REMARK    7  A    between atoms: C15_19  and  C16_24 
REMARK    8  A    between atoms: C16_24  and  C17_26 
REMARK    9  A    between atoms: C20_29  and  O5_30 
REMARK   10  A    between atoms: O5_30  and  C21_31 
REMARK   11  A    between atoms: C21_31  and  C22_32 
REMARK   12  A    between atoms: C22_32  and  C23_33 
REMARK   13  A    between atoms: C23_33  and  C24_34 
REMARK   14  A    between atoms: C24_34  and  C25_35 
ROOT
HETATM    1  C15 UNL     1      28.814  32.136  19.995  1.00  0.00     0.344 C 
ENDROOT
BRANCH   1   2
HETATM    2  C14 UNL     1      27.563  32.885  20.377  1.00  0.00     0.262 C 
HETATM    3  N1  UNL     1      26.491  33.104  19.436  1.00  0.00    -0.320 N 
HETATM    4  C10 UNL     1      25.210  33.775  19.716  1.00  0.00     0.115 C 
HETATM    5  C13 UNL     1      26.474  32.743  18.074  1.00  0.00     0.091 C 
HETATM    6  C8  UNL     1      25.355  35.014  20.528  1.00  0.00     0.118 C 
HETATM    7  C11 UNL     1      24.872  34.297  18.324  1.00  0.00     0.039 C 
HETATM    8  C5  UNL     1      24.664  36.074  19.767  1.00  0.00     0.029 C 
HETATM    9  C4  UNL     1      25.272  35.766  18.334  1.00  0.00     0.007 C 
HETATM   10  C12 UNL     1      25.552  33.414  17.413  1.00  0.00    -0.002 C 
HETATM   11  O3  UNL     1      27.531  33.295  21.551  1.00  0.00    -0.270 OA
BRANCH   6  12
HETATM   12  C9  UNL     1      25.044  34.911  21.953  1.00  0.00     0.179 C 
HETATM   13  O1  UNL     1      24.669  33.751  22.349  1.00  0.00    -0.648 OA
HETATM   14  O2  UNL     1      25.095  35.872  22.920  1.00  0.00    -0.648 OA
ENDBRANCH   6  12
BRANCH   8  15
HETATM   15  C6  UNL     1      23.235  36.079  19.617  1.00  0.00    -0.031 C 
HETATM   16  C7  UNL     1      22.303  36.885  20.051  1.00  0.00     0.007 C 
ENDBRANCH   8  15
BRANCH   9  17
HETATM   17  C3  UNL     1      24.411  36.514  17.361  1.00  0.00     0.032 C 
BRANCH  17  18
HETATM   18  C2  UNL     1      25.108  37.461  16.501  1.00  0.00    -0.036 C 
HETATM   19  C1  UNL     1      26.385  37.609  16.277  1.00  0.00     0.007 C 
ENDBRANCH  17  18
ENDBRANCH   9  17
ENDBRANCH   1   2
BRANCH   1  20
HETATM   20  N2  UNL     1      29.955  33.042  20.217  1.00  0.00    -0.059 N 
ATOM     21  H23 UNL     1      30.278  33.494  19.361  1.00  0.00     0.275 HD
ATOM     22  H22 UNL     1      29.699  33.889  20.725  1.00  0.00     0.275 HD
ATOM     23  H21 UNL     1      30.686  32.504  20.682  1.00  0.00     0.275 HD
ENDBRANCH   1  20
BRANCH   1  24
HETATM   24  C16 UNL     1      28.966  31.070  21.017  1.00  0.00     0.170 C 
HETATM   25  O4  UNL     1      28.038  30.253  21.118  1.00  0.00    -0.295 OA
BRANCH  24  26
HETATM   26  C17 UNL     1      30.103  30.875  21.934  1.00  0.00     0.058 C 
HETATM   27  C18 UNL     1      29.792  30.076  23.160  1.00  0.00     0.015 C 
HETATM   28  C19 UNL     1      30.782  28.951  23.293  1.00  0.00     0.033 C 
HETATM   29  C20 UNL     1      30.653  28.106  22.004  1.00  0.00     0.121 C 
HETATM   30  C31 UNL     1      31.360  28.910  20.955  1.00  0.00     0.033 C 
HETATM   31  C32 UNL     1      31.331  30.380  21.195  1.00  0.00     0.015 C 
BRANCH  29  32
HETATM   32  O5  UNL     1      31.155  26.853  22.240  1.00  0.00    -0.386 OA
BRANCH  32  33
HETATM   33  C21 UNL     1      30.433  25.912  21.528  1.00  0.00     0.168 C 
BRANCH  33  34
HETATM   34  C22 UNL     1      29.115  25.616  22.149  1.00  0.00     0.026 C 
BRANCH  34  35
HETATM   35  C23 UNL     1      28.977  24.169  22.505  1.00  0.00     0.002 C 
BRANCH  35  36
HETATM   36  C24 UNL     1      28.749  24.036  23.994  1.00  0.00     0.005 C 
BRANCH  36  37
HETATM   37  C25 UNL     1      30.048  24.164  24.781  1.00  0.00    -0.014 C 
HETATM   38  C26 UNL     1      31.158  23.679  23.894  1.00  0.00     0.004 C 
HETATM   39  C27 UNL     1      32.520  24.113  24.360  1.00  0.00     0.000 C 
HETATM   40  C28 UNL     1      32.408  24.666  25.749  1.00  0.00     0.000 C 
HETATM   41  C29 UNL     1      31.585  25.929  25.679  1.00  0.00     0.000 C 
HETATM   42  C30 UNL     1      30.188  25.562  25.248  1.00  0.00     0.004 C 
ENDBRANCH  36  37
ENDBRANCH  35  36
ENDBRANCH  34  35
ENDBRANCH  33  34
ENDBRANCH  32  33
ENDBRANCH  29  32
ENDBRANCH  24  26
ENDBRANCH   1  24
TORSDOF 14
ENDMDL
MODEL 5
REMARK VINA RESULT: -9.729539312      1.939      2.864
REMARK  14 active torsions:
REMARK  status: ('A' for Active; 'I' for Inactive)
REMARK    1  A    between atoms: C2_2  and  C3_3 
REMARK    2  A    between atoms: C3_3  and  C4_4 
REMARK    3  A    between atoms: C5_5  and  C6_6 
REMARK    4  A    between atoms: C8_8  and  C9_9 
REMARK       I    between atoms: N1_16  and  C14_17 
REMARK    5  A    between atoms: C14_17  and  C15_19 
REMARK    6  A    between atoms: C15_19  and  N2_20 
REMARK    7  A    between atoms: C15_19  and  C16_24 
REMARK    8  A    between atoms: C16_24  and  C17_26 
REMARK    9  A    between atoms: C20_29  and  O5_30 
REMARK   10  A    between atoms: O5_30  and  C21_31 
REMARK   11  A    between atoms: C21_31  and  C22_32 
REMARK   12  A    between atoms: C22_32  and  C23_33 
REMARK   13  A    between atoms: C23_33  and  C24_34 
REMARK   14  A    between atoms: C24_34  and  C25_35 
ROOT
HETATM    1  C15 UNL     1      29.216  31.827  20.176  1.00  0.00     0.344 C 
ENDROOT
BRANCH   1   2
HETATM    2  C14 UNL     1      28.312  32.223  21.314  1.00  0.00     0.262 C 
HETATM    3  N1  UNL     1      26.928  32.575  21.098  1.00  0.00    -0.320 N 
HETATM    4  C10 UNL     1      25.947  32.927  22.138  1.00  0.00     0.115 C 
HETATM    5  C13 UNL     1      26.265  32.673  19.859  1.00  0.00     0.091 C 
HETATM    6  C8  UNL     1      26.486  33.845  23.177  1.00  0.00     0.118 C 
HETATM    7  C11 UNL     1      25.007  33.814  21.329  1.00  0.00     0.039 C 
HETATM    8  C5  UNL     1      25.546  34.982  23.234  1.00  0.00     0.029 C 
HETATM    9  C4  UNL     1      25.401  35.244  21.676  1.00  0.00     0.007 C 
HETATM   10  C12 UNL     1      25.156  33.380  19.964  1.00  0.00    -0.002 C 
HETATM   11  O3  UNL     1      28.845  32.224  22.438  1.00  0.00    -0.270 OA
BRANCH   6  12
HETATM   12  C9  UNL     1      26.879  33.246  24.451  1.00  0.00     0.179 C 
HETATM   13  O1  UNL     1      26.765  31.970  24.514  1.00  0.00    -0.648 OA
HETATM   14  O2  UNL     1      27.349  33.847  25.581  1.00  0.00    -0.648 OA
ENDBRANCH   6  12
BRANCH   8  15
HETATM   15  C6  UNL     1      24.214  34.828  23.752  1.00  0.00    -0.031 C 
HETATM   16  C7  UNL     1      23.733  34.824  24.966  1.00  0.00     0.007 C 
ENDBRANCH   8  15
BRANCH   9  17
HETATM   17  C3  UNL     1      24.203  36.131  21.525  1.00  0.00     0.032 C 
BRANCH  17  18
HETATM   18  C2  UNL     1      23.823  36.451  20.155  1.00  0.00    -0.036 C 
HETATM   19  C1  UNL     1      22.657  36.756  19.656  1.00  0.00     0.007 C 
ENDBRANCH  17  18
ENDBRANCH   9  17
ENDBRANCH   1   2
BRANCH   1  20
HETATM   20  N2  UNL     1      29.938  33.038  19.745  1.00  0.00    -0.059 N 
ATOM     21  H23 UNL     1      29.918  33.176  18.735  1.00  0.00     0.275 HD
ATOM     22  H22 UNL     1      29.459  33.900  20.005  1.00  0.00     0.275 HD
ATOM     23  H21 UNL     1      30.884  32.979  20.120  1.00  0.00     0.275 HD
ENDBRANCH   1  20
BRANCH   1  24
HETATM   24  C16 UNL     1      30.256  30.956  20.780  1.00  0.00     0.170 C 
HETATM   25  O4  UNL     1      31.298  31.510  21.163  1.00  0.00    -0.295 OA
BRANCH  24  26
HETATM   26  C17 UNL     1      30.188  29.497  20.975  1.00  0.00     0.058 C 
HETATM   27  C18 UNL     1      31.494  28.781  20.821  1.00  0.00     0.015 C 
HETATM   28  C19 UNL     1      31.745  27.926  22.033  1.00  0.00     0.033 C 
HETATM   29  C20 UNL     1      31.752  28.886  23.246  1.00  0.00     0.121 C 
HETATM   30  C31 UNL     1      30.305  29.200  23.485  1.00  0.00     0.033 C 
HETATM   31  C32 UNL     1      29.462  29.143  22.258  1.00  0.00     0.015 C 
BRANCH  29  32
HETATM   32  O5  UNL     1      32.414  28.287  24.286  1.00  0.00    -0.386 OA
BRANCH  32  33
HETATM   33  C21 UNL     1      32.096  26.942  24.337  1.00  0.00     0.168 C 
BRANCH  33  34
HETATM   34  C22 UNL     1      31.729  26.495  25.707  1.00  0.00     0.026 C 
BRANCH  34  35
HETATM   35  C23 UNL     1      31.514  25.015  25.774  1.00  0.00     0.002 C 
BRANCH  35  36
HETATM   36  C24 UNL     1      30.034  24.716  25.696  1.00  0.00     0.005 C 
BRANCH  36  37
HETATM   37  C25 UNL     1      29.609  24.309  24.291  1.00  0.00    -0.014 C 
HETATM   38  C26 UNL     1      28.935  25.497  23.665  1.00  0.00     0.004 C 
HETATM   39  C27 UNL     1      28.826  25.396  22.170  1.00  0.00     0.000 C 
HETATM   40  C28 UNL     1      29.162  23.996  21.748  1.00  0.00     0.000 C 
HETATM   41  C29 UNL     1      30.618  23.755  22.063  1.00  0.00     0.000 C 
HETATM   42  C30 UNL     1      30.795  23.809  23.559  1.00  0.00     0.004 C 
ENDBRANCH  36  37
ENDBRANCH  35  36
ENDBRANCH  34  35
ENDBRANCH  33  34
ENDBRANCH  32  33
ENDBRANCH  29  32
ENDBRANCH  24  26
ENDBRANCH   1  24
TORSDOF 14
ENDMDL
