MODEL 1
REMARK VINA RESULT: -9.959764531      0.000      0.000
REMARK  15 active torsions:
REMARK  status: ('A' for Active; 'I' for Inactive)
REMARK    1  A    between atoms: C2_2  and  C4_4 
REMARK    2  A    between atoms: C4_4  and  N1_5 
REMARK    3  A    between atoms: C4_4  and  C5_9 
REMARK    4  A    between atoms: C5_9  and  C6_10 
REMARK    5  A    between atoms: C5_9  and  N2_17 
REMARK    6  A    between atoms: C6_10  and  C7_11 
REMARK       I    between atoms: N2_17  and  C13_19 
REMARK    7  A    between atoms: C13_19  and  O2_21 
REMARK    8  A    between atoms: O2_21  and  C14_22 
REMARK    9  A    between atoms: C14_22  and  C15_23 
REMARK   10  A    between atoms: C15_23  and  C16_24 
REMARK   11  A    between atoms: C15_23  and  C24_33 
REMARK   12  A    between atoms: C15_23  and  C30_39 
REMARK   13  A    between atoms: C16_24  and  O3_25 
REMARK   14  A    between atoms: O3_25  and  C17_26 
REMARK   15  A    between atoms: C17_26  and  C18_27 
ROOT
HETATM    1  C14 UNL     1      28.427  29.663  22.388  1.00  0.00     0.202 C 
ENDROOT
BRANCH   1   2
HETATM    2  O2  UNL     1      28.303  30.394  23.595  1.00  0.00    -0.303 OA
BRANCH   2   3
HETATM    3  C13 UNL     1      28.070  31.766  23.645  1.00  0.00     0.360 C 
HETATM    4  N2  UNL     1      27.108  32.396  22.830  1.00  0.00    -0.330 N 
ATOM      5  H2  UNL     1      26.591  31.786  22.196  1.00  0.00     0.165 HD
HETATM    6  O1  UNL     1      28.802  32.371  24.486  1.00  0.00    -0.239 OA
BRANCH   4   7
HETATM    7  C5  UNL     1      26.774  33.765  22.782  1.00  0.00     0.121 C 
BRANCH   7   8
HETATM    8  C4  UNL     1      25.386  34.079  23.310  1.00  0.00     0.209 C 
BRANCH   8   9
HETATM    9  C2  UNL     1      25.141  35.558  23.410  1.00  0.00     0.010 C 
HETATM   10  C1  UNL     1      23.875  35.982  22.723  1.00  0.00     0.011 C 
HETATM   11  C3  UNL     1      25.008  35.916  24.884  1.00  0.00     0.011 C 
ENDBRANCH   8   9
BRANCH   8  12
HETATM   12  N1  UNL     1      25.039  33.417  24.519  1.00  0.00    -0.073 N 
ATOM     13  H13 UNL     1      25.758  33.538  25.232  1.00  0.00     0.274 HD
ATOM     14  H12 UNL     1      24.267  33.885  24.994  1.00  0.00     0.274 HD
ATOM     15  H11 UNL     1      24.835  32.431  24.355  1.00  0.00     0.274 HD
ENDBRANCH   8  12
ENDBRANCH   7   8
BRANCH   7  16
HETATM   16  C6  UNL     1      26.928  34.482  21.480  1.00  0.00     0.065 C 
BRANCH  16  17
HETATM   17  C7  UNL     1      26.754  33.674  20.273  1.00  0.00    -0.056 A 
HETATM   18  C8  UNL     1      25.556  33.796  19.572  1.00  0.00     0.007 A 
HETATM   19  C9  UNL     1      25.303  33.065  18.431  1.00  0.00     0.001 A 
HETATM   20  C10 UNL     1      26.227  32.183  17.942  1.00  0.00     0.000 A 
HETATM   21  C11 UNL     1      27.420  32.043  18.617  1.00  0.00     0.001 A 
HETATM   22  C12 UNL     1      27.657  32.777  19.750  1.00  0.00     0.007 A 
ENDBRANCH  16  17
ENDBRANCH   7  16
ENDBRANCH   4   7
ENDBRANCH   2   3
ENDBRANCH   1   2
BRANCH   1  23
HETATM   23  C15 UNL     1      29.731  28.863  22.546  1.00  0.00     0.057 C 
BRANCH  23  24
HETATM   24  C16 UNL     1      30.305  29.264  23.858  1.00  0.00     0.189 C 
BRANCH  24  25
HETATM   25  O3  UNL     1      31.619  28.931  24.073  1.00  0.00    -0.385 OA
BRANCH  25  26
HETATM   26  C17 UNL     1      31.733  28.250  25.267  1.00  0.00     0.206 C 
BRANCH  26  27
HETATM   27  C18 UNL     1      31.579  26.800  25.145  1.00  0.00    -0.035 A 
HETATM   28  C19 UNL     1      30.592  26.052  25.723  1.00  0.00     0.009 A 
HETATM   29  C20 UNL     1      30.544  24.682  25.539  1.00  0.00     0.001 A 
HETATM   30  C21 UNL     1      31.515  24.053  24.756  1.00  0.00     0.000 A 
HETATM   31  C22 UNL     1      32.518  24.785  24.164  1.00  0.00     0.001 A 
HETATM   32  C23 UNL     1      32.531  26.133  24.369  1.00  0.00     0.009 A 
ENDBRANCH  26  27
ENDBRANCH  25  26
ENDBRANCH  24  25
ENDBRANCH  23  24
BRANCH  23  33
HETATM   33  C24 UNL     1      30.583  29.311  21.401  1.00  0.00    -0.041 A 
HETATM   34  C25 UNL     1      30.128  30.386  20.642  1.00  0.00     0.008 A 
HETATM   35  C26 UNL     1      30.869  30.841  19.585  1.00  0.00     0.001 A 
HETATM   36  C27 UNL     1      32.068  30.253  19.251  1.00  0.00     0.000 A 
HETATM   37  C28 UNL     1      32.522  29.192  19.995  1.00  0.00     0.001 A 
HETATM   38  C29 UNL     1      31.773  28.735  21.060  1.00  0.00     0.008 A 
ENDBRANCH  23  33
BRANCH  23  39
HETATM   39  C30 UNL     1      29.494  27.414  22.423  1.00  0.00    -0.041 A 
HETATM   40  C31 UNL     1      30.353  26.619  21.689  1.00  0.00     0.008 A 
HETATM   41  C32 UNL     1      30.187  25.258  21.539  1.00  0.00     0.001 A 
HETATM   42  C33 UNL     1      29.088  24.697  22.173  1.00  0.00     0.000 A 
HETATM   43  C34 UNL     1      28.227  25.487  22.906  1.00  0.00     0.001 A 
HETATM   44  C35 UNL     1      28.419  26.850  23.039  1.00  0.00     0.008 A 
ENDBRANCH  23  39
ENDBRANCH   1  23
TORSDOF 15
ENDMDL
MODEL 2
REMARK VINA RESULT: -9.800037063      1.046      1.390
REMARK  15 active torsions:
REMARK  status: ('A' for Active; 'I' for Inactive)
REMARK    1  A    between atoms: C2_2  and  C4_4 
REMARK    2  A    between atoms: C4_4  and  N1_5 
REMARK    3  A    between atoms: C4_4  and  C5_9 
REMARK    4  A    between atoms: C5_9  and  C6_10 
REMARK    5  A    between atoms: C5_9  and  N2_17 
REMARK    6  A    between atoms: C6_10  and  C7_11 
REMARK       I    between atoms: N2_17  and  C13_19 
REMARK    7  A    between atoms: C13_19  and  O2_21 
REMARK    8  A    between atoms: O2_21  and  C14_22 
REMARK    9  A    between atoms: C14_22  and  C15_23 
REMARK   10  A    between atoms: C15_23  and  C16_24 
REMARK   11  A    between atoms: C15_23  and  C24_33 
REMARK   12  A    between atoms: C15_23  and  C30_39 
REMARK   13  A    between atoms: C16_24  and  O3_25 
REMARK   14  A    between atoms: O3_25  and  C17_26 
REMARK   15  A    between atoms: C17_26  and  C18_27 
ROOT
HETATM    1  C14 UNL     1      28.675  29.775  22.570  1.00  0.00     0.202 C 
ENDROOT
BRANCH   1   2
HETATM    2  O2  UNL     1      28.983  31.140  22.786  1.00  0.00    -0.303 OA
BRANCH   2   3
HETATM    3  C13 UNL     1      28.198  32.191  22.318  1.00  0.00     0.360 C 
HETATM    4  N2  UNL     1      26.876  32.395  22.759  1.00  0.00    -0.330 N 
ATOM      5  H2  UNL     1      26.523  31.725  23.442  1.00  0.00     0.165 HD
HETATM    6  O1  UNL     1      28.793  32.926  21.473  1.00  0.00    -0.239 OA
BRANCH   4   7
HETATM    7  C5  UNL     1      25.979  33.412  22.371  1.00  0.00     0.121 C 
BRANCH   7   8
HETATM    8  C4  UNL     1      25.122  33.945  23.505  1.00  0.00     0.209 C 
BRANCH   8   9
HETATM    9  C2  UNL     1      25.123  35.447  23.556  1.00  0.00     0.010 C 
HETATM   10  C1  UNL     1      23.934  36.049  22.866  1.00  0.00     0.011 C 
HETATM   11  C3  UNL     1      25.071  35.869  25.018  1.00  0.00     0.011 C 
ENDBRANCH   8   9
BRANCH   8  12
HETATM   12  N1  UNL     1      25.401  33.386  24.782  1.00  0.00    -0.073 N 
ATOM     13  H13 UNL     1      26.158  33.882  25.250  1.00  0.00     0.274 HD
ATOM     14  H12 UNL     1      24.652  33.579  25.447  1.00  0.00     0.274 HD
ATOM     15  H11 UNL     1      25.594  32.387  24.713  1.00  0.00     0.274 HD
ENDBRANCH   8  12
ENDBRANCH   7   8
BRANCH   7  16
HETATM   16  C6  UNL     1      25.072  33.146  21.213  1.00  0.00     0.065 C 
BRANCH  16  17
HETATM   17  C7  UNL     1      25.554  33.580  19.902  1.00  0.00    -0.056 A 
HETATM   18  C8  UNL     1      25.400  34.921  19.559  1.00  0.00     0.007 A 
HETATM   19  C9  UNL     1      25.817  35.414  18.340  1.00  0.00     0.001 A 
HETATM   20  C10 UNL     1      26.400  34.595  17.414  1.00  0.00     0.000 A 
HETATM   21  C11 UNL     1      26.564  33.263  17.728  1.00  0.00     0.001 A 
HETATM   22  C12 UNL     1      26.145  32.788  18.944  1.00  0.00     0.007 A 
ENDBRANCH  16  17
ENDBRANCH   7  16
ENDBRANCH   4   7
ENDBRANCH   2   3
ENDBRANCH   1   2
BRANCH   1  23
HETATM   23  C15 UNL     1      30.025  29.045  22.682  1.00  0.00     0.057 C 
BRANCH  23  24
HETATM   24  C16 UNL     1      30.528  29.316  24.056  1.00  0.00     0.189 C 
BRANCH  24  25
HETATM   25  O3  UNL     1      31.768  28.811  24.359  1.00  0.00    -0.385 OA
BRANCH  25  26
HETATM   26  C17 UNL     1      31.695  28.079  25.525  1.00  0.00     0.206 C 
BRANCH  26  27
HETATM   27  C18 UNL     1      31.417  26.657  25.323  1.00  0.00    -0.035 A 
HETATM   28  C19 UNL     1      30.274  26.008  25.691  1.00  0.00     0.009 A 
HETATM   29  C20 UNL     1      30.119  24.655  25.450  1.00  0.00     0.001 A 
HETATM   30  C21 UNL     1      31.144  23.941  24.823  1.00  0.00     0.000 A 
HETATM   31  C22 UNL     1      32.304  24.574  24.443  1.00  0.00     0.001 A 
HETATM   32  C23 UNL     1      32.419  25.908  24.698  1.00  0.00     0.009 A 
ENDBRANCH  26  27
ENDBRANCH  25  26
ENDBRANCH  24  25
ENDBRANCH  23  24
BRANCH  23  33
HETATM   33  C24 UNL     1      30.881  29.684  21.636  1.00  0.00    -0.041 A 
HETATM   34  C25 UNL     1      30.555  29.447  20.303  1.00  0.00     0.008 A 
HETATM   35  C26 UNL     1      31.301  30.010  19.304  1.00  0.00     0.001 A 
HETATM   36  C27 UNL     1      32.381  30.815  19.589  1.00  0.00     0.000 A 
HETATM   37  C28 UNL     1      32.709  31.053  20.900  1.00  0.00     0.001 A 
HETATM   38  C29 UNL     1      31.955  30.484  21.907  1.00  0.00     0.008 A 
ENDBRANCH  23  33
BRANCH  23  39
HETATM   39  C30 UNL     1      29.891  27.610  22.373  1.00  0.00    -0.041 A 
HETATM   40  C31 UNL     1      28.748  26.918  22.721  1.00  0.00     0.008 A 
HETATM   41  C32 UNL     1      28.562  25.576  22.458  1.00  0.00     0.001 A 
HETATM   42  C33 UNL     1      29.601  24.926  21.809  1.00  0.00     0.000 A 
HETATM   43  C34 UNL     1      30.745  25.613  21.459  1.00  0.00     0.001 A 
HETATM   44  C35 UNL     1      30.903  26.959  21.737  1.00  0.00     0.008 A 
ENDBRANCH  23  39
ENDBRANCH   1  23
TORSDOF 15
ENDMDL
MODEL 3
REMARK VINA RESULT: -9.691571944      1.241      2.039
REMARK  15 active torsions:
REMARK  status: ('A' for Active; 'I' for Inactive)
REMARK    1  A    between atoms: C2_2  and  C4_4 
REMARK    2  A    between atoms: C4_4  and  N1_5 
REMARK    3  A    between atoms: C4_4  and  C5_9 
REMARK    4  A    between atoms: C5_9  and  C6_10 
REMARK    5  A    between atoms: C5_9  and  N2_17 
REMARK    6  A    between atoms: C6_10  and  C7_11 
REMARK       I    between atoms: N2_17  and  C13_19 
REMARK    7  A    between atoms: C13_19  and  O2_21 
REMARK    8  A    between atoms: O2_21  and  C14_22 
REMARK    9  A    between atoms: C14_22  and  C15_23 
REMARK   10  A    between atoms: C15_23  and  C16_24 
REMARK   11  A    between atoms: C15_23  and  C24_33 
REMARK   12  A    between atoms: C15_23  and  C30_39 
REMARK   13  A    between atoms: C16_24  and  O3_25 
REMARK   14  A    between atoms: O3_25  and  C17_26 
REMARK   15  A    between atoms: C17_26  and  C18_27 
ROOT
HETATM    1  C14 UNL     1      28.739  29.875  22.639  1.00  0.00     0.202 C 
ENDROOT
BRANCH   1   2
HETATM    2  O2  UNL     1      28.949  31.055  23.395  1.00  0.00    -0.303 OA
BRANCH   2   3
HETATM    3  C13 UNL     1      28.183  32.208  23.253  1.00  0.00     0.360 C 
HETATM    4  N2  UNL     1      27.144  32.536  24.146  1.00  0.00    -0.330 N 
ATOM      5  H2  UNL     1      26.983  31.876  24.907  1.00  0.00     0.165 HD
HETATM    6  O1  UNL     1      28.517  32.914  22.254  1.00  0.00    -0.239 OA
BRANCH   4   7
HETATM    7  C5  UNL     1      26.299  33.665  24.118  1.00  0.00     0.121 C 
BRANCH   7   8
HETATM    8  C4  UNL     1      26.003  34.248  25.488  1.00  0.00     0.209 C 
BRANCH   8   9
HETATM    9  C2  UNL     1      25.078  35.429  25.411  1.00  0.00     0.010 C 
HETATM   10  C1  UNL     1      23.882  35.287  26.306  1.00  0.00     0.011 C 
HETATM   11  C3  UNL     1      25.848  36.662  25.863  1.00  0.00     0.011 C 
ENDBRANCH   8   9
BRANCH   8  12
HETATM   12  N1  UNL     1      27.149  34.542  26.276  1.00  0.00    -0.073 N 
ATOM     13  H13 UNL     1      27.041  34.206  27.233  1.00  0.00     0.274 HD
ATOM     14  H12 UNL     1      27.950  33.974  26.000  1.00  0.00     0.274 HD
ATOM     15  H11 UNL     1      27.368  35.538  26.251  1.00  0.00     0.274 HD
ENDBRANCH   8  12
ENDBRANCH   7   8
BRANCH   7  16
HETATM   16  C6  UNL     1      24.998  33.552  23.391  1.00  0.00     0.065 C 
BRANCH  16  17
HETATM   17  C7  UNL     1      24.998  33.995  21.996  1.00  0.00    -0.056 A 
HETATM   18  C8  UNL     1      24.594  35.300  21.725  1.00  0.00     0.007 A 
HETATM   19  C9  UNL     1      24.553  35.798  20.440  1.00  0.00     0.001 A 
HETATM   20  C10 UNL     1      24.909  35.019  19.373  1.00  0.00     0.000 A 
HETATM   21  C11 UNL     1      25.312  33.723  19.615  1.00  0.00     0.001 A 
HETATM   22  C12 UNL     1      25.348  33.243  20.898  1.00  0.00     0.007 A 
ENDBRANCH  16  17
ENDBRANCH   7  16
ENDBRANCH   4   7
ENDBRANCH   2   3
ENDBRANCH   1   2
BRANCH   1  23
HETATM   23  C15 UNL     1      30.074  29.116  22.718  1.00  0.00     0.057 C 
BRANCH  23  24
HETATM   24  C16 UNL     1      30.619  29.376  24.077  1.00  0.00     0.189 C 
BRANCH  24  25
HETATM   25  O3  UNL     1      31.834  28.807  24.364  1.00  0.00    -0.385 OA
BRANCH  25  26
HETATM   26  C17 UNL     1      31.739  28.079  25.532  1.00  0.00     0.206 C 
BRANCH  26  27
HETATM   27  C18 UNL     1      31.451  26.659  25.330  1.00  0.00    -0.035 A 
HETATM   28  C19 UNL     1      32.299  25.747  24.770  1.00  0.00     0.009 A 
HETATM   29  C20 UNL     1      31.921  24.424  24.628  1.00  0.00     0.001 A 
HETATM   30  C21 UNL     1      30.657  24.014  25.060  1.00  0.00     0.000 A 
HETATM   31  C22 UNL     1      29.787  24.915  25.628  1.00  0.00     0.001 A 
HETATM   32  C23 UNL     1      30.196  26.210  25.751  1.00  0.00     0.009 A 
ENDBRANCH  26  27
ENDBRANCH  25  26
ENDBRANCH  24  25
ENDBRANCH  23  24
BRANCH  23  33
HETATM   33  C24 UNL     1      30.918  29.735  21.649  1.00  0.00    -0.041 A 
HETATM   34  C25 UNL     1      30.579  29.467  20.325  1.00  0.00     0.008 A 
HETATM   35  C26 UNL     1      31.313  30.010  19.306  1.00  0.00     0.001 A 
HETATM   36  C27 UNL     1      32.392  30.826  19.562  1.00  0.00     0.000 A 
HETATM   37  C28 UNL     1      32.732  31.094  20.865  1.00  0.00     0.001 A 
HETATM   38  C29 UNL     1      31.991  30.545  21.892  1.00  0.00     0.008 A 
ENDBRANCH  23  33
BRANCH  23  39
HETATM   39  C30 UNL     1      29.901  27.684  22.414  1.00  0.00    -0.041 A 
HETATM   40  C31 UNL     1      28.732  27.029  22.748  1.00  0.00     0.008 A 
HETATM   41  C32 UNL     1      28.508  25.693  22.488  1.00  0.00     0.001 A 
HETATM   42  C33 UNL     1      29.536  25.008  21.858  1.00  0.00     0.000 A 
HETATM   43  C34 UNL     1      30.706  25.657  21.522  1.00  0.00     0.001 A 
HETATM   44  C35 UNL     1      30.902  26.998  21.796  1.00  0.00     0.008 A 
ENDBRANCH  23  39
ENDBRANCH   1  23
TORSDOF 15
ENDMDL
MODEL 4
REMARK VINA RESULT: -9.592660998      1.592      2.118
REMARK  15 active torsions:
REMARK  status: ('A' for Active; 'I' for Inactive)
REMARK    1  A    between atoms: C2_2  and  C4_4 
REMARK    2  A    between atoms: C4_4  and  N1_5 
REMARK    3  A    between atoms: C4_4  and  C5_9 
REMARK    4  A    between atoms: C5_9  and  C6_10 
REMARK    5  A    between atoms: C5_9  and  N2_17 
REMARK    6  A    between atoms: C6_10  and  C7_11 
REMARK       I    between atoms: N2_17  and  C13_19 
REMARK    7  A    between atoms: C13_19  and  O2_21 
REMARK    8  A    between atoms: O2_21  and  C14_22 
REMARK    9  A    between atoms: C14_22  and  C15_23 
REMARK   10  A    between atoms: C15_23  and  C16_24 
REMARK   11  A    between atoms: C15_23  and  C24_33 
REMARK   12  A    between atoms: C15_23  and  C30_39 
REMARK   13  A    between atoms: C16_24  and  O3_25 
REMARK   14  A    between atoms: O3_25  and  C17_26 
REMARK   15  A    between atoms: C17_26  and  C18_27 
ROOT
HETATM    1  C14 UNL     1      28.649  29.833  22.393  1.00  0.00     0.202 C 
ENDROOT
BRANCH   1   2
HETATM    2  O2  UNL     1      28.927  31.199  22.648  1.00  0.00    -0.303 OA
BRANCH   2   3
HETATM    3  C13 UNL     1      28.218  32.250  22.070  1.00  0.00     0.360 C 
HETATM    4  N2  UNL     1      27.644  32.154  20.787  1.00  0.00    -0.330 N 
ATOM      5  H2  UNL     1      27.779  31.267  20.301  1.00  0.00     0.165 HD
HETATM    6  O1  UNL     1      28.149  33.277  22.811  1.00  0.00    -0.239 OA
BRANCH   4   7
HETATM    7  C5  UNL     1      26.906  33.134  20.092  1.00  0.00     0.121 C 
BRANCH   7   8
HETATM    8  C4  UNL     1      25.562  33.454  20.720  1.00  0.00     0.209 C 
BRANCH   8   9
HETATM    9  C2  UNL     1      25.423  34.915  21.043  1.00  0.00     0.010 C 
HETATM   10  C1  UNL     1      24.331  35.580  20.257  1.00  0.00     0.011 C 
HETATM   11  C3  UNL     1      25.071  35.040  22.519  1.00  0.00     0.011 C 
ENDBRANCH   8   9
BRANCH   8  12
HETATM   12  N1  UNL     1      25.211  32.645  21.834  1.00  0.00    -0.073 N 
ATOM     13  H13 UNL     1      25.341  33.143  22.714  1.00  0.00     0.274 HD
ATOM     14  H12 UNL     1      24.203  32.495  21.886  1.00  0.00     0.274 HD
ATOM     15  H11 UNL     1      25.722  31.761  21.824  1.00  0.00     0.274 HD
ENDBRANCH   8  12
ENDBRANCH   7   8
BRANCH   7  16
HETATM   16  C6  UNL     1      26.679  32.936  18.628  1.00  0.00     0.065 C 
BRANCH  16  17
HETATM   17  C7  UNL     1      26.513  34.152  17.831  1.00  0.00    -0.056 A 
HETATM   18  C8  UNL     1      25.479  34.185  16.897  1.00  0.00     0.007 A 
HETATM   19  C9  UNL     1      25.256  35.285  16.096  1.00  0.00     0.001 A 
HETATM   20  C10 UNL     1      26.050  36.394  16.189  1.00  0.00     0.000 A 
HETATM   21  C11 UNL     1      27.081  36.387  17.105  1.00  0.00     0.001 A 
HETATM   22  C12 UNL     1      27.290  35.286  17.894  1.00  0.00     0.007 A 
ENDBRANCH  16  17
ENDBRANCH   7  16
ENDBRANCH   4   7
ENDBRANCH   2   3
ENDBRANCH   1   2
BRANCH   1  23
HETATM   23  C15 UNL     1      29.993  29.115  22.602  1.00  0.00     0.057 C 
BRANCH  23  24
HETATM   24  C16 UNL     1      30.427  29.444  23.987  1.00  0.00     0.189 C 
BRANCH  24  25
HETATM   25  O3  UNL     1      31.610  28.887  24.401  1.00  0.00    -0.385 OA
BRANCH  25  26
HETATM   26  C17 UNL     1      31.412  28.213  25.588  1.00  0.00     0.206 C 
BRANCH  26  27
HETATM   27  C18 UNL     1      31.157  26.781  25.428  1.00  0.00    -0.035 A 
HETATM   28  C19 UNL     1      30.014  26.130  25.793  1.00  0.00     0.009 A 
HETATM   29  C20 UNL     1      29.881  24.767  25.594  1.00  0.00     0.001 A 
HETATM   30  C21 UNL     1      30.929  24.046  25.016  1.00  0.00     0.000 A 
HETATM   31  C22 UNL     1      32.090  24.681  24.640  1.00  0.00     0.001 A 
HETATM   32  C23 UNL     1      32.182  26.025  24.852  1.00  0.00     0.009 A 
ENDBRANCH  26  27
ENDBRANCH  25  26
ENDBRANCH  24  25
ENDBRANCH  23  24
BRANCH  23  33
HETATM   33  C24 UNL     1      30.900  29.713  21.574  1.00  0.00    -0.041 A 
HETATM   34  C25 UNL     1      30.595  29.482  20.235  1.00  0.00     0.008 A 
HETATM   35  C26 UNL     1      31.387  30.009  19.251  1.00  0.00     0.001 A 
HETATM   36  C27 UNL     1      32.492  30.771  19.558  1.00  0.00     0.000 A 
HETATM   37  C28 UNL     1      32.798  31.002  20.877  1.00  0.00     0.001 A 
HETATM   38  C29 UNL     1      31.998  30.470  21.867  1.00  0.00     0.008 A 
ENDBRANCH  23  33
BRANCH  23  39
HETATM   39  C30 UNL     1      29.878  27.668  22.348  1.00  0.00    -0.041 A 
HETATM   40  C31 UNL     1      28.748  26.972  22.730  1.00  0.00     0.008 A 
HETATM   41  C32 UNL     1      28.579  25.619  22.518  1.00  0.00     0.001 A 
HETATM   42  C33 UNL     1      29.622  24.961  21.884  1.00  0.00     0.000 A 
HETATM   43  C34 UNL     1      30.753  25.651  21.499  1.00  0.00     0.001 A 
HETATM   44  C35 UNL     1      30.894  27.008  21.726  1.00  0.00     0.008 A 
ENDBRANCH  23  39
ENDBRANCH   1  23
TORSDOF 15
ENDMDL
MODEL 5
REMARK VINA RESULT: -9.569683270      1.215      3.342
REMARK  15 active torsions:
REMARK  status: ('A' for Active; 'I' for Inactive)
REMARK    1  A    between atoms: C2_2  and  C4_4 
REMARK    2  A    between atoms: C4_4  and  N1_5 
REMARK    3  A    between atoms: C4_4  and  C5_9 
REMARK    4  A    between atoms: C5_9  and  C6_10 
REMARK    5  A    between atoms: C5_9  and  N2_17 
REMARK    6  A    between atoms: C6_10  and  C7_11 
REMARK       I    between atoms: N2_17  and  C13_19 
REMARK    7  A    between atoms: C13_19  and  O2_21 
REMARK    8  A    between atoms: O2_21  and  C14_22 
REMARK    9  A    between atoms: C14_22  and  C15_23 
REMARK   10  A    between atoms: C15_23  and  C16_24 
REMARK   11  A    between atoms: C15_23  and  C24_33 
REMARK   12  A    between atoms: C15_23  and  C30_39 
REMARK   13  A    between atoms: C16_24  and  O3_25 
REMARK   14  A    between atoms: O3_25  and  C17_26 
REMARK   15  A    between atoms: C17_26  and  C18_27 
ROOT
HETATM    1  C14 UNL     1      28.535  29.502  22.099  1.00  0.00     0.202 C 
ENDROOT
BRANCH   1   2
HETATM    2  O2  UNL     1      28.417  30.633  22.945  1.00  0.00    -0.303 OA
BRANCH   2   3
HETATM    3  C13 UNL     1      27.414  31.591  22.815  1.00  0.00     0.360 C 
HETATM    4  N2  UNL     1      27.068  32.153  21.570  1.00  0.00    -0.330 N 
ATOM      5  H2  UNL     1      27.598  31.818  20.765  1.00  0.00     0.165 HD
HETATM    6  O1  UNL     1      26.861  31.893  23.915  1.00  0.00    -0.239 OA
BRANCH   4   7
HETATM    7  C5  UNL     1      26.080  33.122  21.300  1.00  0.00     0.121 C 
BRANCH   7   8
HETATM    8  C4  UNL     1      25.650  33.176  19.845  1.00  0.00     0.209 C 
BRANCH   8   9
HETATM    9  C2  UNL     1      26.826  33.228  18.911  1.00  0.00     0.010 C 
HETATM   10  C1  UNL     1      26.859  32.068  17.959  1.00  0.00     0.011 C 
HETATM   11  C3  UNL     1      26.714  34.501  18.083  1.00  0.00     0.011 C 
ENDBRANCH   8   9
BRANCH   8  12
HETATM   12  N1  UNL     1      24.701  34.187  19.536  1.00  0.00    -0.073 N 
ATOM     13  H13 UNL     1      25.149  35.010  19.132  1.00  0.00     0.274 HD
ATOM     14  H12 UNL     1      24.116  33.923  18.743  1.00  0.00     0.274 HD
ATOM     15  H11 UNL     1      24.140  34.429  20.352  1.00  0.00     0.274 HD
ENDBRANCH   8  12
ENDBRANCH   7   8
BRANCH   7  16
HETATM   16  C6  UNL     1      26.333  34.527  21.742  1.00  0.00     0.065 C 
BRANCH  16  17
HETATM   17  C7  UNL     1      25.336  35.111  22.639  1.00  0.00    -0.056 A 
HETATM   18  C8  UNL     1      25.325  34.691  23.968  1.00  0.00     0.007 A 
HETATM   19  C9  UNL     1      24.414  35.180  24.880  1.00  0.00     0.001 A 
HETATM   20  C10 UNL     1      23.477  36.105  24.509  1.00  0.00     0.000 A 
HETATM   21  C11 UNL     1      23.466  36.537  23.200  1.00  0.00     0.001 A 
HETATM   22  C12 UNL     1      24.378  36.041  22.305  1.00  0.00     0.007 A 
ENDBRANCH  16  17
ENDBRANCH   7  16
ENDBRANCH   4   7
ENDBRANCH   2   3
ENDBRANCH   1   2
BRANCH   1  23
HETATM   23  C15 UNL     1      29.913  28.907  22.432  1.00  0.00     0.057 C 
BRANCH  23  24
HETATM   24  C16 UNL     1      30.208  29.303  23.835  1.00  0.00     0.189 C 
BRANCH  24  25
HETATM   25  O3  UNL     1      31.465  29.007  24.299  1.00  0.00    -0.385 OA
BRANCH  25  26
HETATM   26  C17 UNL     1      31.368  28.370  25.518  1.00  0.00     0.206 C 
BRANCH  26  27
HETATM   27  C18 UNL     1      31.148  26.927  25.424  1.00  0.00    -0.035 A 
HETATM   28  C19 UNL     1      30.000  26.272  25.766  1.00  0.00     0.009 A 
HETATM   29  C20 UNL     1      29.903  24.899  25.635  1.00  0.00     0.001 A 
HETATM   30  C21 UNL     1      30.991  24.170  25.151  1.00  0.00     0.000 A 
HETATM   31  C22 UNL     1      32.159  24.808  24.800  1.00  0.00     0.001 A 
HETATM   32  C23 UNL     1      32.215  26.163  24.942  1.00  0.00     0.009 A 
ENDBRANCH  26  27
ENDBRANCH  25  26
ENDBRANCH  24  25
ENDBRANCH  23  24
BRANCH  23  33
HETATM   33  C24 UNL     1      30.844  29.557  21.459  1.00  0.00    -0.041 A 
HETATM   34  C25 UNL     1      31.746  30.494  21.958  1.00  0.00     0.008 A 
HETATM   35  C26 UNL     1      32.625  31.117  21.115  1.00  0.00     0.001 A 
HETATM   36  C27 UNL     1      32.638  30.837  19.767  1.00  0.00     0.000 A 
HETATM   37  C28 UNL     1      31.752  29.915  19.267  1.00  0.00     0.001 A 
HETATM   38  C29 UNL     1      30.866  29.287  20.120  1.00  0.00     0.008 A 
ENDBRANCH  23  33
BRANCH  23  39
HETATM   39  C30 UNL     1      29.939  27.450  22.211  1.00  0.00    -0.041 A 
HETATM   40  C31 UNL     1      28.841  26.670  22.517  1.00  0.00     0.008 A 
HETATM   41  C32 UNL     1      28.803  25.304  22.332  1.00  0.00     0.001 A 
HETATM   42  C33 UNL     1      29.949  24.721  21.809  1.00  0.00     0.000 A 
HETATM   43  C34 UNL     1      31.048  25.495  21.501  1.00  0.00     0.001 A 
HETATM   44  C35 UNL     1      31.057  26.864  21.699  1.00  0.00     0.008 A 
ENDBRANCH  23  39
ENDBRANCH   1  23
TORSDOF 15
ENDMDL
