MODEL 1
REMARK VINA RESULT: -8.146153977      0.000      0.000
REMARK  15 active torsions:
REMARK  status: ('A' for Active; 'I' for Inactive)
REMARK       I    between atoms: N1_2  and  C2_4 
REMARK    1  A    between atoms: C2_4  and  C3_6 
REMARK    2  A    between atoms: C3_6  and  C4_7 
REMARK    3  A    between atoms: C4_7  and  C5_8 
REMARK    4  A    between atoms: C5_8  and  C6_9 
REMARK    5  A    between atoms: C6_9  and  C7_10 
REMARK    6  A    between atoms: C9_15  and  C10_16 
REMARK    7  A    between atoms: C10_16  and  C11_17 
REMARK    8  A    between atoms: C14_22  and  O3_23 
REMARK    9  A    between atoms: C15_25  and  C16_26 
REMARK   10  A    between atoms: C19_31  and  O4_32 
REMARK   11  A    between atoms: C20_34  and  C21_35 
REMARK   12  A    between atoms: C21_35  and  C22_36 
REMARK   13  A    between atoms: C25_41  and  O5_42 
REMARK   14  A    between atoms: C26_44  and  C27_45 
REMARK   15  A    between atoms: C30_50  and  O6_51 
ROOT
HETATM    1  C7  UNL     1      15.939 -13.658  19.853  1.00  0.00     0.096 C 
HETATM    2  N2  UNL     1      15.232 -14.874  19.686  1.00  0.00    -0.354 N 
ATOM      3  H2  UNL     1      14.745 -14.946  18.794  1.00  0.00     0.162 HD
HETATM    4  C8  UNL     1      15.072 -15.995  20.504  1.00  0.00     0.240 C 
HETATM    5  O2  UNL     1      13.948 -16.316  21.033  1.00  0.00    -0.271 OA
HETATM    6  C9  UNL     1      16.170 -16.989  20.879  1.00  0.00     0.175 C 
HETATM    7  N3  UNL     1      15.948 -17.381  22.262  1.00  0.00    -0.359 N 
ATOM      8  H3  UNL     1      15.113 -17.949  22.414  1.00  0.00     0.162 HD
HETATM    9  C14 UNL     1      16.681 -17.113  23.407  1.00  0.00     0.135 C 
HETATM   10  C15 UNL     1      18.044 -17.567  23.781  1.00  0.00     0.161 C 
HETATM   11  N4  UNL     1      19.081 -17.307  22.847  1.00  0.00    -0.360 N 
ATOM     12  H4  UNL     1      19.457 -18.129  22.372  1.00  0.00     0.162 HD
HETATM   13  C19 UNL     1      19.666 -16.080  22.482  1.00  0.00     0.135 C 
HETATM   14  C20 UNL     1      19.965 -14.945  23.291  1.00  0.00     0.158 C 
HETATM   15  N5  UNL     1      20.550 -13.771  22.642  1.00  0.00    -0.357 N 
ATOM     16  H5  UNL     1      20.564 -12.978  23.283  1.00  0.00     0.162 HD
HETATM   17  C25 UNL     1      21.078 -13.421  21.441  1.00  0.00     0.160 C 
HETATM   18  C26 UNL     1      20.644 -12.762  20.188  1.00  0.00     0.065 C 
HETATM   19  N6  UNL     1      19.328 -12.266  20.146  1.00  0.00    -0.340 N 
ATOM     20  H6  UNL     1      19.189 -11.501  20.806  1.00  0.00     0.167 HD
HETATM   21  C30 UNL     1      18.157 -12.553  19.428  1.00  0.00     0.121 C 
HETATM   22  C31 UNL     1      17.354 -13.789  19.361  1.00  0.00     0.079 C 
HETATM   23  C32 UNL     1      17.408 -14.507  18.027  1.00  0.00     0.020 C 
ENDROOT
BRANCH   1  24
HETATM   24  C6  UNL     1      15.114 -12.552  19.257  1.00  0.00     0.026 C 
BRANCH  24  25
HETATM   25  C5  UNL     1      13.991 -12.035  20.073  1.00  0.00     0.002 C 
BRANCH  25  26
HETATM   26  C4  UNL     1      14.553 -11.242  21.245  1.00  0.00     0.009 C 
BRANCH  26  27
HETATM   27  C3  UNL     1      13.766 -10.010  21.539  1.00  0.00     0.103 C 
BRANCH  27  28
HETATM   28  C2  UNL     1      12.792 -10.318  22.653  1.00  0.00     0.220 C 
HETATM   29  N1  UNL     1      11.993  -9.238  23.139  1.00  0.00    -0.347 N 
HETATM   30  C1  UNL     1      11.586  -9.248  24.353  1.00  0.00     0.121 C 
ATOM     31  H1  UNL     1      11.748  -8.464  22.523  1.00  0.00     0.167 HD
HETATM   32  O1  UNL     1      12.728 -11.473  23.090  1.00  0.00    -0.273 OA
ENDBRANCH  27  28
ENDBRANCH  26  27
ENDBRANCH  25  26
ENDBRANCH  24  25
ENDBRANCH   1  24
BRANCH  21  33
HETATM   33  O6  UNL     1      17.633 -11.621  18.679  1.00  0.00    -0.349 OA
ATOM     34  H6  UNL     1      16.896 -11.841  18.121  1.00  0.00     0.219 HD
ENDBRANCH  21  33
BRANCH   6  35
HETATM   35  C10 UNL     1      15.876 -18.193  19.979  1.00  0.00     0.038 C 
BRANCH  35  36
HETATM   36  C11 UNL     1      16.955 -18.537  19.013  1.00  0.00    -0.020 C 
HETATM   37  C12 UNL     1      16.508 -18.015  17.652  1.00  0.00     0.009 C 
HETATM   38  C13 UNL     1      18.213 -17.741  19.350  1.00  0.00     0.009 C 
ENDBRANCH  35  36
ENDBRANCH   6  35
BRANCH  18  39
HETATM   39  C27 UNL     1      21.178 -13.413  18.927  1.00  0.00     0.032 C 
HETATM   40  C28 UNL     1      20.573 -14.818  18.865  1.00  0.00     0.016 C 
HETATM   41  C29 UNL     1      20.746 -12.713  17.686  1.00  0.00     0.016 C 
ENDBRANCH  18  39
BRANCH   9  42
HETATM   42  O3  UNL     1      16.056 -16.347  24.264  1.00  0.00    -0.348 OA
ATOM     43  H3  UNL     1      16.089 -15.423  24.045  1.00  0.00     0.219 HD
ENDBRANCH   9  42
BRANCH  17  44
HETATM   44  O5  UNL     1      22.361 -13.740  21.321  1.00  0.00    -0.345 OA
ATOM     45  H5  UNL     1      22.621 -13.917  20.425  1.00  0.00     0.219 HD
ENDBRANCH  17  44
BRANCH  10  46
HETATM   46  C16 UNL     1      17.907 -19.039  24.168  1.00  0.00     0.008 C 
HETATM   47  C17 UNL     1      18.357 -19.977  23.078  1.00  0.00     0.012 C 
HETATM   48  C18 UNL     1      18.860 -19.281  25.335  1.00  0.00     0.012 C 
ENDBRANCH  10  46
BRANCH  14  49
HETATM   49  C21 UNL     1      20.829 -15.303  24.478  1.00  0.00     0.037 C 
BRANCH  49  50
HETATM   50  C22 UNL     1      20.373 -15.005  25.832  1.00  0.00    -0.020 C 
HETATM   51  C23 UNL     1      20.889 -13.572  26.144  1.00  0.00     0.009 C 
HETATM   52  C24 UNL     1      18.883 -14.875  26.040  1.00  0.00     0.009 C 
ENDBRANCH  49  50
ENDBRANCH  14  49
BRANCH  13  53
HETATM   53  O4  UNL     1      19.981 -15.939  21.222  1.00  0.00    -0.348 OA
ATOM     54  H4  UNL     1      20.908 -15.891  21.021  1.00  0.00     0.219 HD
ENDBRANCH  13  53
TORSDOF 15
ENDMDL
MODEL 2
REMARK VINA RESULT: -7.946515188      2.430      6.809
REMARK  15 active torsions:
REMARK  status: ('A' for Active; 'I' for Inactive)
REMARK       I    between atoms: N1_2  and  C2_4 
REMARK    1  A    between atoms: C2_4  and  C3_6 
REMARK    2  A    between atoms: C3_6  and  C4_7 
REMARK    3  A    between atoms: C4_7  and  C5_8 
REMARK    4  A    between atoms: C5_8  and  C6_9 
REMARK    5  A    between atoms: C6_9  and  C7_10 
REMARK    6  A    between atoms: C9_15  and  C10_16 
REMARK    7  A    between atoms: C10_16  and  C11_17 
REMARK    8  A    between atoms: C14_22  and  O3_23 
REMARK    9  A    between atoms: C15_25  and  C16_26 
REMARK   10  A    between atoms: C19_31  and  O4_32 
REMARK   11  A    between atoms: C20_34  and  C21_35 
REMARK   12  A    between atoms: C21_35  and  C22_36 
REMARK   13  A    between atoms: C25_41  and  O5_42 
REMARK   14  A    between atoms: C26_44  and  C27_45 
REMARK   15  A    between atoms: C30_50  and  O6_51 
ROOT
HETATM    1  C7  UNL     1      18.693 -13.493  19.454  1.00  0.00     0.096 C 
HETATM    2  N2  UNL     1      19.598 -13.967  20.435  1.00  0.00    -0.354 N 
ATOM      3  H2  UNL     1      20.367 -13.326  20.627  1.00  0.00     0.162 HD
HETATM    4  C8  UNL     1      19.642 -15.140  21.192  1.00  0.00     0.240 C 
HETATM    5  O2  UNL     1      20.552 -16.033  21.040  1.00  0.00    -0.271 OA
HETATM    6  C9  UNL     1      18.656 -15.530  22.292  1.00  0.00     0.175 C 
HETATM    7  N3  UNL     1      18.448 -16.966  22.200  1.00  0.00    -0.359 N 
ATOM      8  H3  UNL     1      19.258 -17.531  22.459  1.00  0.00     0.162 HD
HETATM    9  C14 UNL     1      17.333 -17.697  21.820  1.00  0.00     0.135 C 
HETATM   10  C15 UNL     1      16.015 -17.822  22.492  1.00  0.00     0.161 C 
HETATM   11  N4  UNL     1      15.336 -16.612  22.794  1.00  0.00    -0.360 N 
ATOM     12  H4  UNL     1      15.282 -16.377  23.785  1.00  0.00     0.162 HD
HETATM   13  C19 UNL     1      14.725 -15.692  21.922  1.00  0.00     0.135 C 
HETATM   14  C20 UNL     1      13.989 -15.932  20.724  1.00  0.00     0.158 C 
HETATM   15  N5  UNL     1      13.485 -14.776  19.983  1.00  0.00    -0.357 N 
ATOM     16  H5  UNL     1      13.124 -15.064  19.073  1.00  0.00     0.162 HD
HETATM   17  C25 UNL     1      13.353 -13.434  20.142  1.00  0.00     0.160 C 
HETATM   18  C26 UNL     1      14.081 -12.197  19.778  1.00  0.00     0.065 C 
HETATM   19  N6  UNL     1      15.235 -12.341  18.984  1.00  0.00    -0.340 N 
ATOM     20  H6  UNL     1      15.014 -12.698  18.055  1.00  0.00     0.167 HD
HETATM   21  C30 UNL     1      16.611 -12.119  19.144  1.00  0.00     0.121 C 
HETATM   22  C31 UNL     1      17.574 -12.715  20.090  1.00  0.00     0.079 C 
HETATM   23  C32 UNL     1      18.097 -11.762  21.146  1.00  0.00     0.020 C 
ENDROOT
BRANCH   1  24
HETATM   24  C6  UNL     1      19.485 -12.792  18.386  1.00  0.00     0.026 C 
BRANCH  24  25
HETATM   25  C5  UNL     1      19.922 -13.605  17.228  1.00  0.00     0.002 C 
BRANCH  25  26
HETATM   26  C4  UNL     1      19.676 -12.818  15.949  1.00  0.00     0.009 C 
BRANCH  26  27
HETATM   27  C3  UNL     1      18.261 -12.899  15.485  1.00  0.00     0.103 C 
BRANCH  27  28
HETATM   28  C2  UNL     1      17.776 -11.502  15.175  1.00  0.00     0.220 C 
HETATM   29  N1  UNL     1      16.366 -11.277  15.210  1.00  0.00    -0.347 N 
HETATM   30  C1  UNL     1      15.851 -10.365  14.473  1.00  0.00     0.121 C 
ATOM     31  H1  UNL     1      15.772 -11.839  15.818  1.00  0.00     0.167 HD
HETATM   32  O1  UNL     1      18.607 -10.625  14.910  1.00  0.00    -0.273 OA
ENDBRANCH  27  28
ENDBRANCH  26  27
ENDBRANCH  25  26
ENDBRANCH  24  25
ENDBRANCH   1  24
BRANCH  21  33
HETATM   33  O6  UNL     1      17.205 -11.259  18.360  1.00  0.00    -0.349 OA
ATOM     34  H6  UNL     1      17.004 -10.336  18.457  1.00  0.00     0.219 HD
ENDBRANCH  21  33
BRANCH   6  35
HETATM   35  C10 UNL     1      19.430 -15.232  23.580  1.00  0.00     0.038 C 
BRANCH  35  36
HETATM   36  C11 UNL     1      18.942 -14.055  24.350  1.00  0.00    -0.020 C 
HETATM   37  C12 UNL     1      17.837 -14.561  25.270  1.00  0.00     0.009 C 
HETATM   38  C13 UNL     1      20.045 -13.566  25.285  1.00  0.00     0.009 C 
ENDBRANCH  35  36
ENDBRANCH   6  35
BRANCH  18  39
HETATM   39  C27 UNL     1      14.125 -11.155  20.878  1.00  0.00     0.032 C 
HETATM   40  C28 UNL     1      13.924  -9.794  20.206  1.00  0.00     0.016 C 
HETATM   41  C29 UNL     1      13.019 -11.305  21.863  1.00  0.00     0.016 C 
ENDBRANCH  18  39
BRANCH   9  42
HETATM   42  O3  UNL     1      17.495 -18.361  20.705  1.00  0.00    -0.348 OA
ATOM     43  H3  UNL     1      16.755 -18.298  20.112  1.00  0.00     0.219 HD
ENDBRANCH   9  42
BRANCH  17  44
HETATM   44  O5  UNL     1      12.258 -13.091  20.809  1.00  0.00    -0.345 OA
ATOM     45  H5  UNL     1      12.279 -12.197  21.132  1.00  0.00     0.219 HD
ENDBRANCH  17  44
BRANCH  10  46
HETATM   46  C16 UNL     1      16.243 -18.728  23.702  1.00  0.00     0.008 C 
HETATM   47  C17 UNL     1      16.269 -17.971  25.005  1.00  0.00     0.012 C 
HETATM   48  C18 UNL     1      15.037 -19.658  23.792  1.00  0.00     0.012 C 
ENDBRANCH  10  46
BRANCH  14  49
HETATM   49  C21 UNL     1      12.839 -16.886  20.944  1.00  0.00     0.037 C 
BRANCH  49  50
HETATM   50  C22 UNL     1      11.994 -17.287  19.823  1.00  0.00    -0.020 C 
HETATM   51  C23 UNL     1      11.564 -18.751  20.122  1.00  0.00     0.009 C 
HETATM   52  C24 UNL     1      10.672 -16.574  19.673  1.00  0.00     0.009 C 
ENDBRANCH  49  50
ENDBRANCH  14  49
BRANCH  13  53
HETATM   53  O4  UNL     1      14.845 -14.429  22.234  1.00  0.00    -0.348 OA
ATOM     54  H4  UNL     1      15.725 -14.071  22.222  1.00  0.00     0.219 HD
ENDBRANCH  13  53
TORSDOF 15
ENDMDL
MODEL 3
REMARK VINA RESULT: -7.875399870      1.590      2.138
REMARK  15 active torsions:
REMARK  status: ('A' for Active; 'I' for Inactive)
REMARK       I    between atoms: N1_2  and  C2_4 
REMARK    1  A    between atoms: C2_4  and  C3_6 
REMARK    2  A    between atoms: C3_6  and  C4_7 
REMARK    3  A    between atoms: C4_7  and  C5_8 
REMARK    4  A    between atoms: C5_8  and  C6_9 
REMARK    5  A    between atoms: C6_9  and  C7_10 
REMARK    6  A    between atoms: C9_15  and  C10_16 
REMARK    7  A    between atoms: C10_16  and  C11_17 
REMARK    8  A    between atoms: C14_22  and  O3_23 
REMARK    9  A    between atoms: C15_25  and  C16_26 
REMARK   10  A    between atoms: C19_31  and  O4_32 
REMARK   11  A    between atoms: C20_34  and  C21_35 
REMARK   12  A    between atoms: C21_35  and  C22_36 
REMARK   13  A    between atoms: C25_41  and  O5_42 
REMARK   14  A    between atoms: C26_44  and  C27_45 
REMARK   15  A    between atoms: C30_50  and  O6_51 
ROOT
HETATM    1  C7  UNL     1      15.236 -14.765  20.652  1.00  0.00     0.096 C 
HETATM    2  N2  UNL     1      14.790 -16.026  21.116  1.00  0.00    -0.354 N 
ATOM      3  H2  UNL     1      14.148 -16.494  20.477  1.00  0.00     0.162 HD
HETATM    4  C8  UNL     1      15.055 -16.755  22.278  1.00  0.00     0.240 C 
HETATM    5  O2  UNL     1      14.168 -16.980  23.178  1.00  0.00    -0.271 OA
HETATM    6  C9  UNL     1      16.396 -17.388  22.646  1.00  0.00     0.175 C 
HETATM    7  N3  UNL     1      16.567 -17.240  24.083  1.00  0.00    -0.359 N 
ATOM      8  H3  UNL     1      15.927 -17.800  24.648  1.00  0.00     0.162 HD
HETATM    9  C14 UNL     1      17.454 -16.465  24.813  1.00  0.00     0.135 C 
HETATM   10  C15 UNL     1      18.931 -16.572  24.921  1.00  0.00     0.161 C 
HETATM   11  N4  UNL     1      19.661 -16.571  23.704  1.00  0.00    -0.360 N 
ATOM     12  H4  UNL     1      20.094 -17.461  23.453  1.00  0.00     0.162 HD
HETATM   13  C19 UNL     1      19.874 -15.519  22.794  1.00  0.00     0.135 C 
HETATM   14  C20 UNL     1      20.089 -14.132  23.048  1.00  0.00     0.158 C 
HETATM   15  N5  UNL     1      20.253 -13.239  21.901  1.00  0.00    -0.357 N 
ATOM     16  H5  UNL     1      20.234 -12.265  22.201  1.00  0.00     0.162 HD
HETATM   17  C25 UNL     1      20.422 -13.319  20.556  1.00  0.00     0.160 C 
HETATM   18  C26 UNL     1      19.597 -13.252  19.328  1.00  0.00     0.065 C 
HETATM   19  N6  UNL     1      18.227 -12.972  19.490  1.00  0.00    -0.340 N 
ATOM     20  H6  UNL     1      18.072 -12.034  19.860  1.00  0.00     0.167 HD
HETATM   21  C30 UNL     1      17.019 -13.652  19.273  1.00  0.00     0.121 C 
HETATM   22  C31 UNL     1      16.506 -14.905  19.859  1.00  0.00     0.079 C 
HETATM   23  C32 UNL     1      16.425 -16.070  18.893  1.00  0.00     0.020 C 
ENDROOT
BRANCH   1  24
HETATM   24  C6  UNL     1      14.084 -14.081  19.972  1.00  0.00     0.026 C 
BRANCH  24  25
HETATM   25  C5  UNL     1      13.466 -12.936  20.680  1.00  0.00     0.002 C 
BRANCH  25  26
HETATM   26  C4  UNL     1      14.500 -12.308  21.603  1.00  0.00     0.009 C 
BRANCH  26  27
HETATM   27  C3  UNL     1      15.093 -11.061  21.042  1.00  0.00     0.103 C 
BRANCH  27  28
HETATM   28  C2  UNL     1      14.061  -9.960  21.121  1.00  0.00     0.220 C 
HETATM   29  N1  UNL     1      13.396  -9.775  22.371  1.00  0.00    -0.347 N 
HETATM   30  C1  UNL     1      12.207  -9.300  22.393  1.00  0.00     0.121 C 
ATOM     31  H1  UNL     1      13.866 -10.021  23.242  1.00  0.00     0.167 HD
HETATM   32  O1  UNL     1      13.839  -9.274  20.115  1.00  0.00    -0.273 OA
ENDBRANCH  27  28
ENDBRANCH  26  27
ENDBRANCH  25  26
ENDBRANCH  24  25
ENDBRANCH   1  24
BRANCH  21  33
HETATM   33  O6  UNL     1      16.157 -13.151  18.428  1.00  0.00    -0.349 OA
ATOM     34  H6  UNL     1      15.629 -13.744  17.907  1.00  0.00     0.219 HD
ENDBRANCH  21  33
BRANCH   6  35
HETATM   35  C10 UNL     1      16.181 -18.872  22.333  1.00  0.00     0.038 C 
BRANCH  35  36
HETATM   36  C11 UNL     1      17.364 -19.573  21.762  1.00  0.00    -0.020 C 
HETATM   37  C12 UNL     1      18.109 -18.552  20.910  1.00  0.00     0.009 C 
HETATM   38  C13 UNL     1      18.332 -19.936  22.885  1.00  0.00     0.009 C 
ENDBRANCH  35  36
ENDBRANCH   6  35
BRANCH  18  39
HETATM   39  C27 UNL     1      19.973 -14.270  18.270  1.00  0.00     0.032 C 
HETATM   40  C28 UNL     1      20.688 -13.504  17.154  1.00  0.00     0.016 C 
HETATM   41  C29 UNL     1      20.937 -15.292  18.764  1.00  0.00     0.016 C 
ENDBRANCH  18  39
BRANCH   9  42
HETATM   42  O3  UNL     1      16.878 -15.508  25.495  1.00  0.00    -0.348 OA
ATOM     43  H3  UNL     1      17.009 -15.577  26.434  1.00  0.00     0.219 HD
ENDBRANCH   9  42
BRANCH  17  44
HETATM   44  O5  UNL     1      21.687 -13.503  20.197  1.00  0.00    -0.345 OA
ATOM     45  H5  UNL     1      21.791 -13.696  19.272  1.00  0.00     0.219 HD
ENDBRANCH  17  44
BRANCH  10  46
HETATM   46  C16 UNL     1      19.201 -17.786  25.810  1.00  0.00     0.008 C 
HETATM   47  C17 UNL     1      20.671 -18.038  26.027  1.00  0.00     0.012 C 
HETATM   48  C18 UNL     1      18.634 -17.461  27.188  1.00  0.00     0.012 C 
ENDBRANCH  10  46
BRANCH  14  49
HETATM   49  C21 UNL     1      21.245 -13.899  23.993  1.00  0.00     0.037 C 
BRANCH  49  50
HETATM   50  C22 UNL     1      20.998 -13.716  25.420  1.00  0.00    -0.020 C 
HETATM   51  C23 UNL     1      22.145 -14.473  26.146  1.00  0.00     0.009 C 
HETATM   52  C24 UNL     1      21.129 -12.313  25.962  1.00  0.00     0.009 C 
ENDBRANCH  49  50
ENDBRANCH  14  49
BRANCH  13  53
HETATM   53  O4  UNL     1      19.872 -15.839  21.526  1.00  0.00    -0.348 OA
ATOM     54  H4  UNL     1      20.368 -15.272  20.947  1.00  0.00     0.219 HD
ENDBRANCH  13  53
TORSDOF 15
ENDMDL
MODEL 4
REMARK VINA RESULT: -7.860652227      2.243      6.591
REMARK  15 active torsions:
REMARK  status: ('A' for Active; 'I' for Inactive)
REMARK       I    between atoms: N1_2  and  C2_4 
REMARK    1  A    between atoms: C2_4  and  C3_6 
REMARK    2  A    between atoms: C3_6  and  C4_7 
REMARK    3  A    between atoms: C4_7  and  C5_8 
REMARK    4  A    between atoms: C5_8  and  C6_9 
REMARK    5  A    between atoms: C6_9  and  C7_10 
REMARK    6  A    between atoms: C9_15  and  C10_16 
REMARK    7  A    between atoms: C10_16  and  C11_17 
REMARK    8  A    between atoms: C14_22  and  O3_23 
REMARK    9  A    between atoms: C15_25  and  C16_26 
REMARK   10  A    between atoms: C19_31  and  O4_32 
REMARK   11  A    between atoms: C20_34  and  C21_35 
REMARK   12  A    between atoms: C21_35  and  C22_36 
REMARK   13  A    between atoms: C25_41  and  O5_42 
REMARK   14  A    between atoms: C26_44  and  C27_45 
REMARK   15  A    between atoms: C30_50  and  O6_51 
ROOT
HETATM    1  C7  UNL     1      19.602 -13.081  19.820  1.00  0.00     0.096 C 
HETATM    2  N2  UNL     1      20.653 -12.892  20.751  1.00  0.00    -0.354 N 
ATOM      3  H2  UNL     1      21.073 -11.964  20.712  1.00  0.00     0.162 HD
HETATM    4  C8  UNL     1      21.228 -13.729  21.710  1.00  0.00     0.240 C 
HETATM    5  O2  UNL     1      22.431 -14.169  21.620  1.00  0.00    -0.271 OA
HETATM    6  C9  UNL     1      20.545 -14.228  22.982  1.00  0.00     0.175 C 
HETATM    7  N3  UNL     1      20.981 -15.598  23.201  1.00  0.00    -0.359 N 
ATOM      8  H3  UNL     1      21.964 -15.696  23.458  1.00  0.00     0.162 HD
HETATM    9  C14 UNL     1      20.285 -16.793  23.117  1.00  0.00     0.135 C 
HETATM   10  C15 UNL     1      19.174 -17.297  23.965  1.00  0.00     0.161 C 
HETATM   11  N4  UNL     1      18.046 -16.448  24.109  1.00  0.00    -0.360 N 
ATOM     12  H4  UNL     1      17.926 -16.034  25.034  1.00  0.00     0.162 HD
HETATM   13  C19 UNL     1      17.068 -16.096  23.160  1.00  0.00     0.135 C 
HETATM   14  C20 UNL     1      16.472 -16.892  22.138  1.00  0.00     0.158 C 
HETATM   15  N5  UNL     1      15.492 -16.259  21.256  1.00  0.00    -0.357 N 
ATOM     16  H5  UNL     1      15.265 -16.873  20.475  1.00  0.00     0.162 HD
HETATM   17  C25 UNL     1      14.794 -15.097  21.165  1.00  0.00     0.160 C 
HETATM   18  C26 UNL     1      14.898 -13.791  20.476  1.00  0.00     0.065 C 
HETATM   19  N6  UNL     1      15.974 -13.620  19.584  1.00  0.00    -0.340 N 
ATOM     20  H6  UNL     1      15.902 -14.242  18.778  1.00  0.00     0.167 HD
HETATM   21  C30 UNL     1      17.120 -12.814  19.519  1.00  0.00     0.121 C 
HETATM   22  C31 UNL     1      18.276 -12.716  20.431  1.00  0.00     0.079 C 
HETATM   23  C32 UNL     1      18.365 -11.416  21.203  1.00  0.00     0.020 C 
ENDROOT
BRANCH   1  24
HETATM   24  C6  UNL     1      19.975 -12.382  18.543  1.00  0.00     0.026 C 
BRANCH  24  25
HETATM   25  C5  UNL     1      20.955 -13.062  17.665  1.00  0.00     0.002 C 
BRANCH  25  26
HETATM   26  C4  UNL     1      20.483 -12.957  16.222  1.00  0.00     0.009 C 
BRANCH  26  27
HETATM   27  C3  UNL     1      19.027 -13.238  16.069  1.00  0.00     0.103 C 
BRANCH  27  28
HETATM   28  C2  UNL     1      18.448 -12.254  15.079  1.00  0.00     0.220 C 
HETATM   29  N1  UNL     1      17.756 -11.123  15.610  1.00  0.00    -0.347 N 
HETATM   30  C1  UNL     1      16.817 -10.579  14.931  1.00  0.00     0.121 C 
ATOM     31  H1  UNL     1      18.007 -10.752  16.526  1.00  0.00     0.167 HD
HETATM   32  O1  UNL     1      18.597 -12.464  13.869  1.00  0.00    -0.273 OA
ENDBRANCH  27  28
ENDBRANCH  26  27
ENDBRANCH  25  26
ENDBRANCH  24  25
ENDBRANCH   1  24
BRANCH  21  33
HETATM   33  O6  UNL     1      17.256 -11.993  18.512  1.00  0.00    -0.349 OA
ATOM     34  H6  UNL     1      16.867 -11.128  18.570  1.00  0.00     0.219 HD
ENDBRANCH  21  33
BRANCH   6  35
HETATM   35  C10 UNL     1      21.153 -13.344  24.076  1.00  0.00     0.038 C 
BRANCH  35  36
HETATM   36  C11 UNL     1      20.785 -13.724  25.468  1.00  0.00    -0.020 C 
HETATM   37  C12 UNL     1      21.204 -12.564  26.364  1.00  0.00     0.009 C 
HETATM   38  C13 UNL     1      19.265 -13.794  25.593  1.00  0.00     0.009 C 
ENDBRANCH  35  36
ENDBRANCH   6  35
BRANCH  18  39
HETATM   39  C27 UNL     1      14.519 -12.602  21.336  1.00  0.00     0.032 C 
HETATM   40  C28 UNL     1      14.429 -11.392  20.403  1.00  0.00     0.016 C 
HETATM   41  C29 UNL     1      13.178 -12.748  21.967  1.00  0.00     0.016 C 
ENDBRANCH  18  39
BRANCH   9  42
HETATM   42  O3  UNL     1      20.684 -17.569  22.142  1.00  0.00    -0.348 OA
ATOM     43  H3  UNL     1      21.556 -17.923  22.269  1.00  0.00     0.219 HD
ENDBRANCH   9  42
BRANCH  17  44
HETATM   44  O5  UNL     1      13.680 -15.098  21.888  1.00  0.00    -0.345 OA
ATOM     45  H5  UNL     1      12.904 -14.890  21.381  1.00  0.00     0.219 HD
ENDBRANCH  17  44
BRANCH  10  46
HETATM   46  C16 UNL     1      19.812 -17.718  25.289  1.00  0.00     0.008 C 
HETATM   47  C17 UNL     1      18.950 -17.398  26.483  1.00  0.00     0.012 C 
HETATM   48  C18 UNL     1      19.927 -19.238  25.262  1.00  0.00     0.012 C 
ENDBRANCH  10  46
BRANCH  14  49
HETATM   49  C21 UNL     1      15.860 -18.160  22.687  1.00  0.00     0.037 C 
BRANCH  49  50
HETATM   50  C22 UNL     1      14.881 -18.091  23.767  1.00  0.00    -0.020 C 
HETATM   51  C23 UNL     1      13.711 -19.019  23.335  1.00  0.00     0.009 C 
HETATM   52  C24 UNL     1      15.291 -18.671  25.100  1.00  0.00     0.009 C 
ENDBRANCH  49  50
ENDBRANCH  14  49
BRANCH  13  53
HETATM   53  O4  UNL     1      16.635 -14.864  23.202  1.00  0.00    -0.348 OA
ATOM     54  H4  UNL     1      17.221 -14.198  22.860  1.00  0.00     0.219 HD
ENDBRANCH  13  53
TORSDOF 15
ENDMDL
MODEL 5
REMARK VINA RESULT: -7.744897073      2.180      6.491
REMARK  15 active torsions:
REMARK  status: ('A' for Active; 'I' for Inactive)
REMARK       I    between atoms: N1_2  and  C2_4 
REMARK    1  A    between atoms: C2_4  and  C3_6 
REMARK    2  A    between atoms: C3_6  and  C4_7 
REMARK    3  A    between atoms: C4_7  and  C5_8 
REMARK    4  A    between atoms: C5_8  and  C6_9 
REMARK    5  A    between atoms: C6_9  and  C7_10 
REMARK    6  A    between atoms: C9_15  and  C10_16 
REMARK    7  A    between atoms: C10_16  and  C11_17 
REMARK    8  A    between atoms: C14_22  and  O3_23 
REMARK    9  A    between atoms: C15_25  and  C16_26 
REMARK   10  A    between atoms: C19_31  and  O4_32 
REMARK   11  A    between atoms: C20_34  and  C21_35 
REMARK   12  A    between atoms: C21_35  and  C22_36 
REMARK   13  A    between atoms: C25_41  and  O5_42 
REMARK   14  A    between atoms: C26_44  and  C27_45 
REMARK   15  A    between atoms: C30_50  and  O6_51 
ROOT
HETATM    1  C7  UNL     1      19.487 -13.200  19.565  1.00  0.00     0.096 C 
HETATM    2  N2  UNL     1      20.596 -13.204  20.447  1.00  0.00    -0.354 N 
ATOM      3  H2  UNL     1      21.154 -12.352  20.408  1.00  0.00     0.162 HD
HETATM    4  C8  UNL     1      21.074 -14.148  21.359  1.00  0.00     0.240 C 
HETATM    5  O2  UNL     1      22.187 -14.767  21.202  1.00  0.00    -0.271 OA
HETATM    6  C9  UNL     1      20.378 -14.570  22.652  1.00  0.00     0.175 C 
HETATM    7  N3  UNL     1      20.603 -15.997  22.820  1.00  0.00    -0.359 N 
ATOM      8  H3  UNL     1      21.568 -16.254  23.028  1.00  0.00     0.162 HD
HETATM    9  C14 UNL     1      19.723 -17.066  22.745  1.00  0.00     0.135 C 
HETATM   10  C15 UNL     1      18.586 -17.414  23.635  1.00  0.00     0.161 C 
HETATM   11  N4  UNL     1      17.613 -16.404  23.851  1.00  0.00    -0.360 N 
ATOM     12  H4  UNL     1      17.602 -16.002  24.790  1.00  0.00     0.162 HD
HETATM   13  C19 UNL     1      16.662 -15.877  22.958  1.00  0.00     0.135 C 
HETATM   14  C20 UNL     1      15.903 -16.541  21.949  1.00  0.00     0.158 C 
HETATM   15  N5  UNL     1      14.996 -15.737  21.129  1.00  0.00    -0.357 N 
ATOM     16  H5  UNL     1      14.641 -16.286  20.347  1.00  0.00     0.162 HD
HETATM   17  C25 UNL     1      14.486 -14.479  21.097  1.00  0.00     0.160 C 
HETATM   18  C26 UNL     1      14.764 -13.186  20.431  1.00  0.00     0.065 C 
HETATM   19  N6  UNL     1      15.813 -13.160  19.492  1.00  0.00    -0.340 N 
ATOM     20  H6  UNL     1      15.608 -13.739  18.678  1.00  0.00     0.167 HD
HETATM   21  C30 UNL     1      17.068 -12.541  19.389  1.00  0.00     0.121 C 
HETATM   22  C31 UNL     1      18.264 -12.651  20.246  1.00  0.00     0.079 C 
HETATM   23  C32 UNL     1      18.590 -11.402  21.041  1.00  0.00     0.020 C 
ENDROOT
BRANCH   1  24
HETATM   24  C6  UNL     1      19.909 -12.532  18.286  1.00  0.00     0.026 C 
BRANCH  24  25
HETATM   25  C5  UNL     1      20.274 -13.414  17.154  1.00  0.00     0.002 C 
BRANCH  25  26
HETATM   26  C4  UNL     1      19.920 -12.716  15.848  1.00  0.00     0.009 C 
BRANCH  26  27
HETATM   27  C3  UNL     1      18.483 -12.868  15.483  1.00  0.00     0.103 C 
BRANCH  27  28
HETATM   28  C2  UNL     1      17.915 -11.499  15.186  1.00  0.00     0.220 C 
HETATM   29  N1  UNL     1      16.493 -11.366  15.194  1.00  0.00    -0.347 N 
HETATM   30  C1  UNL     1      15.936 -10.476  14.460  1.00  0.00     0.121 C 
ATOM     31  H1  UNL     1      15.924 -11.976  15.780  1.00  0.00     0.167 HD
HETATM   32  O1  UNL     1      18.692 -10.566  14.953  1.00  0.00    -0.273 OA
ENDBRANCH  27  28
ENDBRANCH  26  27
ENDBRANCH  25  26
ENDBRANCH  24  25
ENDBRANCH   1  24
BRANCH  21  33
HETATM   33  O6  UNL     1      17.286 -11.722  18.394  1.00  0.00    -0.349 OA
ATOM     34  H6  UNL     1      17.070 -10.803  18.502  1.00  0.00     0.219 HD
ENDBRANCH  21  33
BRANCH   6  35
HETATM   35  C10 UNL     1      21.165 -13.824  23.734  1.00  0.00     0.038 C 
BRANCH  35  36
HETATM   36  C11 UNL     1      20.331 -13.105  24.736  1.00  0.00    -0.020 C 
HETATM   37  C12 UNL     1      19.800 -14.159  25.702  1.00  0.00     0.009 C 
HETATM   38  C13 UNL     1      21.221 -12.201  25.585  1.00  0.00     0.009 C 
ENDBRANCH  35  36
ENDBRANCH   6  35
BRANCH  18  39
HETATM   39  C27 UNL     1      14.615 -11.977  21.334  1.00  0.00     0.032 C 
HETATM   40  C28 UNL     1      14.747 -10.741  20.442  1.00  0.00     0.016 C 
HETATM   41  C29 UNL     1      13.273 -11.894  21.974  1.00  0.00     0.016 C 
ENDBRANCH  18  39
BRANCH   9  42
HETATM   42  O3  UNL     1      19.952 -17.866  21.736  1.00  0.00    -0.348 OA
ATOM     43  H3  UNL     1      19.443 -18.668  21.761  1.00  0.00     0.219 HD
ENDBRANCH   9  42
BRANCH  17  44
HETATM   44  O5  UNL     1      13.420 -14.327  21.873  1.00  0.00    -0.345 OA
ATOM     45  H5  UNL     1      13.552 -13.698  22.573  1.00  0.00     0.219 HD
ENDBRANCH  17  44
BRANCH  10  46
HETATM   46  C16 UNL     1      19.208 -17.967  24.917  1.00  0.00     0.008 C 
HETATM   47  C17 UNL     1      18.389 -17.662  26.145  1.00  0.00     0.012 C 
HETATM   48  C18 UNL     1      19.207 -19.487  24.791  1.00  0.00     0.012 C 
ENDBRANCH  10  46
BRANCH  14  49
HETATM   49  C21 UNL     1      15.125 -17.712  22.500  1.00  0.00     0.037 C 
BRANCH  49  50
HETATM   50  C22 UNL     1      15.568 -19.077  22.234  1.00  0.00    -0.020 C 
HETATM   51  C23 UNL     1      15.657 -19.770  23.623  1.00  0.00     0.009 C 
HETATM   52  C24 UNL     1      14.616 -19.970  21.475  1.00  0.00     0.009 C 
ENDBRANCH  49  50
ENDBRANCH  14  49
BRANCH  13  53
HETATM   53  O4  UNL     1      16.430 -14.594  23.047  1.00  0.00    -0.348 OA
ATOM     54  H4  UNL     1      17.075 -14.020  22.650  1.00  0.00     0.219 HD
ENDBRANCH  13  53
TORSDOF 15
ENDMDL
