MODEL 1
REMARK VINA RESULT: -7.041879282      0.000      0.000
REMARK  14 active torsions:
REMARK  status: ('A' for Active; 'I' for Inactive)
REMARK    1  A    between atoms: C2_2  and  C4_4 
REMARK    2  A    between atoms: C4_4  and  C5_5 
REMARK    3  A    between atoms: C6_8  and  O1_9 
REMARK    4  A    between atoms: C10_17  and  C11_18 
REMARK    5  A    between atoms: C11_18  and  C12_19 
REMARK    6  A    between atoms: C12_19  and  C13_20 
REMARK    7  A    between atoms: C13_20  and  C14_21 
REMARK    8  A    between atoms: C14_21  and  N3_22 
REMARK    9  A    between atoms: C16_30  and  C17_31 
REMARK   10  A    between atoms: C21_36  and  C22_37 
REMARK   11  A    between atoms: C22_37  and  C23_38 
REMARK   12  A    between atoms: C26_43  and  O5_44 
REMARK   13  A    between atoms: C27_46  and  C28_47 
REMARK   14  A    between atoms: C28_47  and  C29_48 
ROOT
HETATM    1  C5  UNL     1      16.831 -12.392  19.160  1.00  0.00     0.199 C 
HETATM    2  N1  UNL     1      17.628 -11.700  20.129  1.00  0.00    -0.356 N 
ATOM      3  H1  UNL     1      17.103 -11.042  20.705  1.00  0.00     0.162 HD
HETATM    4  C6  UNL     1      18.969 -11.760  20.425  1.00  0.00     0.135 C 
HETATM    5  C7  UNL     1      19.983 -12.793  20.459  1.00  0.00     0.155 C 
HETATM    6  C8  UNL     1      21.212 -12.221  19.707  1.00  0.00     0.041 C 
HETATM    7  N2  UNL     1      19.745 -14.054  19.885  1.00  0.00    -0.348 N 
ATOM      8  H2  UNL     1      19.256 -14.100  18.991  1.00  0.00     0.163 HD
HETATM    9  C9  UNL     1      20.153 -15.261  20.494  1.00  0.00     0.241 C 
HETATM   10  O2  UNL     1      20.386 -16.314  19.808  1.00  0.00    -0.271 OA
HETATM   11  C10 UNL     1      20.356 -15.442  21.982  1.00  0.00     0.176 C 
HETATM   12  N4  UNL     1      20.045 -16.810  22.324  1.00  0.00    -0.347 N 
ATOM     13  H4  UNL     1      20.289 -17.492  21.606  1.00  0.00     0.163 HD
HETATM   14  C15 UNL     1      19.473 -17.354  23.459  1.00  0.00     0.230 C 
HETATM   15  O3  UNL     1      19.964 -18.488  23.849  1.00  0.00    -0.273 OA
HETATM   16  C16 UNL     1      18.383 -16.860  24.315  1.00  0.00     0.152 C 
HETATM   17  C20 UNL     1      17.430 -15.948  23.722  1.00  0.00     0.162 C 
HETATM   18  O4  UNL     1      17.164 -14.888  24.247  1.00  0.00    -0.295 OA
HETATM   19  C21 UNL     1      16.696 -16.261  22.391  1.00  0.00     0.154 C 
HETATM   20  N5  UNL     1      16.365 -14.991  21.845  1.00  0.00    -0.361 N 
ATOM     21  H5  UNL     1      17.207 -14.491  21.562  1.00  0.00     0.162 HD
HETATM   22  C26 UNL     1      15.232 -14.230  21.582  1.00  0.00     0.139 C 
HETATM   23  C27 UNL     1      14.199 -14.233  20.574  1.00  0.00     0.182 C 
HETATM   24  N6  UNL     1      14.369 -13.145  19.580  1.00  0.00    -0.344 N 
ATOM     25  H6  UNL     1      13.631 -13.080  18.879  1.00  0.00     0.163 HD
HETATM   26  C32 UNL     1      15.367 -12.216  19.464  1.00  0.00     0.245 C 
HETATM   27  O6  UNL     1      15.032 -10.982  19.637  1.00  0.00    -0.271 OA
ENDROOT
BRANCH  11  28
HETATM   28  C11 UNL     1      21.895 -15.308  22.145  1.00  0.00     0.035 C 
BRANCH  28  29
HETATM   29  C12 UNL     1      22.244 -14.052  22.855  1.00  0.00     0.004 C 
BRANCH  29  30
HETATM   30  C13 UNL     1      21.245 -13.565  23.844  1.00  0.00     0.027 C 
BRANCH  30  31
HETATM   31  C14 UNL     1      21.719 -13.129  25.176  1.00  0.00     0.229 C 
BRANCH  31  32
HETATM   32  N3  UNL     1      21.344 -11.803  25.591  1.00  0.00    -0.079 N 
ATOM     33  H33 UNL     1      21.837 -11.113  25.024  1.00  0.00     0.274 HD
ATOM     34  H32 UNL     1      20.380 -11.617  25.314  1.00  0.00     0.274 HD
ATOM     35  H31 UNL     1      21.465 -11.582  26.580  1.00  0.00     0.274 HD
ENDBRANCH  31  32
ENDBRANCH  30  31
ENDBRANCH  29  30
ENDBRANCH  28  29
ENDBRANCH  11  28
BRANCH  16  36
HETATM   36  C17 UNL     1      18.999 -16.339  25.595  1.00  0.00    -0.002 C 
HETATM   37  C18 UNL     1      20.470 -16.637  25.577  1.00  0.00     0.011 C 
HETATM   38  C19 UNL     1      18.359 -16.950  26.822  1.00  0.00     0.011 C 
ENDBRANCH  16  36
BRANCH   4  39
HETATM   39  O1  UNL     1      19.481 -10.607  20.766  1.00  0.00    -0.348 OA
ATOM     40  H1  UNL     1      20.383 -10.665  21.059  1.00  0.00     0.219 HD
ENDBRANCH   4  39
BRANCH  19  41
HETATM   41  C22 UNL     1      15.665 -17.228  22.770  1.00  0.00     0.037 C 
BRANCH  41  42
HETATM   42  C23 UNL     1      15.462 -18.459  21.981  1.00  0.00    -0.020 C 
HETATM   43  C24 UNL     1      16.596 -19.473  22.260  1.00  0.00     0.009 C 
HETATM   44  C25 UNL     1      15.370 -18.208  20.489  1.00  0.00     0.009 C 
ENDBRANCH  41  42
ENDBRANCH  19  41
BRANCH   1  45
HETATM   45  C4  UNL     1      17.145 -12.178  17.738  1.00  0.00     0.009 C 
BRANCH  45  46
HETATM   46  C2  UNL     1      17.803 -13.160  16.894  1.00  0.00    -0.089 C 
HETATM   47  C1  UNL     1      17.594 -14.612  17.197  1.00  0.00     0.042 C 
HETATM   48  C3  UNL     1      19.244 -12.879  16.503  1.00  0.00     0.042 C 
ENDBRANCH  45  46
ENDBRANCH   1  45
BRANCH  22  49
HETATM   49  O5  UNL     1      15.068 -13.272  22.461  1.00  0.00    -0.348 OA
ATOM     50  H5  UNL     1      14.446 -12.618  22.164  1.00  0.00     0.219 HD
ENDBRANCH  22  49
BRANCH  23  51
HETATM   51  C28 UNL     1      12.785 -14.351  20.941  1.00  0.00     0.008 C 
BRANCH  51  52
HETATM   52  C29 UNL     1      11.951 -15.515  20.727  1.00  0.00    -0.089 C 
HETATM   53  C30 UNL     1      12.196 -16.727  21.581  1.00  0.00     0.042 C 
HETATM   54  C31 UNL     1      11.594 -15.928  19.332  1.00  0.00     0.042 C 
ENDBRANCH  51  52
ENDBRANCH  23  51
TORSDOF 14
ENDMDL
MODEL 2
REMARK VINA RESULT: -6.748369084      1.832      2.492
REMARK  14 active torsions:
REMARK  status: ('A' for Active; 'I' for Inactive)
REMARK    1  A    between atoms: C2_2  and  C4_4 
REMARK    2  A    between atoms: C4_4  and  C5_5 
REMARK    3  A    between atoms: C6_8  and  O1_9 
REMARK    4  A    between atoms: C10_17  and  C11_18 
REMARK    5  A    between atoms: C11_18  and  C12_19 
REMARK    6  A    between atoms: C12_19  and  C13_20 
REMARK    7  A    between atoms: C13_20  and  C14_21 
REMARK    8  A    between atoms: C14_21  and  N3_22 
REMARK    9  A    between atoms: C16_30  and  C17_31 
REMARK   10  A    between atoms: C21_36  and  C22_37 
REMARK   11  A    between atoms: C22_37  and  C23_38 
REMARK   12  A    between atoms: C26_43  and  O5_44 
REMARK   13  A    between atoms: C27_46  and  C28_47 
REMARK   14  A    between atoms: C28_47  and  C29_48 
ROOT
HETATM    1  C5  UNL     1      16.959 -12.670  18.476  1.00  0.00     0.199 C 
HETATM    2  N1  UNL     1      18.159 -12.403  19.210  1.00  0.00    -0.356 N 
ATOM      3  H1  UNL     1      18.110 -11.573  19.801  1.00  0.00     0.162 HD
HETATM    4  C6  UNL     1      19.366 -13.061  19.265  1.00  0.00     0.135 C 
HETATM    5  C7  UNL     1      19.804 -14.439  19.222  1.00  0.00     0.155 C 
HETATM    6  C8  UNL     1      20.974 -14.494  18.208  1.00  0.00     0.041 C 
HETATM    7  N2  UNL     1      18.921 -15.463  18.834  1.00  0.00    -0.348 N 
ATOM      8  H2  UNL     1      18.290 -15.292  18.051  1.00  0.00     0.163 HD
HETATM    9  C9  UNL     1      18.871 -16.717  19.480  1.00  0.00     0.241 C 
HETATM   10  O2  UNL     1      18.469 -17.769  18.875  1.00  0.00    -0.271 OA
HETATM   11  C10 UNL     1      19.276 -16.955  20.918  1.00  0.00     0.176 C 
HETATM   12  N4  UNL     1      18.472 -18.030  21.449  1.00  0.00    -0.347 N 
ATOM     13  H4  UNL     1      18.236 -18.756  20.772  1.00  0.00     0.163 HD
HETATM   14  C15 UNL     1      17.967 -18.244  22.717  1.00  0.00     0.230 C 
HETATM   15  O3  UNL     1      17.976 -19.474  23.128  1.00  0.00    -0.273 OA
HETATM   16  C16 UNL     1      17.409 -17.302  23.700  1.00  0.00     0.152 C 
HETATM   17  C20 UNL     1      16.856 -16.063  23.197  1.00  0.00     0.162 C 
HETATM   18  O4  UNL     1      17.199 -14.993  23.649  1.00  0.00    -0.295 OA
HETATM   19  C21 UNL     1      15.802 -16.024  22.059  1.00  0.00     0.154 C 
HETATM   20  N5  UNL     1      15.960 -14.748  21.453  1.00  0.00    -0.361 N 
ATOM     21  H5  UNL     1      16.858 -14.686  20.974  1.00  0.00     0.162 HD
HETATM   22  C26 UNL     1      15.251 -13.560  21.320  1.00  0.00     0.139 C 
HETATM   23  C27 UNL     1      14.140 -13.106  20.520  1.00  0.00     0.182 C 
HETATM   24  N6  UNL     1      14.562 -12.223  19.406  1.00  0.00    -0.344 N 
ATOM     25  H6  UNL     1      13.802 -11.838  18.845  1.00  0.00     0.163 HD
HETATM   26  C32 UNL     1      15.820 -11.847  19.017  1.00  0.00     0.245 C 
HETATM   27  O6  UNL     1      16.107 -10.594  19.121  1.00  0.00    -0.271 OA
ENDROOT
BRANCH  11  28
HETATM   28  C11 UNL     1      20.714 -17.529  20.788  1.00  0.00     0.035 C 
BRANCH  28  29
HETATM   29  C12 UNL     1      21.674 -16.742  21.601  1.00  0.00     0.004 C 
BRANCH  29  30
HETATM   30  C13 UNL     1      21.127 -15.520  22.250  1.00  0.00     0.027 C 
BRANCH  30  31
HETATM   31  C14 UNL     1      21.971 -14.306  22.301  1.00  0.00     0.229 C 
BRANCH  31  32
HETATM   32  N3  UNL     1      23.348 -14.495  22.679  1.00  0.00    -0.079 N 
ATOM     33  H33 UNL     1      23.397 -15.087  23.509  1.00  0.00     0.274 HD
ATOM     34  H32 UNL     1      23.812 -15.093  21.996  1.00  0.00     0.274 HD
ATOM     35  H31 UNL     1      23.900 -13.650  22.828  1.00  0.00     0.274 HD
ENDBRANCH  31  32
ENDBRANCH  30  31
ENDBRANCH  29  30
ENDBRANCH  28  29
ENDBRANCH  11  28
BRANCH  16  36
HETATM   36  C17 UNL     1      18.441 -17.102  24.789  1.00  0.00    -0.002 C 
HETATM   37  C18 UNL     1      19.628 -17.971  24.491  1.00  0.00     0.011 C 
HETATM   38  C19 UNL     1      17.889 -17.426  26.159  1.00  0.00     0.011 C 
ENDBRANCH  16  36
BRANCH   4  39
HETATM   39  O1  UNL     1      20.392 -12.260  19.389  1.00  0.00    -0.348 OA
ATOM     40  H1  UNL     1      20.692 -12.164  20.285  1.00  0.00     0.219 HD
ENDBRANCH   4  39
BRANCH  19  41
HETATM   41  C22 UNL     1      14.553 -16.417  22.713  1.00  0.00     0.037 C 
BRANCH  41  42
HETATM   42  C23 UNL     1      13.514 -17.156  21.970  1.00  0.00    -0.020 C 
HETATM   43  C24 UNL     1      14.137 -17.904  20.769  1.00  0.00     0.009 C 
HETATM   44  C25 UNL     1      12.384 -16.272  21.479  1.00  0.00     0.009 C 
ENDBRANCH  41  42
ENDBRANCH  19  41
BRANCH   1  45
HETATM   45  C4  UNL     1      17.034 -12.636  17.006  1.00  0.00     0.009 C 
BRANCH  45  46
HETATM   46  C2  UNL     1      17.986 -11.832  16.260  1.00  0.00    -0.089 C 
HETATM   47  C1  UNL     1      17.461 -10.739  15.382  1.00  0.00     0.042 C 
HETATM   48  C3  UNL     1      19.139 -12.568  15.596  1.00  0.00     0.042 C 
ENDBRANCH  45  46
ENDBRANCH   1  45
BRANCH  22  49
HETATM   49  O5  UNL     1      15.712 -12.622  22.112  1.00  0.00    -0.348 OA
ATOM     50  H5  UNL     1      15.072 -11.935  22.260  1.00  0.00     0.219 HD
ENDBRANCH  22  49
BRANCH  23  51
HETATM   51  C28 UNL     1      12.928 -12.567  21.145  1.00  0.00     0.008 C 
BRANCH  51  52
HETATM   52  C29 UNL     1      12.879 -11.457  22.074  1.00  0.00    -0.089 C 
HETATM   53  C30 UNL     1      11.823 -11.476  23.143  1.00  0.00     0.042 C 
HETATM   54  C31 UNL     1      13.088 -10.060  21.574  1.00  0.00     0.042 C 
ENDBRANCH  51  52
ENDBRANCH  23  51
TORSDOF 14
ENDMDL
MODEL 3
REMARK VINA RESULT: -6.730316560      3.212      6.670
REMARK  14 active torsions:
REMARK  status: ('A' for Active; 'I' for Inactive)
REMARK    1  A    between atoms: C2_2  and  C4_4 
REMARK    2  A    between atoms: C4_4  and  C5_5 
REMARK    3  A    between atoms: C6_8  and  O1_9 
REMARK    4  A    between atoms: C10_17  and  C11_18 
REMARK    5  A    between atoms: C11_18  and  C12_19 
REMARK    6  A    between atoms: C12_19  and  C13_20 
REMARK    7  A    between atoms: C13_20  and  C14_21 
REMARK    8  A    between atoms: C14_21  and  N3_22 
REMARK    9  A    between atoms: C16_30  and  C17_31 
REMARK   10  A    between atoms: C21_36  and  C22_37 
REMARK   11  A    between atoms: C22_37  and  C23_38 
REMARK   12  A    between atoms: C26_43  and  O5_44 
REMARK   13  A    between atoms: C27_46  and  C28_47 
REMARK   14  A    between atoms: C28_47  and  C29_48 
ROOT
HETATM    1  C5  UNL     1      19.379 -15.148  25.376  1.00  0.00     0.199 C 
HETATM    2  N1  UNL     1      19.435 -16.551  25.659  1.00  0.00    -0.356 N 
ATOM      3  H1  UNL     1      18.520 -16.997  25.736  1.00  0.00     0.162 HD
HETATM    4  C6  UNL     1      20.494 -17.407  25.847  1.00  0.00     0.135 C 
HETATM    5  C7  UNL     1      21.824 -17.556  25.296  1.00  0.00     0.155 C 
HETATM    6  C8  UNL     1      22.779 -17.734  26.503  1.00  0.00     0.041 C 
HETATM    7  N2  UNL     1      22.395 -16.538  24.511  1.00  0.00    -0.348 N 
ATOM      8  H2  UNL     1      22.263 -15.568  24.797  1.00  0.00     0.163 HD
HETATM    9  C9  UNL     1      23.145 -16.802  23.344  1.00  0.00     0.241 C 
HETATM   10  O2  UNL     1      24.039 -15.990  22.923  1.00  0.00    -0.271 OA
HETATM   11  C10 UNL     1      22.984 -18.035  22.484  1.00  0.00     0.176 C 
HETATM   12  N4  UNL     1      23.289 -17.685  21.117  1.00  0.00    -0.347 N 
ATOM     13  H4  UNL     1      24.022 -16.982  21.014  1.00  0.00     0.163 HD
HETATM   14  C15 UNL     1      22.759 -18.138  19.924  1.00  0.00     0.230 C 
HETATM   15  O3  UNL     1      23.604 -18.289  18.953  1.00  0.00    -0.273 OA
HETATM   16  C16 UNL     1      21.375 -18.482  19.558  1.00  0.00     0.152 C 
HETATM   17  C20 UNL     1      20.311 -17.869  20.322  1.00  0.00     0.162 C 
HETATM   18  O4  UNL     1      19.433 -18.537  20.823  1.00  0.00    -0.295 OA
HETATM   19  C21 UNL     1      20.226 -16.337  20.549  1.00  0.00     0.154 C 
HETATM   20  N5  UNL     1      19.492 -16.182  21.757  1.00  0.00    -0.361 N 
ATOM     21  H5  UNL     1      20.029 -16.530  22.551  1.00  0.00     0.162 HD
HETATM   22  C26 UNL     1      18.259 -15.697  22.175  1.00  0.00     0.139 C 
HETATM   23  C27 UNL     1      17.686 -14.392  22.396  1.00  0.00     0.182 C 
HETATM   24  N6  UNL     1      17.581 -14.051  23.836  1.00  0.00    -0.344 N 
ATOM     25  H6  UNL     1      17.134 -13.157  24.039  1.00  0.00     0.163 HD
HETATM   26  C32 UNL     1      17.994 -14.758  24.934  1.00  0.00     0.245 C 
HETATM   27  O6  UNL     1      17.072 -15.170  25.737  1.00  0.00    -0.271 OA
ENDROOT
BRANCH  11  28
HETATM   28  C11 UNL     1      24.150 -18.947  22.955  1.00  0.00     0.035 C 
BRANCH  28  29
HETATM   29  C12 UNL     1      25.290 -18.880  22.008  1.00  0.00     0.004 C 
BRANCH  29  30
HETATM   30  C13 UNL     1      26.570 -18.365  22.567  1.00  0.00     0.027 C 
BRANCH  30  31
HETATM   31  C14 UNL     1      27.264 -17.268  21.856  1.00  0.00     0.229 C 
BRANCH  31  32
HETATM   32  N3  UNL     1      26.933 -15.927  22.262  1.00  0.00    -0.079 N 
ATOM     33  H33 UNL     1      27.707 -15.300  22.041  1.00  0.00     0.274 HD
ATOM     34  H32 UNL     1      26.208 -15.552  21.649  1.00  0.00     0.274 HD
ATOM     35  H31 UNL     1      26.657 -15.799  23.237  1.00  0.00     0.274 HD
ENDBRANCH  31  32
ENDBRANCH  30  31
ENDBRANCH  29  30
ENDBRANCH  28  29
ENDBRANCH  11  28
BRANCH  16  36
HETATM   36  C17 UNL     1      21.277 -19.991  19.490  1.00  0.00    -0.002 C 
HETATM   37  C18 UNL     1      22.591 -20.578  19.915  1.00  0.00     0.011 C 
HETATM   38  C19 UNL     1      20.914 -20.474  18.104  1.00  0.00     0.011 C 
ENDBRANCH  16  36
BRANCH   4  39
HETATM   39  O1  UNL     1      20.267 -18.330  26.745  1.00  0.00    -0.348 OA
ATOM     40  H1  UNL     1      21.056 -18.649  27.169  1.00  0.00     0.219 HD
ENDBRANCH   4  39
BRANCH  19  41
HETATM   41  C22 UNL     1      19.731 -15.813  19.275  1.00  0.00     0.037 C 
BRANCH  41  42
HETATM   42  C23 UNL     1      20.465 -14.750  18.562  1.00  0.00    -0.020 C 
HETATM   43  C24 UNL     1      21.158 -13.803  19.569  1.00  0.00     0.009 C 
HETATM   44  C25 UNL     1      19.589 -13.936  17.630  1.00  0.00     0.009 C 
ENDBRANCH  41  42
ENDBRANCH  19  41
BRANCH   1  45
HETATM   45  C4  UNL     1      19.935 -14.225  26.379  1.00  0.00     0.009 C 
BRANCH  45  46
HETATM   46  C2  UNL     1      21.008 -13.283  26.110  1.00  0.00    -0.089 C 
HETATM   47  C1  UNL     1      20.926 -12.447  24.870  1.00  0.00     0.042 C 
HETATM   48  C3  UNL     1      22.428 -13.765  26.358  1.00  0.00     0.042 C 
ENDBRANCH  45  46
ENDBRANCH   1  45
BRANCH  22  49
HETATM   49  O5  UNL     1      17.414 -16.664  22.439  1.00  0.00    -0.348 OA
ATOM     50  H5  UNL     1      17.432 -16.913  23.356  1.00  0.00     0.219 HD
ENDBRANCH  22  49
BRANCH  23  51
HETATM   51  C28 UNL     1      16.466 -13.974  21.700  1.00  0.00     0.008 C 
BRANCH  51  52
HETATM   52  C29 UNL     1      16.327 -12.791  20.875  1.00  0.00    -0.089 C 
HETATM   53  C30 UNL     1      17.579 -12.111  20.397  1.00  0.00     0.042 C 
HETATM   54  C31 UNL     1      15.278 -11.773  21.206  1.00  0.00     0.042 C 
ENDBRANCH  51  52
ENDBRANCH  23  51
TORSDOF 14
ENDMDL
MODEL 4
REMARK VINA RESULT: -6.695735068      2.857      7.178
REMARK  14 active torsions:
REMARK  status: ('A' for Active; 'I' for Inactive)
REMARK    1  A    between atoms: C2_2  and  C4_4 
REMARK    2  A    between atoms: C4_4  and  C5_5 
REMARK    3  A    between atoms: C6_8  and  O1_9 
REMARK    4  A    between atoms: C10_17  and  C11_18 
REMARK    5  A    between atoms: C11_18  and  C12_19 
REMARK    6  A    between atoms: C12_19  and  C13_20 
REMARK    7  A    between atoms: C13_20  and  C14_21 
REMARK    8  A    between atoms: C14_21  and  N3_22 
REMARK    9  A    between atoms: C16_30  and  C17_31 
REMARK   10  A    between atoms: C21_36  and  C22_37 
REMARK   11  A    between atoms: C22_37  and  C23_38 
REMARK   12  A    between atoms: C26_43  and  O5_44 
REMARK   13  A    between atoms: C27_46  and  C28_47 
REMARK   14  A    between atoms: C28_47  and  C29_48 
ROOT
HETATM    1  C5  UNL     1      15.043 -12.713  20.387  1.00  0.00     0.199 C 
HETATM    2  N1  UNL     1      14.044 -13.483  19.710  1.00  0.00    -0.356 N 
ATOM      3  H1  UNL     1      13.910 -13.223  18.732  1.00  0.00     0.162 HD
HETATM    4  C6  UNL     1      13.232 -14.508  20.134  1.00  0.00     0.135 C 
HETATM    5  C7  UNL     1      13.359 -15.631  21.038  1.00  0.00     0.155 C 
HETATM    6  C8  UNL     1      12.094 -15.616  21.933  1.00  0.00     0.041 C 
HETATM    7  N2  UNL     1      14.446 -15.722  21.925  1.00  0.00    -0.348 N 
ATOM      8  H2  UNL     1      14.759 -14.877  22.403  1.00  0.00     0.163 HD
HETATM    9  C9  UNL     1      15.125 -16.934  22.183  1.00  0.00     0.241 C 
HETATM   10  O2  UNL     1      15.743 -17.135  23.283  1.00  0.00    -0.271 OA
HETATM   11  C10 UNL     1      15.196 -18.096  21.218  1.00  0.00     0.176 C 
HETATM   12  N4  UNL     1      16.452 -18.780  21.416  1.00  0.00    -0.347 N 
ATOM     13  H4  UNL     1      16.780 -18.792  22.383  1.00  0.00     0.163 HD
HETATM   14  C15 UNL     1      17.286 -19.423  20.522  1.00  0.00     0.230 C 
HETATM   15  O3  UNL     1      17.846 -20.509  20.954  1.00  0.00    -0.273 OA
HETATM   16  C16 UNL     1      17.657 -19.081  19.139  1.00  0.00     0.152 C 
HETATM   17  C20 UNL     1      17.557 -17.693  18.746  1.00  0.00     0.162 C 
HETATM   18  O4  UNL     1      16.948 -17.365  17.751  1.00  0.00    -0.295 OA
HETATM   19  C21 UNL     1      18.212 -16.547  19.562  1.00  0.00     0.154 C 
HETATM   20  N5  UNL     1      17.438 -15.392  19.264  1.00  0.00    -0.361 N 
ATOM     21  H5  UNL     1      16.499 -15.479  19.651  1.00  0.00     0.162 HD
HETATM   22  C26 UNL     1      17.584 -14.180  18.601  1.00  0.00     0.139 C 
HETATM   23  C27 UNL     1      18.213 -12.915  18.894  1.00  0.00     0.182 C 
HETATM   24  N6  UNL     1      17.232 -11.860  19.252  1.00  0.00    -0.344 N 
ATOM     25  H6  UNL     1      17.631 -10.936  19.417  1.00  0.00     0.163 HD
HETATM   26  C32 UNL     1      15.873 -11.943  19.395  1.00  0.00     0.245 C 
HETATM   27  O6  UNL     1      15.162 -11.265  18.559  1.00  0.00    -0.271 OA
ENDROOT
BRANCH  11  28
HETATM   28  C11 UNL     1      14.102 -19.062  21.750  1.00  0.00     0.035 C 
BRANCH  28  29
HETATM   29  C12 UNL     1      13.179 -19.467  20.661  1.00  0.00     0.004 C 
BRANCH  29  30
HETATM   30  C13 UNL     1      13.317 -18.722  19.380  1.00  0.00     0.027 C 
BRANCH  30  31
HETATM   31  C14 UNL     1      12.096 -18.200  18.729  1.00  0.00     0.229 C 
BRANCH  31  32
HETATM   32  N3  UNL     1      12.268 -17.080  17.841  1.00  0.00    -0.079 N 
ATOM     33  H33 UNL     1      12.719 -16.313  18.339  1.00  0.00     0.274 HD
ATOM     34  H32 UNL     1      12.984 -17.298  17.148  1.00  0.00     0.274 HD
ATOM     35  H31 UNL     1      11.430 -16.737  17.370  1.00  0.00     0.274 HD
ENDBRANCH  31  32
ENDBRANCH  30  31
ENDBRANCH  29  30
ENDBRANCH  28  29
ENDBRANCH  11  28
BRANCH  16  36
HETATM   36  C17 UNL     1      16.918 -20.024  18.215  1.00  0.00    -0.002 C 
HETATM   37  C18 UNL     1      16.169 -21.024  19.046  1.00  0.00     0.011 C 
HETATM   38  C19 UNL     1      17.854 -20.735  17.263  1.00  0.00     0.011 C 
ENDBRANCH  16  36
BRANCH   4  39
HETATM   39  O1  UNL     1      12.039 -14.485  19.601  1.00  0.00    -0.348 OA
ATOM     40  H1  UNL     1      11.340 -14.393  20.238  1.00  0.00     0.219 HD
ENDBRANCH   4  39
BRANCH  19  41
HETATM   41  C22 UNL     1      19.633 -16.632  19.220  1.00  0.00     0.037 C 
BRANCH  41  42
HETATM   42  C23 UNL     1      20.664 -16.167  20.168  1.00  0.00    -0.020 C 
HETATM   43  C24 UNL     1      21.743 -17.255  20.370  1.00  0.00     0.009 C 
HETATM   44  C25 UNL     1      20.101 -15.763  21.517  1.00  0.00     0.009 C 
ENDBRANCH  41  42
ENDBRANCH  19  41
BRANCH   1  45
HETATM   45  C4  UNL     1      14.614 -11.887  21.528  1.00  0.00     0.009 C 
BRANCH  45  46
HETATM   46  C2  UNL     1      13.297 -11.285  21.645  1.00  0.00    -0.089 C 
HETATM   47  C1  UNL     1      13.190  -9.793  21.595  1.00  0.00     0.042 C 
HETATM   48  C3  UNL     1      12.362 -11.871  22.690  1.00  0.00     0.042 C 
ENDBRANCH  45  46
ENDBRANCH   1  45
BRANCH  22  49
HETATM   49  O5  UNL     1      17.003 -14.188  17.427  1.00  0.00    -0.348 OA
ATOM     50  H5  UNL     1      17.044 -13.339  17.003  1.00  0.00     0.219 HD
ENDBRANCH  22  49
BRANCH  23  51
HETATM   51  C28 UNL     1      19.236 -12.355  18.006  1.00  0.00     0.008 C 
BRANCH  51  52
HETATM   52  C29 UNL     1      20.632 -12.740  17.978  1.00  0.00    -0.089 C 
HETATM   53  C30 UNL     1      21.019 -13.939  17.159  1.00  0.00     0.042 C 
HETATM   54  C31 UNL     1      21.442 -12.689  19.238  1.00  0.00     0.042 C 
ENDBRANCH  51  52
ENDBRANCH  23  51
TORSDOF 14
ENDMDL
MODEL 5
REMARK VINA RESULT: -6.641782233      2.324      7.995
REMARK  14 active torsions:
REMARK  status: ('A' for Active; 'I' for Inactive)
REMARK    1  A    between atoms: C2_2  and  C4_4 
REMARK    2  A    between atoms: C4_4  and  C5_5 
REMARK    3  A    between atoms: C6_8  and  O1_9 
REMARK    4  A    between atoms: C10_17  and  C11_18 
REMARK    5  A    between atoms: C11_18  and  C12_19 
REMARK    6  A    between atoms: C12_19  and  C13_20 
REMARK    7  A    between atoms: C13_20  and  C14_21 
REMARK    8  A    between atoms: C14_21  and  N3_22 
REMARK    9  A    between atoms: C16_30  and  C17_31 
REMARK   10  A    between atoms: C21_36  and  C22_37 
REMARK   11  A    between atoms: C22_37  and  C23_38 
REMARK   12  A    between atoms: C26_43  and  O5_44 
REMARK   13  A    between atoms: C27_46  and  C28_47 
REMARK   14  A    between atoms: C28_47  and  C29_48 
ROOT
HETATM    1  C5  UNL     1      18.045 -18.246  25.048  1.00  0.00     0.199 C 
HETATM    2  N1  UNL     1      16.659 -17.883  25.074  1.00  0.00    -0.356 N 
ATOM      3  H1  UNL     1      16.383 -17.356  25.903  1.00  0.00     0.162 HD
HETATM    4  C6  UNL     1      15.634 -18.114  24.187  1.00  0.00     0.135 C 
HETATM    5  C7  UNL     1      15.498 -18.185  22.749  1.00  0.00     0.155 C 
HETATM    6  C8  UNL     1      14.689 -19.473  22.450  1.00  0.00     0.041 C 
HETATM    7  N2  UNL     1      16.632 -18.254  21.921  1.00  0.00    -0.348 N 
ATOM      8  H2  UNL     1      17.411 -18.845  22.208  1.00  0.00     0.163 HD
HETATM    9  C9  UNL     1      16.739 -17.539  20.708  1.00  0.00     0.241 C 
HETATM   10  O2  UNL     1      17.487 -17.944  19.754  1.00  0.00    -0.271 OA
HETATM   11  C10 UNL     1      16.004 -16.251  20.406  1.00  0.00     0.176 C 
HETATM   12  N4  UNL     1      16.819 -15.455  19.520  1.00  0.00    -0.347 N 
ATOM     13  H4  UNL     1      17.368 -15.994  18.850  1.00  0.00     0.163 HD
HETATM   14  C15 UNL     1      16.983 -14.086  19.423  1.00  0.00     0.230 C 
HETATM   15  O3  UNL     1      17.095 -13.615  18.220  1.00  0.00    -0.273 OA
HETATM   16  C16 UNL     1      17.054 -13.052  20.467  1.00  0.00     0.152 C 
HETATM   17  C20 UNL     1      17.478 -13.465  21.788  1.00  0.00     0.162 C 
HETATM   18  O4  UNL     1      16.824 -13.192  22.771  1.00  0.00    -0.295 OA
HETATM   19  C21 UNL     1      18.779 -14.276  22.028  1.00  0.00     0.154 C 
HETATM   20  N5  UNL     1      18.555 -14.983  23.241  1.00  0.00    -0.361 N 
ATOM     21  H5  UNL     1      17.831 -15.690  23.116  1.00  0.00     0.162 HD
HETATM   22  C26 UNL     1      19.031 -14.995  24.546  1.00  0.00     0.139 C 
HETATM   23  C27 UNL     1      20.213 -15.491  25.207  1.00  0.00     0.182 C 
HETATM   24  N6  UNL     1      19.956 -16.733  25.978  1.00  0.00    -0.344 N 
ATOM     25  H6  UNL     1      20.754 -17.091  26.502  1.00  0.00     0.163 HD
HETATM   26  C32 UNL     1      18.808 -17.471  26.088  1.00  0.00     0.245 C 
HETATM   27  O6  UNL     1      18.270 -17.530  27.259  1.00  0.00    -0.271 OA
ENDROOT
BRANCH  11  28
HETATM   28  C11 UNL     1      14.797 -16.729  19.553  1.00  0.00     0.035 C 
BRANCH  28  29
HETATM   29  C12 UNL     1      13.514 -16.408  20.225  1.00  0.00     0.004 C 
BRANCH  29  30
HETATM   30  C13 UNL     1      13.600 -15.470  21.377  1.00  0.00     0.027 C 
BRANCH  30  31
HETATM   31  C14 UNL     1      12.658 -14.331  21.436  1.00  0.00     0.229 C 
BRANCH  31  32
HETATM   32  N3  UNL     1      12.710 -13.513  22.620  1.00  0.00    -0.079 N 
ATOM     33  H33 UNL     1      13.295 -12.696  22.448  1.00  0.00     0.274 HD
ATOM     34  H32 UNL     1      11.805 -13.066  22.767  1.00  0.00     0.274 HD
ATOM     35  H31 UNL     1      13.009 -13.973  23.481  1.00  0.00     0.274 HD
ENDBRANCH  31  32
ENDBRANCH  30  31
ENDBRANCH  29  30
ENDBRANCH  28  29
ENDBRANCH  11  28
BRANCH  16  36
HETATM   36  C17 UNL     1      15.742 -12.298  20.464  1.00  0.00    -0.002 C 
HETATM   37  C18 UNL     1      14.925 -12.761  19.293  1.00  0.00     0.011 C 
HETATM   38  C19 UNL     1      15.948 -10.801  20.397  1.00  0.00     0.011 C 
ENDBRANCH  16  36
BRANCH   4  39
HETATM   39  O1  UNL     1      14.481 -18.325  24.766  1.00  0.00    -0.348 OA
ATOM     40  H1  UNL     1      13.767 -17.830  24.380  1.00  0.00     0.219 HD
ENDBRANCH   4  39
BRANCH  19  41
HETATM   41  C22 UNL     1      19.847 -13.284  21.901  1.00  0.00     0.037 C 
BRANCH  41  42
HETATM   42  C23 UNL     1      20.973 -13.505  20.972  1.00  0.00    -0.020 C 
HETATM   43  C24 UNL     1      20.938 -12.470  19.824  1.00  0.00     0.009 C 
HETATM   44  C25 UNL     1      21.003 -14.903  20.386  1.00  0.00     0.009 C 
ENDBRANCH  41  42
ENDBRANCH  19  41
BRANCH   1  45
HETATM   45  C4  UNL     1      18.376 -19.681  25.054  1.00  0.00     0.009 C 
BRANCH  45  46
HETATM   46  C2  UNL     1      18.900 -20.397  23.904  1.00  0.00    -0.089 C 
HETATM   47  C1  UNL     1      19.756 -19.650  22.929  1.00  0.00     0.042 C 
HETATM   48  C3  UNL     1      17.950 -21.346  23.191  1.00  0.00     0.042 C 
ENDBRANCH  45  46
ENDBRANCH   1  45
BRANCH  22  49
HETATM   49  O5  UNL     1      18.199 -14.419  25.379  1.00  0.00    -0.348 OA
ATOM     50  H5  UNL     1      18.238 -14.805  26.246  1.00  0.00     0.219 HD
ENDBRANCH  22  49
BRANCH  23  51
HETATM   51  C28 UNL     1      21.077 -14.598  25.985  1.00  0.00     0.008 C 
BRANCH  51  52
HETATM   52  C29 UNL     1      21.847 -13.493  25.453  1.00  0.00    -0.089 C 
HETATM   53  C30 UNL     1      21.185 -12.146  25.367  1.00  0.00     0.042 C 
HETATM   54  C31 UNL     1      22.736 -13.710  24.266  1.00  0.00     0.042 C 
ENDBRANCH  51  52
ENDBRANCH  23  51
TORSDOF 14
ENDMDL
