MODEL 1
REMARK VINA RESULT: -7.415475669      0.000      0.000
REMARK  11 active torsions:
REMARK  status: ('A' for Active; 'I' for Inactive)
REMARK    1  A    between atoms: C2_2  and  C3_3 
REMARK    2  A    between atoms: C3_3  and  C4_4 
REMARK    3  A    between atoms: C5_7  and  O1_8 
REMARK    4  A    between atoms: C9_13  and  C10_14 
REMARK    5  A    between atoms: C14_23  and  C15_24 
REMARK    6  A    between atoms: C15_24  and  C16_25 
REMARK    7  A    between atoms: C16_25  and  N4_26 
REMARK    8  A    between atoms: N4_26  and  C18_28 
REMARK    9  A    between atoms: N4_26  and  C20_30 
REMARK   10  A    between atoms: C23_36  and  C24_37 
REMARK   11  A    between atoms: C24_37  and  C25_38 
ROOT
HETATM    1  C4  UNL     1      21.031 -14.288  23.467  1.00  0.00     0.175 C 
HETATM    2  N1  UNL     1      19.721 -14.740  23.066  1.00  0.00    -0.360 N 
ATOM      3  H1  UNL     1      19.068 -13.987  22.847  1.00  0.00     0.162 HD
HETATM    4  C5  UNL     1      19.191 -16.010  22.926  1.00  0.00     0.126 C 
HETATM    5  C6  UNL     1      18.735 -16.997  23.963  1.00  0.00     0.057 C 
HETATM    6  C7  UNL     1      19.792 -18.138  23.823  1.00  0.00     0.030 C 
HETATM    7  C8  UNL     1      18.871 -16.539  25.353  1.00  0.00     0.030 C 
HETATM    8  C9  UNL     1      17.447 -17.543  23.487  1.00  0.00     0.023 C 
HETATM    9  N2  UNL     1      16.684 -16.639  22.636  1.00  0.00    -0.305 N 
ATOM     10  H2  UNL     1      16.346 -16.932  21.719  1.00  0.00     0.186 HD
HETATM   11  N3  UNL     1      16.441 -15.394  23.112  1.00  0.00    -0.268 N 
ATOM     12  H3  UNL     1      16.560 -15.190  24.104  1.00  0.00     0.190 HD
HETATM   13  C13 UNL     1      16.018 -14.375  22.214  1.00  0.00     0.259 C 
HETATM   14  O2  UNL     1      15.465 -13.328  22.706  1.00  0.00    -0.269 OA
HETATM   15  C14 UNL     1      16.157 -14.414  20.739  1.00  0.00     0.180 C 
HETATM   16  N5  UNL     1      16.425 -13.054  20.319  1.00  0.00    -0.346 N 
ATOM     17  H5  UNL     1      15.790 -12.332  20.659  1.00  0.00     0.163 HD
HETATM   18  C22 UNL     1      17.487 -12.636  19.481  1.00  0.00     0.241 C 
HETATM   19  O3  UNL     1      18.032 -11.492  19.711  1.00  0.00    -0.271 OA
HETATM   20  C23 UNL     1      18.042 -13.398  18.343  1.00  0.00     0.177 C 
HETATM   21  N6  UNL     1      18.933 -14.456  18.687  1.00  0.00    -0.346 N 
ATOM     22  H6  UNL     1      18.540 -15.394  18.616  1.00  0.00     0.163 HD
HETATM   23  C28 UNL     1      20.273 -14.398  19.110  1.00  0.00     0.240 C 
HETATM   24  O4  UNL     1      21.156 -15.097  18.494  1.00  0.00    -0.271 OA
HETATM   25  C29 UNL     1      20.833 -13.601  20.229  1.00  0.00     0.172 C 
HETATM   26  C30 UNL     1      21.719 -12.473  19.695  1.00  0.00     0.042 C 
HETATM   27  N7  UNL     1      21.719 -14.466  20.983  1.00  0.00    -0.346 N 
ATOM     28  H7  UNL     1      22.164 -15.218  20.457  1.00  0.00     0.163 HD
HETATM   29  C31 UNL     1      22.038 -14.398  22.336  1.00  0.00     0.241 C 
HETATM   30  O5  UNL     1      23.245 -14.427  22.710  1.00  0.00    -0.271 OA
ENDROOT
BRANCH  15  31
HETATM   31  C15 UNL     1      14.886 -14.959  20.153  1.00  0.00     0.063 C 
BRANCH  31  32
HETATM   32  C16 UNL     1      14.926 -16.396  19.766  1.00  0.00     0.239 C 
BRANCH  32  33
HETATM   33  N4  UNL     1      13.644 -17.048  19.853  1.00  0.00    -0.071 N 
HETATM   34  C17 UNL     1      13.376 -17.892  18.706  1.00  0.00     0.272 C 
BRANCH  33  35
HETATM   35  C18 UNL     1      13.729 -17.958  21.008  1.00  0.00     0.232 C 
HETATM   36  C19 UNL     1      14.747 -19.051  20.772  1.00  0.00     0.035 C 
ENDBRANCH  33  35
BRANCH  33  37
HETATM   37  C20 UNL     1      12.536 -16.178  20.097  1.00  0.00     0.232 C 
HETATM   38  C21 UNL     1      11.629 -16.678  21.206  1.00  0.00     0.035 C 
ENDBRANCH  33  37
ENDBRANCH  32  33
ENDBRANCH  31  32
ENDBRANCH  15  31
BRANCH  20  39
HETATM   39  C24 UNL     1      18.608 -12.401  17.342  1.00  0.00     0.038 C 
BRANCH  39  40
HETATM   40  C25 UNL     1      19.144 -13.027  16.104  1.00  0.00    -0.020 C 
HETATM   41  C26 UNL     1      20.598 -12.553  15.956  1.00  0.00     0.009 C 
HETATM   42  C27 UNL     1      18.432 -12.552  14.857  1.00  0.00     0.009 C 
ENDBRANCH  39  40
ENDBRANCH  20  39
BRANCH   8  43
HETATM   43  C10 UNL     1      16.599 -18.352  24.391  1.00  0.00     0.026 C 
HETATM   44  C11 UNL     1      15.162 -18.040  24.503  1.00  0.00     0.016 C 
HETATM   45  C12 UNL     1      16.704 -19.857  24.027  1.00  0.00     0.016 C 
ENDBRANCH   8  43
BRANCH   4  46
HETATM   46  O1  UNL     1      19.025 -16.506  21.735  1.00  0.00    -0.349 OA
ATOM     47  H1  UNL     1      19.118 -17.442  21.601  1.00  0.00     0.219 HD
ENDBRANCH   4  46
BRANCH   1  48
HETATM   48  C3  UNL     1      21.034 -12.794  23.784  1.00  0.00     0.034 C 
BRANCH  48  49
HETATM   49  C2  UNL     1      21.425 -12.583  25.208  1.00  0.00    -0.002 C 
HETATM   50  C1  UNL     1      20.594 -13.301  26.217  1.00  0.00     0.005 C 
ENDBRANCH  48  49
ENDBRANCH   1  48
TORSDOF 11
ENDMDL
MODEL 2
REMARK VINA RESULT: -7.414620436      0.365      1.176
REMARK  11 active torsions:
REMARK  status: ('A' for Active; 'I' for Inactive)
REMARK    1  A    between atoms: C2_2  and  C3_3 
REMARK    2  A    between atoms: C3_3  and  C4_4 
REMARK    3  A    between atoms: C5_7  and  O1_8 
REMARK    4  A    between atoms: C9_13  and  C10_14 
REMARK    5  A    between atoms: C14_23  and  C15_24 
REMARK    6  A    between atoms: C15_24  and  C16_25 
REMARK    7  A    between atoms: C16_25  and  N4_26 
REMARK    8  A    between atoms: N4_26  and  C18_28 
REMARK    9  A    between atoms: N4_26  and  C20_30 
REMARK   10  A    between atoms: C23_36  and  C24_37 
REMARK   11  A    between atoms: C24_37  and  C25_38 
ROOT
HETATM    1  C4  UNL     1      21.028 -14.280  23.464  1.00  0.00     0.175 C 
HETATM    2  N1  UNL     1      19.716 -14.728  23.066  1.00  0.00    -0.360 N 
ATOM      3  H1  UNL     1      19.066 -13.973  22.846  1.00  0.00     0.162 HD
HETATM    4  C5  UNL     1      19.182 -15.997  22.927  1.00  0.00     0.126 C 
HETATM    5  C6  UNL     1      18.723 -16.980  23.967  1.00  0.00     0.057 C 
HETATM    6  C7  UNL     1      19.776 -18.125  23.827  1.00  0.00     0.030 C 
HETATM    7  C8  UNL     1      18.862 -16.520  25.356  1.00  0.00     0.030 C 
HETATM    8  C9  UNL     1      17.433 -17.523  23.493  1.00  0.00     0.023 C 
HETATM    9  N2  UNL     1      16.672 -16.617  22.641  1.00  0.00    -0.305 N 
ATOM     10  H2  UNL     1      16.333 -16.910  21.724  1.00  0.00     0.186 HD
HETATM   11  N3  UNL     1      16.433 -15.371  23.115  1.00  0.00    -0.268 N 
ATOM     12  H3  UNL     1      16.554 -15.166  24.107  1.00  0.00     0.190 HD
HETATM   13  C13 UNL     1      16.013 -14.352  22.215  1.00  0.00     0.259 C 
HETATM   14  O2  UNL     1      15.464 -13.302  22.706  1.00  0.00    -0.269 OA
HETATM   15  C14 UNL     1      16.152 -14.393  20.741  1.00  0.00     0.180 C 
HETATM   16  N5  UNL     1      16.424 -13.036  20.318  1.00  0.00    -0.346 N 
ATOM     17  H5  UNL     1      15.792 -12.310  20.657  1.00  0.00     0.163 HD
HETATM   18  C22 UNL     1      17.486 -12.622  19.479  1.00  0.00     0.241 C 
HETATM   19  O3  UNL     1      18.036 -11.480  19.706  1.00  0.00    -0.271 OA
HETATM   20  C23 UNL     1      18.038 -13.388  18.341  1.00  0.00     0.177 C 
HETATM   21  N6  UNL     1      18.926 -14.448  18.687  1.00  0.00    -0.346 N 
ATOM     22  H6  UNL     1      18.530 -15.386  18.617  1.00  0.00     0.163 HD
HETATM   23  C28 UNL     1      20.266 -14.394  19.108  1.00  0.00     0.240 C 
HETATM   24  O4  UNL     1      21.146 -15.097  18.493  1.00  0.00    -0.271 OA
HETATM   25  C29 UNL     1      20.829 -13.597  20.226  1.00  0.00     0.172 C 
HETATM   26  C30 UNL     1      21.719 -12.473  19.689  1.00  0.00     0.042 C 
HETATM   27  N7  UNL     1      21.713 -14.464  20.981  1.00  0.00    -0.346 N 
ATOM     28  H7  UNL     1      22.156 -15.218  20.455  1.00  0.00     0.163 HD
HETATM   29  C31 UNL     1      22.034 -14.395  22.333  1.00  0.00     0.241 C 
HETATM   30  O5  UNL     1      23.240 -14.428  22.707  1.00  0.00    -0.271 OA
ENDROOT
BRANCH  15  31
HETATM   31  C15 UNL     1      14.878 -14.935  20.156  1.00  0.00     0.063 C 
BRANCH  31  32
HETATM   32  C16 UNL     1      14.791 -16.420  20.082  1.00  0.00     0.239 C 
BRANCH  32  33
HETATM   33  N4  UNL     1      13.535 -16.944  20.556  1.00  0.00    -0.071 N 
HETATM   34  C17 UNL     1      12.860 -16.030  21.455  1.00  0.00     0.272 C 
BRANCH  33  35
HETATM   35  C18 UNL     1      12.668 -17.053  19.371  1.00  0.00     0.232 C 
HETATM   36  C19 UNL     1      11.370 -16.303  19.569  1.00  0.00     0.035 C 
ENDBRANCH  33  35
BRANCH  33  37
HETATM   37  C20 UNL     1      13.603 -18.248  21.136  1.00  0.00     0.232 C 
HETATM   38  C21 UNL     1      14.830 -19.025  20.694  1.00  0.00     0.035 C 
ENDBRANCH  33  37
ENDBRANCH  32  33
ENDBRANCH  31  32
ENDBRANCH  15  31
BRANCH  20  39
HETATM   39  C24 UNL     1      18.607 -12.394  17.338  1.00  0.00     0.038 C 
BRANCH  39  40
HETATM   40  C25 UNL     1      19.144 -13.025  16.103  1.00  0.00    -0.020 C 
HETATM   41  C26 UNL     1      20.598 -12.553  15.957  1.00  0.00     0.009 C 
HETATM   42  C27 UNL     1      18.435 -12.552  14.853  1.00  0.00     0.009 C 
ENDBRANCH  39  40
ENDBRANCH  20  39
BRANCH   8  43
HETATM   43  C10 UNL     1      16.583 -18.328  24.398  1.00  0.00     0.026 C 
HETATM   44  C11 UNL     1      15.154 -17.990  24.536  1.00  0.00     0.016 C 
HETATM   45  C12 UNL     1      16.653 -19.829  24.012  1.00  0.00     0.016 C 
ENDBRANCH   8  43
BRANCH   4  46
HETATM   46  O1  UNL     1      19.013 -16.493  21.738  1.00  0.00    -0.349 OA
ATOM     47  H1  UNL     1      18.153 -16.459  21.335  1.00  0.00     0.219 HD
ENDBRANCH   4  46
BRANCH   1  48
HETATM   48  C3  UNL     1      21.035 -12.785  23.779  1.00  0.00     0.034 C 
BRANCH  48  49
HETATM   49  C2  UNL     1      21.421 -12.574  25.205  1.00  0.00    -0.002 C 
HETATM   50  C1  UNL     1      20.594 -13.302  26.210  1.00  0.00     0.005 C 
ENDBRANCH  48  49
ENDBRANCH   1  48
TORSDOF 11
ENDMDL
MODEL 3
REMARK VINA RESULT: -6.729365057      2.043      6.426
REMARK  11 active torsions:
REMARK  status: ('A' for Active; 'I' for Inactive)
REMARK    1  A    between atoms: C2_2  and  C3_3 
REMARK    2  A    between atoms: C3_3  and  C4_4 
REMARK    3  A    between atoms: C5_7  and  O1_8 
REMARK    4  A    between atoms: C9_13  and  C10_14 
REMARK    5  A    between atoms: C14_23  and  C15_24 
REMARK    6  A    between atoms: C15_24  and  C16_25 
REMARK    7  A    between atoms: C16_25  and  N4_26 
REMARK    8  A    between atoms: N4_26  and  C18_28 
REMARK    9  A    between atoms: N4_26  and  C20_30 
REMARK   10  A    between atoms: C23_36  and  C24_37 
REMARK   11  A    between atoms: C24_37  and  C25_38 
ROOT
HETATM    1  C4  UNL     1      19.661 -13.520  19.507  1.00  0.00     0.175 C 
HETATM    2  N1  UNL     1      18.494 -13.998  20.206  1.00  0.00    -0.360 N 
ATOM      3  H1  UNL     1      18.443 -15.014  20.289  1.00  0.00     0.162 HD
HETATM    4  C5  UNL     1      17.431 -13.327  20.785  1.00  0.00     0.126 C 
HETATM    5  C6  UNL     1      16.242 -12.656  20.157  1.00  0.00     0.057 C 
HETATM    6  C7  UNL     1      16.509 -11.149  20.469  1.00  0.00     0.030 C 
HETATM    7  C8  UNL     1      16.199 -12.725  18.689  1.00  0.00     0.030 C 
HETATM    8  C9  UNL     1      15.063 -13.058  20.952  1.00  0.00     0.023 C 
HETATM    9  N2  UNL     1      15.187 -14.356  21.604  1.00  0.00    -0.305 N 
ATOM     10  H2  UNL     1      15.024 -14.464  22.605  1.00  0.00     0.186 HD
HETATM   11  N3  UNL     1      15.526 -15.412  20.826  1.00  0.00    -0.268 N 
ATOM     12  H3  UNL     1      15.446 -15.352  19.811  1.00  0.00     0.190 HD
HETATM   13  C13 UNL     1      15.994 -16.607  21.441  1.00  0.00     0.259 C 
HETATM   14  O2  UNL     1      15.977 -17.687  20.750  1.00  0.00    -0.269 OA
HETATM   15  C14 UNL     1      16.507 -16.720  22.826  1.00  0.00     0.180 C 
HETATM   16  N5  UNL     1      17.569 -17.702  22.790  1.00  0.00    -0.346 N 
ATOM     17  H5  UNL     1      17.357 -18.598  22.350  1.00  0.00     0.163 HD
HETATM   18  C22 UNL     1      18.876 -17.534  23.307  1.00  0.00     0.241 C 
HETATM   19  O3  UNL     1      19.858 -18.083  22.679  1.00  0.00    -0.271 OA
HETATM   20  C23 UNL     1      19.234 -16.777  24.525  1.00  0.00     0.177 C 
HETATM   21  N6  UNL     1      19.274 -15.360  24.379  1.00  0.00    -0.346 N 
ATOM     22  H6  UNL     1      18.479 -14.860  24.776  1.00  0.00     0.163 HD
HETATM   23  C28 UNL     1      20.248 -14.549  23.769  1.00  0.00     0.240 C 
HETATM   24  O4  UNL     1      20.749 -13.568  24.427  1.00  0.00    -0.271 OA
HETATM   25  C29 UNL     1      20.799 -14.678  22.398  1.00  0.00     0.172 C 
HETATM   26  C30 UNL     1      22.261 -15.129  22.447  1.00  0.00     0.042 C 
HETATM   27  N7  UNL     1      20.822 -13.353  21.808  1.00  0.00    -0.346 N 
ATOM     28  H7  UNL     1      20.923 -12.575  22.460  1.00  0.00     0.163 HD
HETATM   29  C31 UNL     1      20.725 -13.011  20.463  1.00  0.00     0.241 C 
HETATM   30  O5  UNL     1      21.560 -12.218  19.943  1.00  0.00    -0.271 OA
ENDROOT
BRANCH  15  31
HETATM   31  C15 UNL     1      15.373 -17.130  23.723  1.00  0.00     0.063 C 
BRANCH  31  32
HETATM   32  C16 UNL     1      15.692 -18.201  24.706  1.00  0.00     0.239 C 
BRANCH  32  33
HETATM   33  N4  UNL     1      14.791 -19.325  24.639  1.00  0.00    -0.071 N 
HETATM   34  C17 UNL     1      13.817 -19.189  23.575  1.00  0.00     0.272 C 
BRANCH  33  35
HETATM   35  C18 UNL     1      15.619 -20.487  24.277  1.00  0.00     0.232 C 
HETATM   36  C19 UNL     1      16.911 -20.508  25.063  1.00  0.00     0.035 C 
ENDBRANCH  33  35
BRANCH  33  37
HETATM   37  C20 UNL     1      14.139 -19.652  25.868  1.00  0.00     0.232 C 
HETATM   38  C21 UNL     1      12.690 -20.059  25.675  1.00  0.00     0.035 C 
ENDBRANCH  33  37
ENDBRANCH  32  33
ENDBRANCH  31  32
ENDBRANCH  15  31
BRANCH  20  39
HETATM   39  C24 UNL     1      20.505 -17.386  25.101  1.00  0.00     0.038 C 
BRANCH  39  40
HETATM   40  C25 UNL     1      20.296 -18.129  26.372  1.00  0.00    -0.020 C 
HETATM   41  C26 UNL     1      20.420 -19.624  26.042  1.00  0.00     0.009 C 
HETATM   42  C27 UNL     1      18.902 -17.949  26.929  1.00  0.00     0.009 C 
ENDBRANCH  39  40
ENDBRANCH  20  39
BRANCH   8  43
HETATM   43  C10 UNL     1      13.697 -12.780  20.455  1.00  0.00     0.026 C 
HETATM   44  C11 UNL     1      12.705 -13.870  20.426  1.00  0.00     0.016 C 
HETATM   45  C12 UNL     1      13.059 -11.613  21.255  1.00  0.00     0.016 C 
ENDBRANCH   8  43
BRANCH   4  46
HETATM   46  O1  UNL     1      17.374 -13.215  22.079  1.00  0.00    -0.349 OA
ATOM     47  H1  UNL     1      16.565 -13.426  22.531  1.00  0.00     0.219 HD
ENDBRANCH   4  46
BRANCH   1  48
HETATM   48  C3  UNL     1      20.375 -14.654  18.772  1.00  0.00     0.034 C 
BRANCH  48  49
HETATM   49  C2  UNL     1      20.832 -14.176  17.434  1.00  0.00    -0.002 C 
HETATM   50  C1  UNL     1      19.934 -13.194  16.760  1.00  0.00     0.005 C 
ENDBRANCH  48  49
ENDBRANCH   1  48
TORSDOF 11
ENDMDL
MODEL 4
REMARK VINA RESULT: -6.680211535      2.405      6.367
REMARK  11 active torsions:
REMARK  status: ('A' for Active; 'I' for Inactive)
REMARK    1  A    between atoms: C2_2  and  C3_3 
REMARK    2  A    between atoms: C3_3  and  C4_4 
REMARK    3  A    between atoms: C5_7  and  O1_8 
REMARK    4  A    between atoms: C9_13  and  C10_14 
REMARK    5  A    between atoms: C14_23  and  C15_24 
REMARK    6  A    between atoms: C15_24  and  C16_25 
REMARK    7  A    between atoms: C16_25  and  N4_26 
REMARK    8  A    between atoms: N4_26  and  C18_28 
REMARK    9  A    between atoms: N4_26  and  C20_30 
REMARK   10  A    between atoms: C23_36  and  C24_37 
REMARK   11  A    between atoms: C24_37  and  C25_38 
ROOT
HETATM    1  C4  UNL     1      19.166 -19.229  22.911  1.00  0.00     0.175 C 
HETATM    2  N1  UNL     1      19.066 -17.790  22.885  1.00  0.00    -0.360 N 
ATOM      3  H1  UNL     1      18.949 -17.396  21.952  1.00  0.00     0.162 HD
HETATM    4  C5  UNL     1      19.101 -16.849  23.899  1.00  0.00     0.126 C 
HETATM    5  C6  UNL     1      20.259 -16.318  24.697  1.00  0.00     0.057 C 
HETATM    6  C7  UNL     1      19.961 -16.877  26.125  1.00  0.00     0.030 C 
HETATM    7  C8  UNL     1      21.566 -16.888  24.344  1.00  0.00     0.030 C 
HETATM    8  C9  UNL     1      20.085 -14.852  24.766  1.00  0.00     0.023 C 
HETATM    9  N2  UNL     1      19.365 -14.274  23.637  1.00  0.00    -0.305 N 
ATOM     10  H2  UNL     1      18.553 -13.673  23.778  1.00  0.00     0.186 HD
HETATM   11  N3  UNL     1      19.818 -14.568  22.395  1.00  0.00    -0.268 N 
ATOM     12  H3  UNL     1      20.753 -14.954  22.265  1.00  0.00     0.190 HD
HETATM   13  C13 UNL     1      18.976 -14.331  21.273  1.00  0.00     0.259 C 
HETATM   14  O2  UNL     1      19.519 -14.277  20.112  1.00  0.00    -0.269 OA
HETATM   15  C14 UNL     1      17.508 -14.136  21.323  1.00  0.00     0.180 C 
HETATM   16  N5  UNL     1      16.975 -14.749  20.124  1.00  0.00    -0.346 N 
ATOM     17  H5  UNL     1      17.400 -14.479  19.238  1.00  0.00     0.163 HD
HETATM   18  C22 UNL     1      15.916 -15.688  20.070  1.00  0.00     0.241 C 
HETATM   19  O3  UNL     1      15.971 -16.620  19.183  1.00  0.00    -0.271 OA
HETATM   20  C23 UNL     1      14.728 -15.703  20.948  1.00  0.00     0.177 C 
HETATM   21  N6  UNL     1      14.934 -16.241  22.252  1.00  0.00    -0.346 N 
ATOM     22  H6  UNL     1      14.992 -15.551  23.001  1.00  0.00     0.163 HD
HETATM   23  C28 UNL     1      15.069 -17.580  22.660  1.00  0.00     0.240 C 
HETATM   24  O4  UNL     1      14.321 -18.027  23.601  1.00  0.00    -0.271 OA
HETATM   25  C29 UNL     1      16.008 -18.596  22.124  1.00  0.00     0.172 C 
HETATM   26  C30 UNL     1      15.247 -19.675  21.349  1.00  0.00     0.042 C 
HETATM   27  N7  UNL     1      16.606 -19.279  23.254  1.00  0.00    -0.346 N 
ATOM     28  H7  UNL     1      16.038 -19.326  24.100  1.00  0.00     0.163 HD
HETATM   29  C31 UNL     1      17.859 -19.879  23.329  1.00  0.00     0.241 C 
HETATM   30  O5  UNL     1      17.978 -21.057  23.772  1.00  0.00    -0.271 OA
ENDROOT
BRANCH  15  31
HETATM   31  C15 UNL     1      17.224 -12.662  21.393  1.00  0.00     0.063 C 
BRANCH  31  32
HETATM   32  C16 UNL     1      15.800 -12.298  21.628  1.00  0.00     0.239 C 
BRANCH  32  33
HETATM   33  N4  UNL     1      15.205 -11.579  20.529  1.00  0.00    -0.071 N 
HETATM   34  C17 UNL     1      14.082 -12.289  19.949  1.00  0.00     0.272 C 
BRANCH  33  35
HETATM   35  C18 UNL     1      14.643 -10.348  21.108  1.00  0.00     0.232 C 
HETATM   36  C19 UNL     1      13.476 -10.652  22.021  1.00  0.00     0.035 C 
ENDBRANCH  33  35
BRANCH  33  37
HETATM   37  C20 UNL     1      16.116 -11.174  19.505  1.00  0.00     0.232 C 
HETATM   38  C21 UNL     1      15.823 -11.825  18.166  1.00  0.00     0.035 C 
ENDBRANCH  33  37
ENDBRANCH  32  33
ENDBRANCH  31  32
ENDBRANCH  15  31
BRANCH  20  39
HETATM   39  C24 UNL     1      13.583 -16.346  20.178  1.00  0.00     0.038 C 
BRANCH  39  40
HETATM   40  C25 UNL     1      12.233 -15.951  20.662  1.00  0.00    -0.020 C 
HETATM   41  C26 UNL     1      11.604 -17.199  21.299  1.00  0.00     0.009 C 
HETATM   42  C27 UNL     1      11.304 -15.557  19.535  1.00  0.00     0.009 C 
ENDBRANCH  39  40
ENDBRANCH  20  39
BRANCH   8  43
HETATM   43  C10 UNL     1      21.183 -13.992  25.262  1.00  0.00     0.026 C 
HETATM   44  C11 UNL     1      21.949 -13.176  24.302  1.00  0.00     0.016 C 
HETATM   45  C12 UNL     1      20.659 -13.024  26.355  1.00  0.00     0.016 C 
ENDBRANCH   8  43
BRANCH   4  46
HETATM   46  O1  UNL     1      17.997 -16.280  24.282  1.00  0.00    -0.349 OA
ATOM     47  H1  UNL     1      17.479 -16.681  24.971  1.00  0.00     0.219 HD
ENDBRANCH   4  46
BRANCH   1  48
HETATM   48  C3  UNL     1      19.401 -19.798  21.513  1.00  0.00     0.034 C 
BRANCH  48  49
HETATM   49  C2  UNL     1      19.359 -18.695  20.509  1.00  0.00    -0.002 C 
HETATM   50  C1  UNL     1      18.554 -18.970  19.284  1.00  0.00     0.005 C 
ENDBRANCH  48  49
ENDBRANCH   1  48
TORSDOF 11
ENDMDL
MODEL 5
REMARK VINA RESULT: -6.455621751      2.527      6.300
REMARK  11 active torsions:
REMARK  status: ('A' for Active; 'I' for Inactive)
REMARK    1  A    between atoms: C2_2  and  C3_3 
REMARK    2  A    between atoms: C3_3  and  C4_4 
REMARK    3  A    between atoms: C5_7  and  O1_8 
REMARK    4  A    between atoms: C9_13  and  C10_14 
REMARK    5  A    between atoms: C14_23  and  C15_24 
REMARK    6  A    between atoms: C15_24  and  C16_25 
REMARK    7  A    between atoms: C16_25  and  N4_26 
REMARK    8  A    between atoms: N4_26  and  C18_28 
REMARK    9  A    between atoms: N4_26  and  C20_30 
REMARK   10  A    between atoms: C23_36  and  C24_37 
REMARK   11  A    between atoms: C24_37  and  C25_38 
ROOT
HETATM    1  C4  UNL     1      19.178 -18.602  23.157  1.00  0.00     0.175 C 
HETATM    2  N1  UNL     1      18.951 -17.189  22.979  1.00  0.00    -0.360 N 
ATOM      3  H1  UNL     1      18.822 -16.906  22.008  1.00  0.00     0.162 HD
HETATM    4  C5  UNL     1      18.874 -16.150  23.889  1.00  0.00     0.126 C 
HETATM    5  C6  UNL     1      19.958 -15.435  24.647  1.00  0.00     0.057 C 
HETATM    6  C7  UNL     1      19.674 -15.870  26.120  1.00  0.00     0.030 C 
HETATM    7  C8  UNL     1      21.320 -15.916  24.377  1.00  0.00     0.030 C 
HETATM    8  C9  UNL     1      19.651 -13.992  24.558  1.00  0.00     0.023 C 
HETATM    9  N2  UNL     1      18.912 -13.602  23.363  1.00  0.00    -0.305 N 
ATOM     10  H2  UNL     1      18.045 -13.067  23.427  1.00  0.00     0.186 HD
HETATM   11  N3  UNL     1      19.422 -13.979  22.166  1.00  0.00    -0.268 N 
ATOM     12  H3  UNL     1      20.391 -14.288  22.094  1.00  0.00     0.190 HD
HETATM   13  C13 UNL     1      18.592 -13.937  21.012  1.00  0.00     0.259 C 
HETATM   14  O2  UNL     1      19.158 -13.954  19.861  1.00  0.00    -0.269 OA
HETATM   15  C14 UNL     1      17.112 -13.875  21.016  1.00  0.00     0.180 C 
HETATM   16  N5  UNL     1      16.667 -14.654  19.880  1.00  0.00    -0.346 N 
ATOM     17  H5  UNL     1      17.090 -14.438  18.977  1.00  0.00     0.163 HD
HETATM   18  C22 UNL     1      15.699 -15.687  19.906  1.00  0.00     0.241 C 
HETATM   19  O3  UNL     1      15.861 -16.696  19.123  1.00  0.00    -0.271 OA
HETATM   20  C23 UNL     1      14.495 -15.722  20.761  1.00  0.00     0.177 C 
HETATM   21  N6  UNL     1      14.714 -16.101  22.118  1.00  0.00    -0.346 N 
ATOM     22  H6  UNL     1      14.690 -15.335  22.791  1.00  0.00     0.163 HD
HETATM   23  C28 UNL     1      14.957 -17.373  22.666  1.00  0.00     0.240 C 
HETATM   24  O4  UNL     1      14.228 -17.788  23.636  1.00  0.00    -0.271 OA
HETATM   25  C29 UNL     1      15.998 -18.347  22.256  1.00  0.00     0.172 C 
HETATM   26  C30 UNL     1      15.358 -19.566  21.585  1.00  0.00     0.042 C 
HETATM   27  N7  UNL     1      16.625 -18.853  23.461  1.00  0.00    -0.346 N 
ATOM     28  H7  UNL     1      16.042 -18.865  24.297  1.00  0.00     0.163 HD
HETATM   29  C31 UNL     1      17.925 -19.324  23.619  1.00  0.00     0.241 C 
HETATM   30  O5  UNL     1      18.138 -20.434  24.185  1.00  0.00    -0.271 OA
ENDROOT
BRANCH  15  31
HETATM   31  C15 UNL     1      16.694 -12.434  20.927  1.00  0.00     0.063 C 
BRANCH  31  32
HETATM   32  C16 UNL     1      15.460 -12.080  21.680  1.00  0.00     0.239 C 
BRANCH  32  33
HETATM   33  N4  UNL     1      14.519 -11.309  20.906  1.00  0.00    -0.071 N 
HETATM   34  C17 UNL     1      15.095 -10.077  20.405  1.00  0.00     0.272 C 
BRANCH  33  35
HETATM   35  C18 UNL     1      14.213 -12.120  19.717  1.00  0.00     0.232 C 
HETATM   36  C19 UNL     1      14.730 -11.465  18.456  1.00  0.00     0.035 C 
ENDBRANCH  33  35
BRANCH  33  37
HETATM   37  C20 UNL     1      13.274 -11.045  21.555  1.00  0.00     0.232 C 
HETATM   38  C21 UNL     1      13.224  -9.669  22.193  1.00  0.00     0.035 C 
ENDBRANCH  33  37
ENDBRANCH  32  33
ENDBRANCH  31  32
ENDBRANCH  15  31
BRANCH  20  39
HETATM   39  C24 UNL     1      13.433 -16.543  20.044  1.00  0.00     0.038 C 
BRANCH  39  40
HETATM   40  C25 UNL     1      12.045 -16.268  20.501  1.00  0.00    -0.020 C 
HETATM   41  C26 UNL     1      11.550 -17.534  21.215  1.00  0.00     0.009 C 
HETATM   42  C27 UNL     1      11.087 -16.047  19.352  1.00  0.00     0.009 C 
ENDBRANCH  39  40
ENDBRANCH  20  39
BRANCH   8  43
HETATM   43  C10 UNL     1      20.654 -12.988  24.979  1.00  0.00     0.026 C 
HETATM   44  C11 UNL     1      20.917 -12.791  26.417  1.00  0.00     0.016 C 
HETATM   45  C12 UNL     1      22.023 -13.278  24.308  1.00  0.00     0.016 C 
ENDBRANCH   8  43
BRANCH   4  46
HETATM   46  O1  UNL     1      17.713 -15.649  24.191  1.00  0.00    -0.349 OA
ATOM     47  H1  UNL     1      17.081 -16.183  24.657  1.00  0.00     0.219 HD
ENDBRANCH   4  46
BRANCH   1  48
HETATM   48  C3  UNL     1      19.500 -19.288  21.831  1.00  0.00     0.034 C 
BRANCH  48  49
HETATM   49  C2  UNL     1      19.466 -18.286  20.726  1.00  0.00    -0.002 C 
HETATM   50  C1  UNL     1      18.692 -18.688  19.516  1.00  0.00     0.005 C 
ENDBRANCH  48  49
ENDBRANCH   1  48
TORSDOF 11
ENDMDL
