MODEL 1
REMARK VINA RESULT: -7.505322043      0.000      0.000
REMARK  11 active torsions:
REMARK  status: ('A' for Active; 'I' for Inactive)
REMARK    1  A    between atoms: C2_2  and  C3_3 
REMARK    2  A    between atoms: C3_3  and  C4_4 
REMARK    3  A    between atoms: C4_4  and  C5_5 
REMARK    4  A    between atoms: C7_10  and  C8_11 
REMARK    5  A    between atoms: C8_11  and  C9_12 
REMARK    6  A    between atoms: C9_12  and  C10_13 
REMARK    7  A    between atoms: C13_19  and  C14_20 
REMARK    8  A    between atoms: C14_20  and  C15_21 
REMARK    9  A    between atoms: C21_33  and  C22_34 
REMARK   10  A    between atoms: C22_34  and  C23_35 
REMARK   11  A    between atoms: C27_42  and  C28_43 
ROOT
HETATM    1  C5  UNL     1      19.378 -13.561  20.220  1.00  0.00     0.177 C 
HETATM    2  N1  UNL     1      18.931 -13.380  21.572  1.00  0.00    -0.346 N 
ATOM      3  H1  UNL     1      18.137 -12.755  21.713  1.00  0.00     0.163 HD
HETATM    4  C6  UNL     1      19.484 -13.982  22.732  1.00  0.00     0.241 C 
HETATM    5  O1  UNL     1      18.702 -13.955  23.748  1.00  0.00    -0.271 OA
HETATM    6  C7  UNL     1      20.785 -14.600  22.891  1.00  0.00     0.176 C 
HETATM    7  N2  UNL     1      20.944 -15.965  22.453  1.00  0.00    -0.346 N 
ATOM      8  H2  UNL     1      21.901 -16.309  22.533  1.00  0.00     0.163 HD
HETATM    9  C12 UNL     1      20.066 -16.897  21.950  1.00  0.00     0.241 C 
HETATM   10  O2  UNL     1      20.278 -17.328  20.746  1.00  0.00    -0.271 OA
HETATM   11  C13 UNL     1      18.866 -17.535  22.545  1.00  0.00     0.177 C 
HETATM   12  N3  UNL     1      18.739 -17.450  23.955  1.00  0.00    -0.348 N 
ATOM     13  H3  UNL     1      19.584 -17.473  24.526  1.00  0.00     0.163 HD
HETATM   14  C18 UNL     1      17.472 -17.332  24.608  1.00  0.00     0.219 C 
HETATM   15  O3  UNL     1      17.363 -17.837  25.760  1.00  0.00    -0.274 OA
HETATM   16  C19 UNL     1      16.291 -16.672  24.040  1.00  0.00     0.130 C 
HETATM   17  C20 UNL     1      15.329 -17.570  23.346  1.00  0.00     0.242 C 
HETATM   18  N4  UNL     1      14.219 -16.742  22.862  1.00  0.00    -0.062 N 
ATOM     19  H41 UNL     1      14.431 -15.751  22.977  1.00  0.00     0.278 HD
ATOM     20  H42 UNL     1      13.415 -16.816  23.485  1.00  0.00     0.278 HD
HETATM   21  C21 UNL     1      13.849 -17.022  21.536  1.00  0.00     0.277 C 
HETATM   22  C26 UNL     1      14.647 -16.428  20.450  1.00  0.00     0.249 C 
HETATM   23  O4  UNL     1      15.302 -17.265  19.723  1.00  0.00    -0.271 OA
HETATM   24  N5  UNL     1      14.790 -15.083  20.092  1.00  0.00    -0.346 N 
ATOM     25  H5  UNL     1      14.472 -14.845  19.152  1.00  0.00     0.163 HD
HETATM   26  C27 UNL     1      15.327 -13.972  20.867  1.00  0.00     0.176 C 
HETATM   27  C30 UNL     1      16.024 -12.999  19.969  1.00  0.00     0.247 C 
HETATM   28  O5  UNL     1      15.645 -11.775  19.998  1.00  0.00    -0.271 OA
HETATM   29  N6  UNL     1      17.070 -13.274  19.076  1.00  0.00    -0.294 N 
ATOM     30  H6  UNL     1      16.915 -12.948  18.122  1.00  0.00     0.171 HD
HETATM   31  C31 UNL     1      18.294 -13.925  19.282  1.00  0.00     0.247 C 
HETATM   32  O6  UNL     1      18.514 -14.973  18.568  1.00  0.00    -0.271 OA
ENDROOT
BRANCH   1  33
HETATM   33  C4  UNL     1      20.081 -12.287  19.726  1.00  0.00     0.035 C 
BRANCH  33  34
HETATM   34  C3  UNL     1      21.358 -12.700  19.055  1.00  0.00     0.002 C 
BRANCH  34  35
HETATM   35  C2  UNL     1      21.344 -12.177  17.624  1.00  0.00    -0.004 C 
HETATM   36  C1  UNL     1      20.969 -13.352  16.732  1.00  0.00     0.005 C 
ENDBRANCH  34  35
ENDBRANCH  33  34
ENDBRANCH   1  33
BRANCH   6  37
HETATM   37  C8  UNL     1      21.274 -14.444  24.343  1.00  0.00     0.035 C 
BRANCH  37  38
HETATM   38  C9  UNL     1      22.118 -13.204  24.467  1.00  0.00     0.002 C 
BRANCH  38  39
HETATM   39  C10 UNL     1      21.344 -12.228  25.332  1.00  0.00    -0.004 C 
HETATM   40  C11 UNL     1      20.629 -12.975  26.456  1.00  0.00     0.005 C 
ENDBRANCH  38  39
ENDBRANCH  37  38
ENDBRANCH   6  37
BRANCH  26  41
HETATM   41  C28 UNL     1      14.102 -13.245  21.422  1.00  0.00     0.030 C 
HETATM   42  C29 UNL     1      12.958 -13.424  20.457  1.00  0.00     0.007 C 
ENDBRANCH  26  41
BRANCH  11  43
HETATM   43  C14 UNL     1      18.743 -18.978  22.090  1.00  0.00     0.038 C 
BRANCH  43  44
HETATM   44  C15 UNL     1      17.571 -19.285  21.240  1.00  0.00    -0.020 C 
HETATM   45  C16 UNL     1      16.839 -20.507  21.826  1.00  0.00     0.009 C 
HETATM   46  C17 UNL     1      17.880 -19.670  19.813  1.00  0.00     0.009 C 
ENDBRANCH  43  44
ENDBRANCH  11  43
BRANCH  21  47
HETATM   47  C22 UNL     1      12.366 -16.795  21.334  1.00  0.00     0.046 C 
BRANCH  47  48
HETATM   48  C23 UNL     1      11.888 -17.262  20.005  1.00  0.00    -0.020 C 
HETATM   49  C24 UNL     1      10.734 -16.303  19.624  1.00  0.00     0.009 C 
HETATM   50  C25 UNL     1      11.219 -18.633  20.078  1.00  0.00     0.009 C 
ENDBRANCH  47  48
ENDBRANCH  21  47
TORSDOF 11
ENDMDL
MODEL 2
REMARK VINA RESULT: -7.337780943      1.570      5.802
REMARK  11 active torsions:
REMARK  status: ('A' for Active; 'I' for Inactive)
REMARK    1  A    between atoms: C2_2  and  C3_3 
REMARK    2  A    between atoms: C3_3  and  C4_4 
REMARK    3  A    between atoms: C4_4  and  C5_5 
REMARK    4  A    between atoms: C7_10  and  C8_11 
REMARK    5  A    between atoms: C8_11  and  C9_12 
REMARK    6  A    between atoms: C9_12  and  C10_13 
REMARK    7  A    between atoms: C13_19  and  C14_20 
REMARK    8  A    between atoms: C14_20  and  C15_21 
REMARK    9  A    between atoms: C21_33  and  C22_34 
REMARK   10  A    between atoms: C22_34  and  C23_35 
REMARK   11  A    between atoms: C27_42  and  C28_43 
ROOT
HETATM    1  C5  UNL     1      19.371 -14.668  24.067  1.00  0.00     0.177 C 
HETATM    2  N1  UNL     1      19.731 -15.460  22.925  1.00  0.00    -0.346 N 
ATOM      3  H1  UNL     1      19.790 -16.469  23.066  1.00  0.00     0.163 HD
HETATM    4  C6  UNL     1      20.014 -14.980  21.619  1.00  0.00     0.241 C 
HETATM    5  O1  UNL     1      19.948 -15.886  20.714  1.00  0.00    -0.271 OA
HETATM    6  C7  UNL     1      20.356 -13.633  21.211  1.00  0.00     0.176 C 
HETATM    7  N2  UNL     1      19.281 -12.691  21.017  1.00  0.00    -0.346 N 
ATOM      8  H2  UNL     1      19.602 -11.747  20.798  1.00  0.00     0.163 HD
HETATM    9  C12 UNL     1      17.911 -12.808  21.067  1.00  0.00     0.241 C 
HETATM   10  O2  UNL     1      17.285 -12.116  21.967  1.00  0.00    -0.271 OA
HETATM   11  C13 UNL     1      16.966 -13.609  20.252  1.00  0.00     0.177 C 
HETATM   12  N3  UNL     1      17.458 -14.103  19.017  1.00  0.00    -0.348 N 
ATOM     13  H3  UNL     1      18.126 -13.538  18.493  1.00  0.00     0.163 HD
HETATM   14  C18 UNL     1      17.053 -15.364  18.477  1.00  0.00     0.219 C 
HETATM   15  O3  UNL     1      17.027 -15.476  17.219  1.00  0.00    -0.274 OA
HETATM   16  C19 UNL     1      16.665 -16.535  19.272  1.00  0.00     0.130 C 
HETATM   17  C20 UNL     1      15.204 -16.691  19.508  1.00  0.00     0.242 C 
HETATM   18  N4  UNL     1      15.011 -17.911  20.300  1.00  0.00    -0.062 N 
ATOM     19  H41 UNL     1      15.906 -18.276  20.625  1.00  0.00     0.278 HD
ATOM     20  H42 UNL     1      14.718 -18.686  19.704  1.00  0.00     0.278 HD
HETATM   21  C21 UNL     1      14.121 -17.745  21.374  1.00  0.00     0.277 C 
HETATM   22  C26 UNL     1      14.630 -17.129  22.612  1.00  0.00     0.249 C 
HETATM   23  O4  UNL     1      14.126 -15.982  22.907  1.00  0.00    -0.271 OA
HETATM   24  N5  UNL     1      15.580 -17.618  23.516  1.00  0.00    -0.346 N 
ATOM     25  H5  UNL     1      15.240 -17.771  24.465  1.00  0.00     0.163 HD
HETATM   26  C27 UNL     1      16.983 -17.940  23.298  1.00  0.00     0.176 C 
HETATM   27  C30 UNL     1      17.782 -17.650  24.530  1.00  0.00     0.247 C 
HETATM   28  O5  UNL     1      18.482 -18.599  25.032  1.00  0.00    -0.271 OA
HETATM   29  N6  UNL     1      17.858 -16.430  25.219  1.00  0.00    -0.294 N 
ATOM     30  H6  UNL     1      17.672 -16.492  26.220  1.00  0.00     0.171 HD
HETATM   31  C31 UNL     1      18.149 -15.140  24.754  1.00  0.00     0.247 C 
HETATM   32  O6  UNL     1      17.246 -14.244  24.945  1.00  0.00    -0.271 OA
ENDROOT
BRANCH   1  33
HETATM   33  C4  UNL     1      20.540 -14.627  25.064  1.00  0.00     0.035 C 
BRANCH  33  34
HETATM   34  C3  UNL     1      20.237 -13.565  26.080  1.00  0.00     0.002 C 
BRANCH  34  35
HETATM   35  C2  UNL     1      21.352 -12.526  26.041  1.00  0.00    -0.004 C 
HETATM   36  C1  UNL     1      22.261 -12.902  24.880  1.00  0.00     0.005 C 
ENDBRANCH  34  35
ENDBRANCH  33  34
ENDBRANCH   1  33
BRANCH   6  37
HETATM   37  C8  UNL     1      21.267 -13.668  19.970  1.00  0.00     0.035 C 
BRANCH  37  38
HETATM   38  C9  UNL     1      21.246 -12.329  19.282  1.00  0.00     0.002 C 
BRANCH  38  39
HETATM   39  C10 UNL     1      21.218 -12.601  17.791  1.00  0.00    -0.004 C 
HETATM   40  C11 UNL     1      20.773 -14.039  17.527  1.00  0.00     0.005 C 
ENDBRANCH  38  39
ENDBRANCH  37  38
ENDBRANCH   6  37
BRANCH  26  41
HETATM   41  C28 UNL     1      17.019 -19.457  23.109  1.00  0.00     0.030 C 
HETATM   42  C29 UNL     1      17.656 -19.760  21.776  1.00  0.00     0.007 C 
ENDBRANCH  26  41
BRANCH  11  43
HETATM   43  C14 UNL     1      15.666 -12.855  20.039  1.00  0.00     0.038 C 
BRANCH  43  44
HETATM   44  C15 UNL     1      14.570 -13.186  20.977  1.00  0.00    -0.020 C 
HETATM   45  C16 UNL     1      13.379 -13.743  20.174  1.00  0.00     0.009 C 
HETATM   46  C17 UNL     1      13.999 -12.022  21.753  1.00  0.00     0.009 C 
ENDBRANCH  43  44
ENDBRANCH  11  43
BRANCH  21  47
HETATM   47  C22 UNL     1      13.370 -19.029  21.652  1.00  0.00     0.046 C 
BRANCH  47  48
HETATM   48  C23 UNL     1      11.899 -18.829  21.745  1.00  0.00    -0.020 C 
HETATM   49  C24 UNL     1      11.272 -20.042  21.017  1.00  0.00     0.009 C 
HETATM   50  C25 UNL     1      11.425 -17.625  20.933  1.00  0.00     0.009 C 
ENDBRANCH  47  48
ENDBRANCH  21  47
TORSDOF 11
ENDMDL
MODEL 3
REMARK VINA RESULT: -7.275973112      1.767      5.955
REMARK  11 active torsions:
REMARK  status: ('A' for Active; 'I' for Inactive)
REMARK    1  A    between atoms: C2_2  and  C3_3 
REMARK    2  A    between atoms: C3_3  and  C4_4 
REMARK    3  A    between atoms: C4_4  and  C5_5 
REMARK    4  A    between atoms: C7_10  and  C8_11 
REMARK    5  A    between atoms: C8_11  and  C9_12 
REMARK    6  A    between atoms: C9_12  and  C10_13 
REMARK    7  A    between atoms: C13_19  and  C14_20 
REMARK    8  A    between atoms: C14_20  and  C15_21 
REMARK    9  A    between atoms: C21_33  and  C22_34 
REMARK   10  A    between atoms: C22_34  and  C23_35 
REMARK   11  A    between atoms: C27_42  and  C28_43 
ROOT
HETATM    1  C5  UNL     1      19.405 -15.902  24.448  1.00  0.00     0.177 C 
HETATM    2  N1  UNL     1      19.809 -16.354  23.146  1.00  0.00    -0.346 N 
ATOM      3  H1  UNL     1      19.903 -17.362  23.019  1.00  0.00     0.163 HD
HETATM    4  C6  UNL     1      20.089 -15.539  22.018  1.00  0.00     0.241 C 
HETATM    5  O1  UNL     1      20.068 -16.177  20.906  1.00  0.00    -0.271 OA
HETATM    6  C7  UNL     1      20.385 -14.121  21.985  1.00  0.00     0.176 C 
HETATM    7  N2  UNL     1      19.279 -13.197  22.021  1.00  0.00    -0.346 N 
ATOM      8  H2  UNL     1      19.567 -12.219  22.064  1.00  0.00     0.163 HD
HETATM    9  C12 UNL     1      17.913 -13.368  22.009  1.00  0.00     0.241 C 
HETATM   10  O2  UNL     1      17.251 -12.958  23.046  1.00  0.00    -0.271 OA
HETATM   11  C13 UNL     1      17.009 -13.958  20.992  1.00  0.00     0.177 C 
HETATM   12  N3  UNL     1      17.534 -14.094  19.682  1.00  0.00    -0.348 N 
ATOM     13  H3  UNL     1      18.187 -13.390  19.340  1.00  0.00     0.163 HD
HETATM   14  C18 UNL     1      17.183 -15.182  18.822  1.00  0.00     0.219 C 
HETATM   15  O3  UNL     1      17.177 -14.960  17.579  1.00  0.00    -0.274 OA
HETATM   16  C19 UNL     1      16.829 -16.532  19.274  1.00  0.00     0.130 C 
HETATM   17  C20 UNL     1      15.373 -16.792  19.429  1.00  0.00     0.242 C 
HETATM   18  N4  UNL     1      15.216 -18.183  19.870  1.00  0.00    -0.062 N 
ATOM     19  H41 UNL     1      16.120 -18.591  20.107  1.00  0.00     0.278 HD
ATOM     20  H42 UNL     1      14.959 -18.783  19.086  1.00  0.00     0.278 HD
HETATM   21  C21 UNL     1      14.307 -18.334  20.931  1.00  0.00     0.277 C 
HETATM   22  C26 UNL     1      14.777 -18.049  22.297  1.00  0.00     0.249 C 
HETATM   23  O4  UNL     1      14.228 -17.036  22.871  1.00  0.00    -0.271 OA
HETATM   24  N5  UNL     1      15.734 -18.727  23.062  1.00  0.00    -0.346 N 
ATOM     25  H5  UNL     1      15.388 -19.134  23.930  1.00  0.00     0.163 HD
HETATM   26  C27 UNL     1      17.151 -18.934  22.798  1.00  0.00     0.176 C 
HETATM   27  C30 UNL     1      17.924 -18.951  24.079  1.00  0.00     0.247 C 
HETATM   28  O5  UNL     1      18.652 -19.975  24.330  1.00  0.00    -0.271 OA
HETATM   29  N6  UNL     1      17.946 -17.953  25.065  1.00  0.00    -0.294 N 
ATOM     30  H6  UNL     1      17.750 -18.282  26.010  1.00  0.00     0.171 HD
HETATM   31  C31 UNL     1      18.194 -16.578  24.960  1.00  0.00     0.247 C 
HETATM   32  O6  UNL     1      17.255 -15.793  25.360  1.00  0.00    -0.271 OA
ENDROOT
BRANCH   1  33
HETATM   33  C4  UNL     1      20.560 -16.085  25.446  1.00  0.00     0.035 C 
BRANCH  33  34
HETATM   34  C3  UNL     1      21.320 -14.792  25.508  1.00  0.00     0.002 C 
BRANCH  34  35
HETATM   35  C2  UNL     1      20.325 -13.657  25.718  1.00  0.00    -0.004 C 
HETATM   36  C1  UNL     1      21.100 -12.359  25.546  1.00  0.00     0.005 C 
ENDBRANCH  34  35
ENDBRANCH  33  34
ENDBRANCH   1  33
BRANCH   6  37
HETATM   37  C8  UNL     1      21.312 -13.800  20.798  1.00  0.00     0.035 C 
BRANCH  37  38
HETATM   38  C9  UNL     1      20.765 -12.630  20.025  1.00  0.00     0.002 C 
BRANCH  38  39
HETATM   39  C10 UNL     1      21.307 -12.743  18.613  1.00  0.00    -0.004 C 
HETATM   40  C11 UNL     1      20.845 -14.053  17.977  1.00  0.00     0.005 C 
ENDBRANCH  38  39
ENDBRANCH  37  38
ENDBRANCH   6  37
BRANCH  26  41
HETATM   41  C28 UNL     1      17.246 -20.346  22.218  1.00  0.00     0.030 C 
HETATM   42  C29 UNL     1      17.910 -20.267  20.867  1.00  0.00     0.007 C 
ENDBRANCH  26  41
BRANCH  11  43
HETATM   43  C14 UNL     1      15.684 -13.217  20.957  1.00  0.00     0.038 C 
BRANCH  43  44
HETATM   44  C15 UNL     1      15.692 -11.921  20.243  1.00  0.00    -0.020 C 
HETATM   45  C16 UNL     1      14.985 -10.868  21.118  1.00  0.00     0.009 C 
HETATM   46  C17 UNL     1      14.947 -11.892  18.930  1.00  0.00     0.009 C 
ENDBRANCH  43  44
ENDBRANCH  11  43
BRANCH  21  47
HETATM   47  C22 UNL     1      13.602 -19.671  20.846  1.00  0.00     0.046 C 
BRANCH  47  48
HETATM   48  C23 UNL     1      12.120 -19.544  20.894  1.00  0.00    -0.020 C 
HETATM   49  C24 UNL     1      11.814 -18.108  20.403  1.00  0.00     0.009 C 
HETATM   50  C25 UNL     1      11.582 -19.569  22.323  1.00  0.00     0.009 C 
ENDBRANCH  47  48
ENDBRANCH  21  47
TORSDOF 11
ENDMDL
MODEL 4
REMARK VINA RESULT: -7.237679050      1.965      7.714
REMARK  11 active torsions:
REMARK  status: ('A' for Active; 'I' for Inactive)
REMARK    1  A    between atoms: C2_2  and  C3_3 
REMARK    2  A    between atoms: C3_3  and  C4_4 
REMARK    3  A    between atoms: C4_4  and  C5_5 
REMARK    4  A    between atoms: C7_10  and  C8_11 
REMARK    5  A    between atoms: C8_11  and  C9_12 
REMARK    6  A    between atoms: C9_12  and  C10_13 
REMARK    7  A    between atoms: C13_19  and  C14_20 
REMARK    8  A    between atoms: C14_20  and  C15_21 
REMARK    9  A    between atoms: C21_33  and  C22_34 
REMARK   10  A    between atoms: C22_34  and  C23_35 
REMARK   11  A    between atoms: C27_42  and  C28_43 
ROOT
HETATM    1  C5  UNL     1      14.701 -15.931  21.483  1.00  0.00     0.177 C 
HETATM    2  N1  UNL     1      15.232 -14.784  22.164  1.00  0.00    -0.346 N 
ATOM      3  H1  UNL     1      15.461 -14.902  23.151  1.00  0.00     0.163 HD
HETATM    4  C6  UNL     1      15.473 -13.504  21.601  1.00  0.00     0.241 C 
HETATM    5  O1  UNL     1      16.272 -12.779  22.294  1.00  0.00    -0.271 OA
HETATM    6  C7  UNL     1      14.934 -12.944  20.377  1.00  0.00     0.176 C 
HETATM    7  N2  UNL     1      15.574 -13.296  19.134  1.00  0.00    -0.346 N 
ATOM      8  H2  UNL     1      15.100 -12.921  18.312  1.00  0.00     0.163 HD
HETATM    9  C12 UNL     1      16.694 -14.036  18.831  1.00  0.00     0.241 C 
HETATM   10  O2  UNL     1      16.528 -15.111  18.127  1.00  0.00    -0.271 OA
HETATM   11  C13 UNL     1      18.124 -13.832  19.171  1.00  0.00     0.177 C 
HETATM   12  N3  UNL     1      18.492 -12.531  19.599  1.00  0.00    -0.348 N 
ATOM     13  H3  UNL     1      18.014 -11.728  19.193  1.00  0.00     0.163 HD
HETATM   14  C18 UNL     1      19.510 -12.303  20.578  1.00  0.00     0.219 C 
HETATM   15  O3  UNL     1      20.177 -11.235  20.484  1.00  0.00    -0.274 OA
HETATM   16  C19 UNL     1      19.837 -13.215  21.680  1.00  0.00     0.130 C 
HETATM   17  C20 UNL     1      20.954 -14.161  21.415  1.00  0.00     0.242 C 
HETATM   18  N4  UNL     1      21.143 -14.973  22.622  1.00  0.00    -0.062 N 
ATOM     19  H41 UNL     1      20.388 -14.810  23.289  1.00  0.00     0.278 HD
ATOM     20  H42 UNL     1      21.931 -14.628  23.170  1.00  0.00     0.278 HD
HETATM   21  C21 UNL     1      21.284 -16.346  22.357  1.00  0.00     0.277 C 
HETATM   22  C26 UNL     1      20.066 -17.139  22.122  1.00  0.00     0.249 C 
HETATM   23  O4  UNL     1      19.938 -17.619  20.934  1.00  0.00    -0.271 OA
HETATM   24  N5  UNL     1      19.029 -17.450  23.010  1.00  0.00    -0.346 N 
ATOM     25  H5  UNL     1      18.897 -18.445  23.194  1.00  0.00     0.163 HD
HETATM   26  C27 UNL     1      18.113 -16.561  23.710  1.00  0.00     0.176 C 
HETATM   27  C30 UNL     1      16.774 -17.210  23.869  1.00  0.00     0.247 C 
HETATM   28  O5  UNL     1      16.291 -17.314  25.051  1.00  0.00    -0.271 OA
HETATM   29  N6  UNL     1      15.964 -17.734  22.850  1.00  0.00    -0.294 N 
ATOM     30  H6  UNL     1      15.651 -18.693  23.003  1.00  0.00     0.171 HD
HETATM   31  C31 UNL     1      15.515 -17.153  21.656  1.00  0.00     0.247 C 
HETATM   32  O6  UNL     1      15.845 -17.752  20.566  1.00  0.00    -0.271 OA
ENDROOT
BRANCH   1  33
HETATM   33  C4  UNL     1      13.262 -16.197  21.954  1.00  0.00     0.035 C 
BRANCH  33  34
HETATM   34  C3  UNL     1      12.334 -15.487  21.012  1.00  0.00     0.002 C 
BRANCH  34  35
HETATM   35  C2  UNL     1      12.286 -16.265  19.702  1.00  0.00    -0.004 C 
HETATM   36  C1  UNL     1      10.843 -16.221  19.219  1.00  0.00     0.005 C 
ENDBRANCH  34  35
ENDBRANCH  33  34
ENDBRANCH   1  33
BRANCH   6  37
HETATM   37  C8  UNL     1      14.812 -11.414  20.502  1.00  0.00     0.035 C 
BRANCH  37  38
HETATM   38  C9  UNL     1      13.459 -11.053  21.055  1.00  0.00     0.002 C 
BRANCH  38  39
HETATM   39  C10 UNL     1      13.644  -9.801  21.889  1.00  0.00    -0.004 C 
HETATM   40  C11 UNL     1      12.386  -9.526  22.711  1.00  0.00     0.005 C 
ENDBRANCH  38  39
ENDBRANCH  37  38
ENDBRANCH   6  37
BRANCH  26  41
HETATM   41  C28 UNL     1      18.693 -16.418  25.118  1.00  0.00     0.030 C 
HETATM   42  C29 UNL     1      18.942 -14.956  25.388  1.00  0.00     0.007 C 
ENDBRANCH  26  41
BRANCH  11  43
HETATM   43  C14 UNL     1      19.018 -14.287  18.032  1.00  0.00     0.038 C 
BRANCH  43  44
HETATM   44  C15 UNL     1      19.630 -13.208  17.226  1.00  0.00    -0.020 C 
HETATM   45  C16 UNL     1      18.811 -13.026  15.934  1.00  0.00     0.009 C 
HETATM   46  C17 UNL     1      21.042 -13.466  16.753  1.00  0.00     0.009 C 
ENDBRANCH  43  44
ENDBRANCH  11  43
BRANCH  21  47
HETATM   47  C22 UNL     1      22.193 -16.998  23.376  1.00  0.00     0.046 C 
BRANCH  47  48
HETATM   48  C23 UNL     1      23.000 -16.011  24.143  1.00  0.00    -0.020 C 
HETATM   49  C24 UNL     1      24.472 -16.452  23.957  1.00  0.00     0.009 C 
HETATM   50  C25 UNL     1      22.770 -16.119  25.649  1.00  0.00     0.009 C 
ENDBRANCH  47  48
ENDBRANCH  21  47
TORSDOF 11
ENDMDL
MODEL 5
REMARK VINA RESULT: -7.136018143      0.944      1.069
REMARK  11 active torsions:
REMARK  status: ('A' for Active; 'I' for Inactive)
REMARK    1  A    between atoms: C2_2  and  C3_3 
REMARK    2  A    between atoms: C3_3  and  C4_4 
REMARK    3  A    between atoms: C4_4  and  C5_5 
REMARK    4  A    between atoms: C7_10  and  C8_11 
REMARK    5  A    between atoms: C8_11  and  C9_12 
REMARK    6  A    between atoms: C9_12  and  C10_13 
REMARK    7  A    between atoms: C13_19  and  C14_20 
REMARK    8  A    between atoms: C14_20  and  C15_21 
REMARK    9  A    between atoms: C21_33  and  C22_34 
REMARK   10  A    between atoms: C22_34  and  C23_35 
REMARK   11  A    between atoms: C27_42  and  C28_43 
ROOT
HETATM    1  C5  UNL     1      19.204 -14.025  21.138  1.00  0.00     0.177 C 
HETATM    2  N1  UNL     1      18.539 -13.992  22.410  1.00  0.00    -0.346 N 
ATOM      3  H1  UNL     1      17.742 -13.361  22.494  1.00  0.00     0.163 HD
HETATM    4  C6  UNL     1      18.880 -14.749  23.561  1.00  0.00     0.241 C 
HETATM    5  O1  UNL     1      17.938 -14.816  24.429  1.00  0.00    -0.271 OA
HETATM    6  C7  UNL     1      20.126 -15.427  23.854  1.00  0.00     0.176 C 
HETATM    7  N2  UNL     1      20.336 -16.734  23.282  1.00  0.00    -0.346 N 
ATOM      8  H2  UNL     1      21.261 -17.119  23.476  1.00  0.00     0.163 HD
HETATM    9  C12 UNL     1      19.542 -17.567  22.528  1.00  0.00     0.241 C 
HETATM   10  O2  UNL     1      19.947 -17.857  21.332  1.00  0.00    -0.271 OA
HETATM   11  C13 UNL     1      18.250 -18.229  22.834  1.00  0.00     0.177 C 
HETATM   12  N3  UNL     1      17.889 -18.310  24.203  1.00  0.00    -0.348 N 
ATOM     13  H3  UNL     1      18.625 -18.431  24.898  1.00  0.00     0.163 HD
HETATM   14  C18 UNL     1      16.531 -18.227  24.646  1.00  0.00     0.219 C 
HETATM   15  O3  UNL     1      16.223 -18.862  25.693  1.00  0.00    -0.274 OA
HETATM   16  C19 UNL     1      15.473 -17.461  23.977  1.00  0.00     0.130 C 
HETATM   17  C20 UNL     1      14.628 -18.235  23.028  1.00  0.00     0.242 C 
HETATM   18  N4  UNL     1      13.628 -17.316  22.475  1.00  0.00    -0.062 N 
ATOM     19  H41 UNL     1      13.832 -16.353  22.745  1.00  0.00     0.278 HD
ATOM     20  H42 UNL     1      12.729 -17.436  22.942  1.00  0.00     0.278 HD
HETATM   21  C21 UNL     1      13.482 -17.421  21.081  1.00  0.00     0.277 C 
HETATM   22  C26 UNL     1      14.460 -16.729  20.224  1.00  0.00     0.249 C 
HETATM   23  O4  UNL     1      15.216 -17.495  19.517  1.00  0.00    -0.271 OA
HETATM   24  N5  UNL     1      14.682 -15.356  20.066  1.00  0.00    -0.346 N 
ATOM     25  H5  UNL     1      14.530 -14.997  19.123  1.00  0.00     0.163 HD
HETATM   26  C27 UNL     1      15.097 -14.367  21.050  1.00  0.00     0.176 C 
HETATM   27  C30 UNL     1      15.949 -13.318  20.408  1.00  0.00     0.247 C 
HETATM   28  O5  UNL     1      15.589 -12.093  20.526  1.00  0.00    -0.271 OA
HETATM   29  N6  UNL     1      17.126 -13.520  19.673  1.00  0.00    -0.294 N 
ATOM     30  H6  UNL     1      17.139 -13.076  18.755  1.00  0.00     0.171 HD
HETATM   31  C31 UNL     1      18.289 -14.234  19.996  1.00  0.00     0.247 C 
HETATM   32  O6  UNL     1      18.610 -15.196  19.204  1.00  0.00    -0.271 OA
ENDROOT
BRANCH   1  33
HETATM   33  C4  UNL     1      20.000 -12.726  20.930  1.00  0.00     0.035 C 
BRANCH  33  34
HETATM   34  C3  UNL     1      21.345 -13.097  20.378  1.00  0.00     0.002 C 
BRANCH  34  35
HETATM   35  C2  UNL     1      21.662 -12.170  19.211  1.00  0.00    -0.004 C 
HETATM   36  C1  UNL     1      21.083 -12.821  17.964  1.00  0.00     0.005 C 
ENDBRANCH  34  35
ENDBRANCH  33  34
ENDBRANCH   1  33
BRANCH   6  37
HETATM   37  C8  UNL     1      20.366 -15.464  25.375  1.00  0.00     0.035 C 
BRANCH  37  38
HETATM   38  C9  UNL     1      21.490 -14.530  25.738  1.00  0.00     0.002 C 
BRANCH  38  39
HETATM   39  C10 UNL     1      20.854 -13.261  26.269  1.00  0.00    -0.004 C 
HETATM   40  C11 UNL     1      21.154 -12.091  25.331  1.00  0.00     0.005 C 
ENDBRANCH  38  39
ENDBRANCH  37  38
ENDBRANCH   6  37
BRANCH  26  41
HETATM   41  C28 UNL     1      13.806 -13.669  21.482  1.00  0.00     0.030 C 
HETATM   42  C29 UNL     1      12.839 -13.688  20.325  1.00  0.00     0.007 C 
ENDBRANCH  26  41
BRANCH  11  43
HETATM   43  C14 UNL     1      18.183 -19.601  22.188  1.00  0.00     0.038 C 
BRANCH  43  44
HETATM   44  C15 UNL     1      17.165 -19.763  21.126  1.00  0.00    -0.020 C 
HETATM   45  C16 UNL     1      16.324 -21.017  21.431  1.00  0.00     0.009 C 
HETATM   46  C17 UNL     1      17.702 -19.990  19.733  1.00  0.00     0.009 C 
ENDBRANCH  43  44
ENDBRANCH  11  43
BRANCH  21  47
HETATM   47  C22 UNL     1      12.058 -17.119  20.666  1.00  0.00     0.046 C 
BRANCH  47  48
HETATM   48  C23 UNL     1      11.844 -17.253  19.200  1.00  0.00    -0.020 C 
HETATM   49  C24 UNL     1      10.697 -16.270  18.861  1.00  0.00     0.009 C 
HETATM   50  C25 UNL     1      11.282 -18.621  18.819  1.00  0.00     0.009 C 
ENDBRANCH  47  48
ENDBRANCH  21  47
TORSDOF 11
ENDMDL
