MODEL 1
REMARK VINA RESULT: -11.770592478      0.000      0.000
REMARK  5 active torsions:
REMARK  status: ('A' for Active; 'I' for Inactive)
REMARK    1  A    between atoms: C6_7  and  N2_8 
REMARK       I    between atoms: N2_8  and  C7_10 
REMARK    2  A    between atoms: C7_10  and  C8_12 
REMARK    3  A    between atoms: C12_16  and  N3_17 
REMARK       I    between atoms: N3_17  and  C13_19 
REMARK    4  A    between atoms: C13_19  and  C14_21 
REMARK    5  A    between atoms: C17_24  and  C18_25 
ROOT
HETATM    1  C8  UNL     1      62.379   2.023  -6.549  1.00  0.00     0.034 A 
HETATM    2  C9  UNL     1      61.433   2.474  -7.431  1.00  0.00     0.017 A 
HETATM    3  C10 UNL     1      60.563   3.457  -7.025  1.00  0.00     0.003 A 
HETATM    4  C11 UNL     1      60.686   3.935  -5.763  1.00  0.00     0.029 A 
HETATM    5  C12 UNL     1      61.647   3.491  -4.834  1.00  0.00     0.035 A 
HETATM    6  C26 UNL     1      62.509   2.515  -5.244  1.00  0.00     0.046 A 
ENDROOT
BRANCH   5   7
HETATM    7  N3  UNL     1      61.689   4.084  -3.552  1.00  0.00    -0.323 N 
HETATM    8  C13 UNL     1      61.128   5.303  -3.159  1.00  0.00     0.256 C 
HETATM    9  O2  UNL     1      60.498   6.050  -3.966  1.00  0.00    -0.267 OA
ATOM     10  H3  UNL     1      62.185   3.562  -2.830  1.00  0.00     0.169 HD
BRANCH   8  11
HETATM   11  C14 UNL     1      61.266   5.753  -1.770  1.00  0.00     0.032 A 
HETATM   12  C15 UNL     1      61.146   7.095  -1.435  1.00  0.00     0.018 A 
HETATM   13  C16 UNL     1      61.258   7.550  -0.138  1.00  0.00     0.013 A 
HETATM   14  C17 UNL     1      61.498   6.616   0.848  1.00  0.00    -0.026 A 
HETATM   15  C24 UNL     1      61.620   5.291   0.543  1.00  0.00     0.013 A 
HETATM   16  C25 UNL     1      61.503   4.860  -0.766  1.00  0.00     0.018 A 
BRANCH  14  17
HETATM   17  C18 UNL     1      61.636   6.996   2.253  1.00  0.00    -0.026 A 
HETATM   18  C19 UNL     1      62.516   6.352   3.094  1.00  0.00     0.012 A 
HETATM   19  C20 UNL     1      62.649   6.715   4.433  1.00  0.00     0.001 A 
HETATM   20  C21 UNL     1      61.892   7.741   4.958  1.00  0.00     0.000 A 
HETATM   21  C22 UNL     1      61.011   8.383   4.111  1.00  0.00     0.001 A 
HETATM   22  C23 UNL     1      60.874   8.024   2.766  1.00  0.00     0.012 A 
ENDBRANCH  14  17
ENDBRANCH   8  11
ENDBRANCH   5   7
BRANCH   1  23
HETATM   23  C7  UNL     1      63.351   0.972  -6.949  1.00  0.00     0.256 C 
HETATM   24  N2  UNL     1      64.638   0.969  -6.389  1.00  0.00    -0.321 N 
ATOM     25  H2  UNL     1      64.862   1.699  -5.713  1.00  0.00     0.169 HD
HETATM   26  O1  UNL     1      62.944   0.132  -7.786  1.00  0.00    -0.267 OA
BRANCH  24  27
HETATM   27  C6  UNL     1      65.637   0.032  -6.693  1.00  0.00     0.059 A 
HETATM   28  C1  UNL     1      65.609  -1.185  -5.987  1.00  0.00     0.073 A 
HETATM   29  N1  UNL     1      64.574  -1.366  -5.029  1.00  0.00    -0.100 NA
HETATM   30  C2  UNL     1      66.534  -2.182  -6.191  1.00  0.00     0.029 A 
HETATM   31  C3  UNL     1      67.549  -2.045  -7.108  1.00  0.00     0.002 A 
HETATM   32  C4  UNL     1      67.597  -0.868  -7.809  1.00  0.00     0.002 A 
HETATM   33  C5  UNL     1      66.652   0.153  -7.601  1.00  0.00     0.031 A 
ENDBRANCH  24  27
ENDBRANCH   1  23
TORSDOF 5
ENDMDL
MODEL 2
REMARK VINA RESULT: -11.742328953      0.697      1.393
REMARK  5 active torsions:
REMARK  status: ('A' for Active; 'I' for Inactive)
REMARK    1  A    between atoms: C6_7  and  N2_8 
REMARK       I    between atoms: N2_8  and  C7_10 
REMARK    2  A    between atoms: C7_10  and  C8_12 
REMARK    3  A    between atoms: C12_16  and  N3_17 
REMARK       I    between atoms: N3_17  and  C13_19 
REMARK    4  A    between atoms: C13_19  and  C14_21 
REMARK    5  A    between atoms: C17_24  and  C18_25 
ROOT
HETATM    1  C8  UNL     1      62.119   2.758  -6.379  1.00  0.00     0.034 A 
HETATM    2  C9  UNL     1      61.114   3.244  -7.173  1.00  0.00     0.017 A 
HETATM    3  C10 UNL     1      60.227   4.147  -6.642  1.00  0.00     0.003 A 
HETATM    4  C11 UNL     1      60.391   4.516  -5.348  1.00  0.00     0.029 A 
HETATM    5  C12 UNL     1      61.412   4.034  -4.507  1.00  0.00     0.035 A 
HETATM    6  C26 UNL     1      62.291   3.137  -5.041  1.00  0.00     0.046 A 
ENDROOT
BRANCH   5   7
HETATM    7  N3  UNL     1      61.491   4.512  -3.180  1.00  0.00    -0.323 N 
HETATM    8  C13 UNL     1      61.090   5.762  -2.699  1.00  0.00     0.256 C 
HETATM    9  O2  UNL     1      60.594   6.651  -3.454  1.00  0.00    -0.267 OA
ATOM     10  H3  UNL     1      61.887   3.870  -2.492  1.00  0.00     0.169 HD
BRANCH   8  11
HETATM   11  C14 UNL     1      61.241   6.077  -1.274  1.00  0.00     0.032 A 
HETATM   12  C15 UNL     1      61.315   5.071  -0.320  1.00  0.00     0.018 A 
HETATM   13  C16 UNL     1      61.468   5.332   1.024  1.00  0.00     0.013 A 
HETATM   14  C17 UNL     1      61.549   6.652   1.413  1.00  0.00    -0.026 A 
HETATM   15  C24 UNL     1      61.479   7.660   0.494  1.00  0.00     0.013 A 
HETATM   16  C25 UNL     1      61.325   7.371  -0.850  1.00  0.00     0.018 A 
BRANCH  14  17
HETATM   17  C18 UNL     1      61.710   7.036   2.816  1.00  0.00    -0.026 A 
HETATM   18  C19 UNL     1      60.988   8.069   3.371  1.00  0.00     0.012 A 
HETATM   19  C20 UNL     1      61.140   8.432   4.708  1.00  0.00     0.001 A 
HETATM   20  C21 UNL     1      62.029   7.759   5.519  1.00  0.00     0.000 A 
HETATM   21  C22 UNL     1      62.750   6.725   4.958  1.00  0.00     0.001 A 
HETATM   22  C23 UNL     1      62.602   6.355   3.617  1.00  0.00     0.012 A 
ENDBRANCH  14  17
ENDBRANCH   8  11
ENDBRANCH   5   7
BRANCH   1  23
HETATM   23  C7  UNL     1      63.112   1.790  -6.915  1.00  0.00     0.256 C 
HETATM   24  N2  UNL     1      64.279   1.520  -6.185  1.00  0.00    -0.321 N 
ATOM     25  H2  UNL     1      64.405   2.003  -5.296  1.00  0.00     0.169 HD
HETATM   26  O1  UNL     1      62.831   1.264  -8.017  1.00  0.00    -0.267 OA
BRANCH  24  27
HETATM   27  C6  UNL     1      65.286   0.632  -6.593  1.00  0.00     0.059 A 
HETATM   28  C1  UNL     1      65.190  -0.696  -6.138  1.00  0.00     0.073 A 
HETATM   29  N1  UNL     1      64.083  -1.028  -5.308  1.00  0.00    -0.100 NA
HETATM   30  C2  UNL     1      66.114  -1.661  -6.465  1.00  0.00     0.029 A 
HETATM   31  C3  UNL     1      67.196  -1.379  -7.264  1.00  0.00     0.002 A 
HETATM   32  C4  UNL     1      67.311  -0.092  -7.720  1.00  0.00     0.002 A 
HETATM   33  C5  UNL     1      66.368   0.896  -7.387  1.00  0.00     0.031 A 
ENDBRANCH  24  27
ENDBRANCH   1  23
TORSDOF 5
ENDMDL
MODEL 3
REMARK VINA RESULT: -11.735620461      1.319      1.936
REMARK  5 active torsions:
REMARK  status: ('A' for Active; 'I' for Inactive)
REMARK    1  A    between atoms: C6_7  and  N2_8 
REMARK       I    between atoms: N2_8  and  C7_10 
REMARK    2  A    between atoms: C7_10  and  C8_12 
REMARK    3  A    between atoms: C12_16  and  N3_17 
REMARK       I    between atoms: N3_17  and  C13_19 
REMARK    4  A    between atoms: C13_19  and  C14_21 
REMARK    5  A    between atoms: C17_24  and  C18_25 
ROOT
HETATM    1  C8  UNL     1      62.266   3.708  -5.697  1.00  0.00     0.034 A 
HETATM    2  C9  UNL     1      61.140   4.046  -6.399  1.00  0.00     0.017 A 
HETATM    3  C10 UNL     1      60.138   4.732  -5.756  1.00  0.00     0.003 A 
HETATM    4  C11 UNL     1      60.317   5.041  -4.449  1.00  0.00     0.029 A 
HETATM    5  C12 UNL     1      61.461   4.707  -3.701  1.00  0.00     0.035 A 
HETATM    6  C26 UNL     1      62.453   4.026  -4.346  1.00  0.00     0.046 A 
ENDROOT
BRANCH   5   7
HETATM    7  N3  UNL     1      61.538   5.105  -2.347  1.00  0.00    -0.323 N 
HETATM    8  C13 UNL     1      61.132   6.324  -1.794  1.00  0.00     0.256 C 
HETATM    9  O2  UNL     1      60.635   7.254  -2.496  1.00  0.00    -0.267 OA
ATOM     10  H3  UNL     1      61.935   4.425  -1.698  1.00  0.00     0.169 HD
BRANCH   8  11
HETATM   11  C14 UNL     1      61.281   6.554  -0.353  1.00  0.00     0.032 A 
HETATM   12  C15 UNL     1      61.438   7.836   0.157  1.00  0.00     0.018 A 
HETATM   13  C16 UNL     1      61.569   8.088   1.506  1.00  0.00     0.013 A 
HETATM   14  C17 UNL     1      61.540   7.009   2.363  1.00  0.00    -0.026 A 
HETATM   15  C24 UNL     1      61.386   5.738   1.887  1.00  0.00     0.013 A 
HETATM   16  C25 UNL     1      61.257   5.512   0.528  1.00  0.00     0.018 A 
BRANCH  14  17
HETATM   17  C18 UNL     1      61.673   7.169   3.811  1.00  0.00    -0.026 A 
HETATM   18  C19 UNL     1      61.233   8.303   4.457  1.00  0.00     0.012 A 
HETATM   19  C20 UNL     1      61.358   8.454   5.837  1.00  0.00     0.001 A 
HETATM   20  C21 UNL     1      61.934   7.461   6.600  1.00  0.00     0.000 A 
HETATM   21  C22 UNL     1      62.374   6.328   5.948  1.00  0.00     0.001 A 
HETATM   22  C23 UNL     1      62.251   6.169   4.563  1.00  0.00     0.012 A 
ENDBRANCH  14  17
ENDBRANCH   8  11
ENDBRANCH   5   7
BRANCH   1  23
HETATM   23  C7  UNL     1      63.382   2.979  -6.355  1.00  0.00     0.256 C 
HETATM   24  N2  UNL     1      64.057   1.968  -5.654  1.00  0.00    -0.321 N 
ATOM     25  H2  UNL     1      63.750   1.764  -4.703  1.00  0.00     0.169 HD
HETATM   26  O1  UNL     1      63.654   3.326  -7.528  1.00  0.00    -0.267 OA
BRANCH  24  27
HETATM   27  C6  UNL     1      65.126   1.218  -6.170  1.00  0.00     0.059 A 
HETATM   28  C1  UNL     1      64.905  -0.159  -6.364  1.00  0.00     0.073 A 
HETATM   29  N1  UNL     1      63.623  -0.673  -6.027  1.00  0.00    -0.100 NA
HETATM   30  C2  UNL     1      65.872  -1.001  -6.860  1.00  0.00     0.029 A 
HETATM   31  C3  UNL     1      67.123  -0.541  -7.198  1.00  0.00     0.002 A 
HETATM   32  C4  UNL     1      67.361   0.796  -7.018  1.00  0.00     0.002 A 
HETATM   33  C5  UNL     1      66.374   1.659  -6.511  1.00  0.00     0.031 A 
ENDBRANCH  24  27
ENDBRANCH   1  23
TORSDOF 5
ENDMDL
MODEL 4
REMARK VINA RESULT: -11.175340684      0.710      1.248
REMARK  5 active torsions:
REMARK  status: ('A' for Active; 'I' for Inactive)
REMARK    1  A    between atoms: C6_7  and  N2_8 
REMARK       I    between atoms: N2_8  and  C7_10 
REMARK    2  A    between atoms: C7_10  and  C8_12 
REMARK    3  A    between atoms: C12_16  and  N3_17 
REMARK       I    between atoms: N3_17  and  C13_19 
REMARK    4  A    between atoms: C13_19  and  C14_21 
REMARK    5  A    between atoms: C17_24  and  C18_25 
ROOT
HETATM    1  C8  UNL     1      62.688   1.472  -6.331  1.00  0.00     0.034 A 
HETATM    2  C9  UNL     1      61.810   1.898  -7.292  1.00  0.00     0.017 A 
HETATM    3  C10 UNL     1      60.954   2.932  -6.997  1.00  0.00     0.003 A 
HETATM    4  C11 UNL     1      61.023   3.482  -5.761  1.00  0.00     0.029 A 
HETATM    5  C12 UNL     1      61.914   3.066  -4.753  1.00  0.00     0.035 A 
HETATM    6  C26 UNL     1      62.762   2.039  -5.052  1.00  0.00     0.046 A 
ENDROOT
BRANCH   5   7
HETATM    7  N3  UNL     1      61.904   3.736  -3.508  1.00  0.00    -0.323 N 
HETATM    8  C13 UNL     1      61.179   4.881  -3.163  1.00  0.00     0.256 C 
HETATM    9  O2  UNL     1      60.420   5.475  -3.985  1.00  0.00    -0.267 OA
ATOM     10  H3  UNL     1      62.494   3.338  -2.777  1.00  0.00     0.169 HD
BRANCH   8  11
HETATM   11  C14 UNL     1      61.289   5.430  -1.807  1.00  0.00     0.032 A 
HETATM   12  C15 UNL     1      61.028   6.769  -1.552  1.00  0.00     0.018 A 
HETATM   13  C16 UNL     1      61.111   7.315  -0.288  1.00  0.00     0.013 A 
HETATM   14  C17 UNL     1      61.469   6.477   0.747  1.00  0.00    -0.026 A 
HETATM   15  C24 UNL     1      61.731   5.155   0.521  1.00  0.00     0.013 A 
HETATM   16  C25 UNL     1      61.640   4.633  -0.756  1.00  0.00     0.018 A 
BRANCH  14  17
HETATM   17  C18 UNL     1      61.587   6.957   2.123  1.00  0.00    -0.026 A 
HETATM   18  C19 UNL     1      62.435   6.359   3.028  1.00  0.00     0.012 A 
HETATM   19  C20 UNL     1      62.549   6.818   4.339  1.00  0.00     0.001 A 
HETATM   20  C21 UNL     1      61.805   7.897   4.770  1.00  0.00     0.000 A 
HETATM   21  C22 UNL     1      60.957   8.493   3.859  1.00  0.00     0.001 A 
HETATM   22  C23 UNL     1      60.838   8.037   2.541  1.00  0.00     0.012 A 
ENDBRANCH  14  17
ENDBRANCH   8  11
ENDBRANCH   5   7
BRANCH   1  23
HETATM   23  C7  UNL     1      63.643   0.367  -6.610  1.00  0.00     0.256 C 
HETATM   24  N2  UNL     1      64.933   0.412  -6.060  1.00  0.00    -0.321 N 
ATOM     25  H2  UNL     1      65.172   1.213  -5.475  1.00  0.00     0.169 HD
HETATM   26  O1  UNL     1      63.218  -0.559  -7.340  1.00  0.00    -0.267 OA
BRANCH  24  27
HETATM   27  C6  UNL     1      65.918  -0.569  -6.258  1.00  0.00     0.059 A 
HETATM   28  C1  UNL     1      66.748  -0.422  -7.385  1.00  0.00     0.073 A 
HETATM   29  N1  UNL     1      66.524   0.704  -8.224  1.00  0.00    -0.100 NA
HETATM   30  C2  UNL     1      67.748  -1.315  -7.690  1.00  0.00     0.029 A 
HETATM   31  C3  UNL     1      67.995  -2.415  -6.903  1.00  0.00     0.002 A 
HETATM   32  C4  UNL     1      67.199  -2.579  -5.799  1.00  0.00     0.002 A 
HETATM   33  C5  UNL     1      66.177  -1.667  -5.486  1.00  0.00     0.031 A 
ENDBRANCH  24  27
ENDBRANCH   1  23
TORSDOF 5
ENDMDL
MODEL 5
REMARK VINA RESULT: -10.944731359      0.811      1.584
REMARK  5 active torsions:
REMARK  status: ('A' for Active; 'I' for Inactive)
REMARK    1  A    between atoms: C6_7  and  N2_8 
REMARK       I    between atoms: N2_8  and  C7_10 
REMARK    2  A    between atoms: C7_10  and  C8_12 
REMARK    3  A    between atoms: C12_16  and  N3_17 
REMARK       I    between atoms: N3_17  and  C13_19 
REMARK    4  A    between atoms: C13_19  and  C14_21 
REMARK    5  A    between atoms: C17_24  and  C18_25 
ROOT
HETATM    1  C8  UNL     1      62.096   2.558  -6.234  1.00  0.00     0.034 A 
HETATM    2  C9  UNL     1      61.133   3.074  -7.061  1.00  0.00     0.017 A 
HETATM    3  C10 UNL     1      60.296   4.050  -6.578  1.00  0.00     0.003 A 
HETATM    4  C11 UNL     1      60.466   4.457  -5.296  1.00  0.00     0.029 A 
HETATM    5  C12 UNL     1      61.444   3.946  -4.423  1.00  0.00     0.035 A 
HETATM    6  C26 UNL     1      62.274   2.977  -4.909  1.00  0.00     0.046 A 
ENDROOT
BRANCH   5   7
HETATM    7  N3  UNL     1      61.535   4.469  -3.113  1.00  0.00    -0.323 N 
HETATM    8  C13 UNL     1      60.987   5.662  -2.632  1.00  0.00     0.256 C 
HETATM    9  O2  UNL     1      60.321   6.447  -3.370  1.00  0.00    -0.267 OA
ATOM     10  H3  UNL     1      62.062   3.912  -2.440  1.00  0.00     0.169 HD
BRANCH   8  11
HETATM   11  C14 UNL     1      61.179   6.037  -1.227  1.00  0.00     0.032 A 
HETATM   12  C15 UNL     1      61.247   7.369  -0.842  1.00  0.00     0.018 A 
HETATM   13  C16 UNL     1      61.415   7.756   0.470  1.00  0.00     0.013 A 
HETATM   14  C17 UNL     1      61.517   6.762   1.421  1.00  0.00    -0.026 A 
HETATM   15  C24 UNL     1      61.453   5.444   1.068  1.00  0.00     0.013 A 
HETATM   16  C25 UNL     1      61.283   5.083  -0.257  1.00  0.00     0.018 A 
BRANCH  14  17
HETATM   17  C18 UNL     1      61.699   7.067   2.840  1.00  0.00    -0.026 A 
HETATM   18  C19 UNL     1      61.023   8.099   3.451  1.00  0.00     0.012 A 
HETATM   19  C20 UNL     1      61.196   8.388   4.803  1.00  0.00     0.001 A 
HETATM   20  C21 UNL     1      62.060   7.639   5.574  1.00  0.00     0.000 A 
HETATM   21  C22 UNL     1      62.735   6.606   4.957  1.00  0.00     0.001 A 
HETATM   22  C23 UNL     1      62.566   6.310   3.600  1.00  0.00     0.012 A 
ENDBRANCH  14  17
ENDBRANCH   8  11
ENDBRANCH   5   7
BRANCH   1  23
HETATM   23  C7  UNL     1      63.034   1.511  -6.718  1.00  0.00     0.256 C 
HETATM   24  N2  UNL     1      64.190   1.223  -5.978  1.00  0.00    -0.321 N 
ATOM     25  H2  UNL     1      64.346   1.748  -5.118  1.00  0.00     0.169 HD
HETATM   26  O1  UNL     1      62.719   0.939  -7.787  1.00  0.00    -0.267 OA
BRANCH  24  27
HETATM   27  C6  UNL     1      65.148   0.262  -6.339  1.00  0.00     0.059 A 
HETATM   28  C1  UNL     1      66.125   0.653  -7.273  1.00  0.00     0.073 A 
HETATM   29  N1  UNL     1      66.064   1.984  -7.770  1.00  0.00    -0.100 NA
HETATM   30  C2  UNL     1      67.115  -0.196  -7.710  1.00  0.00     0.029 A 
HETATM   31  C3  UNL     1      67.207  -1.489  -7.252  1.00  0.00     0.002 A 
HETATM   32  C4  UNL     1      66.266  -1.892  -6.341  1.00  0.00     0.002 A 
HETATM   33  C5  UNL     1      65.254  -1.026  -5.894  1.00  0.00     0.031 A 
ENDBRANCH  24  27
ENDBRANCH   1  23
TORSDOF 5
ENDMDL
