MODEL 1
REMARK VINA RESULT: -11.821431740      0.000      0.000
REMARK  6 active torsions:
REMARK  status: ('A' for Active; 'I' for Inactive)
REMARK    1  A    between atoms: C1_4  and  C2_6 
REMARK    2  A    between atoms: C5_9  and  C6_10 
REMARK    3  A    between atoms: C10_14  and  C11_15 
REMARK    4  A    between atoms: C14_18  and  O1_19 
REMARK    5  A    between atoms: O1_19  and  C15_20 
REMARK    6  A    between atoms: C15_20  and  C16_21 
ROOT
HETATM    1  C11 UNL     1      62.339   3.672  -5.560  1.00  0.00    -0.026 A 
HETATM    2  C12 UNL     1      62.913   3.549  -6.814  1.00  0.00     0.015 A 
HETATM    3  C13 UNL     1      63.268   2.323  -7.335  1.00  0.00     0.037 A 
HETATM    4  C14 UNL     1      63.065   1.160  -6.623  1.00  0.00     0.069 A 
HETATM    5  C23 UNL     1      62.497   1.273  -5.377  1.00  0.00     0.037 A 
HETATM    6  C24 UNL     1      62.138   2.507  -4.850  1.00  0.00     0.015 A 
ENDROOT
BRANCH   1   7
HETATM    7  C10 UNL     1      61.967   4.972  -5.008  1.00  0.00    -0.025 A 
HETATM    8  C9  UNL     1      61.664   6.074  -5.780  1.00  0.00     0.012 A 
HETATM    9  C8  UNL     1      61.310   7.292  -5.203  1.00  0.00     0.002 A 
HETATM   10  C7  UNL     1      61.251   7.429  -3.831  1.00  0.00     0.012 A 
HETATM   11  C6  UNL     1      61.552   6.337  -3.043  1.00  0.00    -0.025 A 
HETATM   12  C25 UNL     1      61.903   5.128  -3.637  1.00  0.00     0.024 A 
BRANCH  11  13
HETATM   13  C5  UNL     1      61.492   6.461  -1.576  1.00  0.00    -0.026 A 
HETATM   14  C4  UNL     1      61.502   7.693  -0.957  1.00  0.00     0.013 A 
HETATM   15  C3  UNL     1      61.449   7.821   0.402  1.00  0.00     0.015 A 
HETATM   16  C2  UNL     1      61.387   6.699   1.223  1.00  0.00     0.004 A 
HETATM   17  C27 UNL     1      61.377   5.456   0.616  1.00  0.00     0.015 A 
HETATM   18  C26 UNL     1      61.429   5.350  -0.756  1.00  0.00     0.013 A 
BRANCH  16  19
HETATM   19  C1  UNL     1      61.333   6.819   2.665  1.00  0.00     0.120 C 
HETATM   20  N1  UNL     1      60.611   7.725   3.199  1.00  0.00    -0.387 N 
ATOM     21  H12 UNL     1      60.573   7.809   4.215  1.00  0.00     0.157 HD
ATOM     22  H11 UNL     1      60.071   8.364   2.615  1.00  0.00     0.157 HD
HETATM   23  N2  UNL     1      62.079   5.939   3.471  1.00  0.00    -0.082 NA
ENDBRANCH  16  19
ENDBRANCH  11  13
ENDBRANCH   1   7
BRANCH   4  24
HETATM   24  O1  UNL     1      63.442  -0.065  -7.192  1.00  0.00    -0.347 OA
BRANCH  24  25
HETATM   25  C15 UNL     1      64.264  -0.967  -6.513  1.00  0.00     0.215 C 
BRANCH  25  26
HETATM   26  C16 UNL     1      65.638  -0.441  -6.446  1.00  0.00    -0.019 A 
HETATM   27  C17 UNL     1      66.032   0.646  -7.195  1.00  0.00     0.027 A 
HETATM   28  C18 UNL     1      67.337   1.077  -7.074  1.00  0.00     0.090 A 
HETATM   29  N3  UNL     1      68.228   0.467  -6.250  1.00  0.00    -0.352 N 
HETATM   30  C19 UNL     1      67.825  -0.583  -5.535  1.00  0.00     0.116 A 
ATOM     31  H3  UNL     1      69.187   0.806  -6.179  1.00  0.00     0.166 HD
HETATM   32  N4  UNL     1      68.485  -1.373  -4.647  1.00  0.00    -0.352 N 
HETATM   33  C22 UNL     1      66.540  -1.071  -5.601  1.00  0.00     0.018 A 
HETATM   34  C20 UNL     1      67.644  -2.323  -4.174  1.00  0.00     0.090 A 
ATOM     35  H4  UNL     1      69.464  -1.267  -4.380  1.00  0.00     0.166 HD
HETATM   36  C21 UNL     1      66.409  -2.158  -4.757  1.00  0.00     0.033 A 
ENDBRANCH  25  26
ENDBRANCH  24  25
ENDBRANCH   4  24
TORSDOF 6
ENDMDL
MODEL 2
REMARK VINA RESULT: -11.644561298      1.738      2.924
REMARK  6 active torsions:
REMARK  status: ('A' for Active; 'I' for Inactive)
REMARK    1  A    between atoms: C1_4  and  C2_6 
REMARK    2  A    between atoms: C5_9  and  C6_10 
REMARK    3  A    between atoms: C10_14  and  C11_15 
REMARK    4  A    between atoms: C14_18  and  O1_19 
REMARK    5  A    between atoms: O1_19  and  C15_20 
REMARK    6  A    between atoms: C15_20  and  C16_21 
ROOT
HETATM    1  C11 UNL     1      61.336   4.440  -2.996  1.00  0.00    -0.026 A 
HETATM    2  C12 UNL     1      62.498   3.689  -2.929  1.00  0.00     0.015 A 
HETATM    3  C13 UNL     1      62.585   2.432  -3.489  1.00  0.00     0.037 A 
HETATM    4  C14 UNL     1      61.512   1.867  -4.144  1.00  0.00     0.069 A 
HETATM    5  C23 UNL     1      60.355   2.604  -4.215  1.00  0.00     0.037 A 
HETATM    6  C24 UNL     1      60.264   3.871  -3.651  1.00  0.00     0.015 A 
ENDROOT
BRANCH   1   7
HETATM    7  C10 UNL     1      61.244   5.769  -2.400  1.00  0.00    -0.025 A 
HETATM    8  C9  UNL     1      61.062   6.925  -3.128  1.00  0.00     0.012 A 
HETATM    9  C8  UNL     1      60.976   8.171  -2.508  1.00  0.00     0.002 A 
HETATM   10  C7  UNL     1      61.070   8.280  -1.136  1.00  0.00     0.012 A 
HETATM   11  C6  UNL     1      61.252   7.134  -0.391  1.00  0.00    -0.025 A 
HETATM   12  C25 UNL     1      61.336   5.899  -1.027  1.00  0.00     0.024 A 
BRANCH  11  13
HETATM   13  C5  UNL     1      61.352   7.229   1.076  1.00  0.00    -0.026 A 
HETATM   14  C4  UNL     1      60.831   8.303   1.766  1.00  0.00     0.013 A 
HETATM   15  C3  UNL     1      60.919   8.404   3.125  1.00  0.00     0.015 A 
HETATM   16  C2  UNL     1      61.549   7.414   3.874  1.00  0.00     0.004 A 
HETATM   17  C27 UNL     1      62.078   6.331   3.197  1.00  0.00     0.015 A 
HETATM   18  C26 UNL     1      61.976   6.249   1.826  1.00  0.00     0.013 A 
BRANCH  16  19
HETATM   19  C1  UNL     1      61.653   7.509   5.316  1.00  0.00     0.120 C 
HETATM   20  N1  UNL     1      61.285   8.577   5.909  1.00  0.00    -0.387 N 
ATOM     21  H12 UNL     1      61.358   8.643   6.924  1.00  0.00     0.157 HD
ATOM     22  H11 UNL     1      60.918   9.363   5.373  1.00  0.00     0.157 HD
HETATM   23  N2  UNL     1      62.159   6.424   6.055  1.00  0.00    -0.082 NA
ENDBRANCH  16  19
ENDBRANCH  11  13
ENDBRANCH   1   7
BRANCH   4  24
HETATM   24  O1  UNL     1      61.647   0.585  -4.699  1.00  0.00    -0.347 OA
BRANCH  24  25
HETATM   25  C15 UNL     1      61.761   0.391  -6.077  1.00  0.00     0.215 C 
BRANCH  25  26
HETATM   26  C16 UNL     1      63.072   0.876  -6.544  1.00  0.00    -0.019 A 
HETATM   27  C17 UNL     1      63.193   2.032  -7.283  1.00  0.00     0.027 A 
HETATM   28  C18 UNL     1      64.456   2.417  -7.682  1.00  0.00     0.090 A 
HETATM   29  N3  UNL     1      65.565   1.697  -7.369  1.00  0.00    -0.352 N 
HETATM   30  C19 UNL     1      65.424   0.582  -6.653  1.00  0.00     0.116 A 
ATOM     31  H3  UNL     1      66.487   2.004  -7.677  1.00  0.00     0.166 HD
HETATM   32  N4  UNL     1      66.338  -0.319  -6.204  1.00  0.00    -0.352 N 
HETATM   33  C22 UNL     1      64.198   0.133  -6.219  1.00  0.00     0.018 A 
HETATM   34  C20 UNL     1      65.708  -1.298  -5.512  1.00  0.00     0.090 A 
ATOM     35  H4  UNL     1      67.344  -0.266  -6.364  1.00  0.00     0.166 HD
HETATM   36  C21 UNL     1      64.355  -1.040  -5.505  1.00  0.00     0.033 A 
ENDBRANCH  25  26
ENDBRANCH  24  25
ENDBRANCH   4  24
TORSDOF 6
ENDMDL
MODEL 3
REMARK VINA RESULT: -11.355562098      1.943      3.490
REMARK  6 active torsions:
REMARK  status: ('A' for Active; 'I' for Inactive)
REMARK    1  A    between atoms: C1_4  and  C2_6 
REMARK    2  A    between atoms: C5_9  and  C6_10 
REMARK    3  A    between atoms: C10_14  and  C11_15 
REMARK    4  A    between atoms: C14_18  and  O1_19 
REMARK    5  A    between atoms: O1_19  and  C15_20 
REMARK    6  A    between atoms: C15_20  and  C16_21 
ROOT
HETATM    1  C11 UNL     1      61.196   4.475  -2.938  1.00  0.00    -0.026 A 
HETATM    2  C12 UNL     1      60.056   3.920  -3.494  1.00  0.00     0.015 A 
HETATM    3  C13 UNL     1      60.057   2.660  -4.053  1.00  0.00     0.037 A 
HETATM    4  C14 UNL     1      61.202   1.894  -4.080  1.00  0.00     0.069 A 
HETATM    5  C23 UNL     1      62.339   2.435  -3.531  1.00  0.00     0.037 A 
HETATM    6  C24 UNL     1      62.340   3.705  -2.967  1.00  0.00     0.015 A 
ENDROOT
BRANCH   1   7
HETATM    7  C10 UNL     1      61.193   5.811  -2.350  1.00  0.00    -0.025 A 
HETATM    8  C9  UNL     1      61.093   6.972  -3.087  1.00  0.00     0.012 A 
HETATM    9  C8  UNL     1      61.091   8.225  -2.474  1.00  0.00     0.002 A 
HETATM   10  C7  UNL     1      61.189   8.337  -1.103  1.00  0.00     0.012 A 
HETATM   11  C6  UNL     1      61.290   7.185  -0.350  1.00  0.00    -0.025 A 
HETATM   12  C25 UNL     1      61.290   5.943  -0.978  1.00  0.00     0.024 A 
BRANCH  11  13
HETATM   13  C5  UNL     1      61.392   7.283   1.117  1.00  0.00    -0.026 A 
HETATM   14  C4  UNL     1      60.741   8.274   1.820  1.00  0.00     0.013 A 
HETATM   15  C3  UNL     1      60.830   8.377   3.179  1.00  0.00     0.015 A 
HETATM   16  C2  UNL     1      61.593   7.474   3.914  1.00  0.00     0.004 A 
HETATM   17  C27 UNL     1      62.253   6.474   3.223  1.00  0.00     0.015 A 
HETATM   18  C26 UNL     1      62.148   6.389   1.852  1.00  0.00     0.013 A 
BRANCH  16  19
HETATM   19  C1  UNL     1      61.699   7.572   5.356  1.00  0.00     0.120 C 
HETATM   20  N1  UNL     1      61.464   8.684   5.934  1.00  0.00    -0.387 N 
ATOM     21  H12 UNL     1      61.539   8.753   6.949  1.00  0.00     0.157 HD
ATOM     22  H11 UNL     1      61.202   9.504   5.386  1.00  0.00     0.157 HD
HETATM   23  N2  UNL     1      62.060   6.441   6.110  1.00  0.00    -0.082 NA
ENDBRANCH  16  19
ENDBRANCH  11  13
ENDBRANCH   1   7
BRANCH   4  24
HETATM   24  O1  UNL     1      61.157   0.616  -4.659  1.00  0.00    -0.347 OA
BRANCH  24  25
HETATM   25  C15 UNL     1      61.552   0.395  -5.980  1.00  0.00     0.215 C 
BRANCH  25  26
HETATM   26  C16 UNL     1      63.010   0.194  -6.040  1.00  0.00    -0.019 A 
HETATM   27  C17 UNL     1      63.617  -0.883  -5.431  1.00  0.00     0.027 A 
HETATM   28  C18 UNL     1      64.987  -0.999  -5.534  1.00  0.00     0.090 A 
HETATM   29  N3  UNL     1      65.742  -0.094  -6.210  1.00  0.00    -0.352 N 
HETATM   30  C19 UNL     1      65.134   0.941  -6.791  1.00  0.00     0.116 A 
ATOM     31  H3  UNL     1      66.753  -0.203  -6.271  1.00  0.00     0.166 HD
HETATM   32  N4  UNL     1      65.626   1.980  -7.517  1.00  0.00    -0.352 N 
HETATM   33  C22 UNL     1      63.772   1.124  -6.732  1.00  0.00     0.018 A 
HETATM   34  C20 UNL     1      64.608   2.786  -7.900  1.00  0.00     0.090 A 
ATOM     35  H4  UNL     1      66.610   2.129  -7.738  1.00  0.00     0.166 HD
HETATM   36  C21 UNL     1      63.425   2.272  -7.419  1.00  0.00     0.033 A 
ENDBRANCH  25  26
ENDBRANCH  24  25
ENDBRANCH   4  24
TORSDOF 6
ENDMDL
MODEL 4
REMARK VINA RESULT: -11.247529193      2.193      9.599
REMARK  6 active torsions:
REMARK  status: ('A' for Active; 'I' for Inactive)
REMARK    1  A    between atoms: C1_4  and  C2_6 
REMARK    2  A    between atoms: C5_9  and  C6_10 
REMARK    3  A    between atoms: C10_14  and  C11_15 
REMARK    4  A    between atoms: C14_18  and  O1_19 
REMARK    5  A    between atoms: O1_19  and  C15_20 
REMARK    6  A    between atoms: C15_20  and  C16_21 
ROOT
HETATM    1  C11 UNL     1      61.512   4.544  -5.313  1.00  0.00    -0.026 A 
HETATM    2  C12 UNL     1      60.378   4.679  -4.530  1.00  0.00     0.015 A 
HETATM    3  C13 UNL     1      60.191   5.765  -3.701  1.00  0.00     0.037 A 
HETATM    4  C14 UNL     1      61.133   6.768  -3.617  1.00  0.00     0.069 A 
HETATM    5  C23 UNL     1      62.262   6.642  -4.390  1.00  0.00     0.037 A 
HETATM    6  C24 UNL     1      62.452   5.549  -5.226  1.00  0.00     0.015 A 
ENDROOT
BRANCH   1   7
HETATM    7  C10 UNL     1      61.710   3.392  -6.187  1.00  0.00    -0.025 A 
HETATM    8  C9  UNL     1      60.807   2.998  -7.153  1.00  0.00     0.012 A 
HETATM    9  C8  UNL     1      61.047   1.892  -7.966  1.00  0.00     0.002 A 
HETATM   10  C7  UNL     1      62.204   1.154  -7.826  1.00  0.00     0.012 A 
HETATM   11  C6  UNL     1      63.118   1.533  -6.864  1.00  0.00    -0.025 A 
HETATM   12  C25 UNL     1      62.862   2.641  -6.062  1.00  0.00     0.024 A 
BRANCH  11  13
HETATM   13  C5  UNL     1      64.362   0.760  -6.700  1.00  0.00    -0.026 A 
HETATM   14  C4  UNL     1      64.391  -0.412  -5.975  1.00  0.00     0.013 A 
HETATM   15  C3  UNL     1      65.539  -1.136  -5.814  1.00  0.00     0.015 A 
HETATM   16  C2  UNL     1      66.736  -0.711  -6.381  1.00  0.00     0.004 A 
HETATM   17  C27 UNL     1      66.723   0.463  -7.111  1.00  0.00     0.015 A 
HETATM   18  C26 UNL     1      65.555   1.177  -7.262  1.00  0.00     0.013 A 
BRANCH  16  19
HETATM   19  C1  UNL     1      67.961  -1.467  -6.216  1.00  0.00     0.120 C 
HETATM   20  N1  UNL     1      68.462  -2.085  -7.213  1.00  0.00    -0.387 N 
ATOM     21  H12 UNL     1      69.325  -2.617  -7.097  1.00  0.00     0.157 HD
ATOM     22  H11 UNL     1      68.005  -2.049  -8.125  1.00  0.00     0.157 HD
HETATM   23  N2  UNL     1      68.591  -1.516  -4.959  1.00  0.00    -0.082 NA
ENDBRANCH  16  19
ENDBRANCH  11  13
ENDBRANCH   1   7
BRANCH   4  24
HETATM   24  O1  UNL     1      60.901   7.854  -2.760  1.00  0.00    -0.347 OA
BRANCH  24  25
HETATM   25  C15 UNL     1      61.667   8.057  -1.610  1.00  0.00     0.215 C 
BRANCH  25  26
HETATM   26  C16 UNL     1      60.942   7.553  -0.430  1.00  0.00    -0.019 A 
HETATM   27  C17 UNL     1      60.164   8.381   0.348  1.00  0.00     0.027 A 
HETATM   28  C18 UNL     1      59.519   7.831   1.436  1.00  0.00     0.090 A 
HETATM   29  N3  UNL     1      59.629   6.515   1.754  1.00  0.00    -0.352 N 
HETATM   30  C19 UNL     1      60.387   5.732   0.987  1.00  0.00     0.116 A 
ATOM     31  H3  UNL     1      59.141   6.133   2.563  1.00  0.00     0.166 HD
HETATM   32  N4  UNL     1      60.676   4.405   1.065  1.00  0.00    -0.352 N 
HETATM   33  C22 UNL     1      61.062   6.207  -0.114  1.00  0.00     0.018 A 
HETATM   34  C20 UNL     1      61.502   4.061   0.048  1.00  0.00     0.090 A 
ATOM     35  H4  UNL     1      60.324   3.768   1.779  1.00  0.00     0.166 HD
HETATM   36  C21 UNL     1      61.763   5.178  -0.713  1.00  0.00     0.033 A 
ENDBRANCH  25  26
ENDBRANCH  24  25
ENDBRANCH   4  24
TORSDOF 6
ENDMDL
MODEL 5
REMARK VINA RESULT: -11.201530377      0.812      1.773
REMARK  6 active torsions:
REMARK  status: ('A' for Active; 'I' for Inactive)
REMARK    1  A    between atoms: C1_4  and  C2_6 
REMARK    2  A    between atoms: C5_9  and  C6_10 
REMARK    3  A    between atoms: C10_14  and  C11_15 
REMARK    4  A    between atoms: C14_18  and  O1_19 
REMARK    5  A    between atoms: O1_19  and  C15_20 
REMARK    6  A    between atoms: C15_20  and  C16_21 
ROOT
HETATM    1  C11 UNL     1      62.068   3.333  -4.592  1.00  0.00    -0.026 A 
HETATM    2  C12 UNL     1      62.814   3.108  -5.736  1.00  0.00     0.015 A 
HETATM    3  C13 UNL     1      63.124   1.834  -6.165  1.00  0.00     0.037 A 
HETATM    4  C14 UNL     1      62.700   0.725  -5.466  1.00  0.00     0.069 A 
HETATM    5  C23 UNL     1      61.959   0.938  -4.329  1.00  0.00     0.037 A 
HETATM    6  C24 UNL     1      61.646   2.220  -3.895  1.00  0.00     0.015 A 
ENDROOT
BRANCH   1   7
HETATM    7  C10 UNL     1      61.744   4.682  -4.138  1.00  0.00    -0.025 A 
HETATM    8  C9  UNL     1      61.431   5.722  -4.987  1.00  0.00     0.012 A 
HETATM    9  C8  UNL     1      61.124   6.992  -4.500  1.00  0.00     0.002 A 
HETATM   10  C7  UNL     1      61.124   7.244  -3.144  1.00  0.00     0.012 A 
HETATM   11  C6  UNL     1      61.436   6.215  -2.279  1.00  0.00    -0.025 A 
HETATM   12  C25 UNL     1      61.740   4.953  -2.783  1.00  0.00     0.024 A 
BRANCH  11  13
HETATM   13  C5  UNL     1      61.439   6.462  -0.827  1.00  0.00    -0.026 A 
HETATM   14  C4  UNL     1      61.542   7.738  -0.314  1.00  0.00     0.013 A 
HETATM   15  C3  UNL     1      61.549   7.980   1.031  1.00  0.00     0.015 A 
HETATM   16  C2  UNL     1      61.453   6.934   1.944  1.00  0.00     0.004 A 
HETATM   17  C27 UNL     1      61.350   5.649   1.445  1.00  0.00     0.015 A 
HETATM   18  C26 UNL     1      61.344   5.427   0.085  1.00  0.00     0.013 A 
BRANCH  16  19
HETATM   19  C1  UNL     1      61.461   7.175   3.373  1.00  0.00     0.120 C 
HETATM   20  N1  UNL     1      60.767   8.129   3.858  1.00  0.00    -0.387 N 
ATOM     21  H12 UNL     1      60.773   8.299   4.863  1.00  0.00     0.157 HD
ATOM     22  H11 UNL     1      60.206   8.722   3.245  1.00  0.00     0.157 HD
HETATM   23  N2  UNL     1      62.235   6.358   4.217  1.00  0.00    -0.082 NA
ENDBRANCH  16  19
ENDBRANCH  11  13
ENDBRANCH   1   7
BRANCH   4  24
HETATM   24  O1  UNL     1      63.039  -0.552  -5.939  1.00  0.00    -0.347 OA
BRANCH  24  25
HETATM   25  C15 UNL     1      64.093  -0.748  -6.833  1.00  0.00     0.215 C 
BRANCH  25  26
HETATM   26  C16 UNL     1      65.349  -0.953  -6.090  1.00  0.00    -0.019 A 
HETATM   27  C17 UNL     1      65.475  -1.950  -5.147  1.00  0.00     0.027 A 
HETATM   28  C18 UNL     1      66.684  -2.076  -4.496  1.00  0.00     0.090 A 
HETATM   29  N3  UNL     1      67.736  -1.257  -4.756  1.00  0.00    -0.352 N 
HETATM   30  C19 UNL     1      67.592  -0.299  -5.672  1.00  0.00     0.116 A 
ATOM     31  H3  UNL     1      68.619  -1.372  -4.260  1.00  0.00     0.166 HD
HETATM   32  N4  UNL     1      68.456   0.647  -6.127  1.00  0.00    -0.352 N 
HETATM   33  C22 UNL     1      66.417  -0.111  -6.363  1.00  0.00     0.018 A 
HETATM   34  C20 UNL     1      67.844   1.401  -7.071  1.00  0.00     0.090 A 
ATOM     35  H4  UNL     1      69.416   0.769  -5.807  1.00  0.00     0.166 HD
HETATM   36  C21 UNL     1      66.556   0.947  -7.242  1.00  0.00     0.033 A 
ENDBRANCH  25  26
ENDBRANCH  24  25
ENDBRANCH   4  24
TORSDOF 6
ENDMDL
