MODEL 1
REMARK VINA RESULT: -7.660484297      0.000      0.000
REMARK  9 active torsions:
REMARK  status: ('A' for Active; 'I' for Inactive)
REMARK    1  A    between atoms: C2_2  and  C3_3 
REMARK    2  A    between atoms: C3_3  and  N1_4 
REMARK    3  A    between atoms: N1_4  and  C4_6 
REMARK    4  A    between atoms: C5_9  and  N3_10 
REMARK    5  A    between atoms: C11_18  and  N5_19 
REMARK    6  A    between atoms: N5_19  and  C12_21 
REMARK    7  A    between atoms: C12_21  and  C13_22 
REMARK    8  A    between atoms: C13_22  and  C14_23 
REMARK    9  A    between atoms: C14_23  and  O1_24 
ROOT
HETATM    1  C4  UNL     1       1.405  21.579   7.108  1.00  0.00     0.707 A 
HETATM    2  N2  UNL     1       2.647  21.958   6.765  1.00  0.00    -0.021 N 
ATOM      3  H2  UNL     1       3.444  21.415   7.099  1.00  0.00     0.203 HD
HETATM    4  C5  UNL     1       2.867  23.048   5.980  1.00  0.00     0.709 A 
HETATM    5  N4  UNL     1       1.781  23.722   5.568  1.00  0.00    -0.021 N 
ATOM      6  H4  UNL     1       1.921  24.543   4.979  1.00  0.00     0.203 HD
HETATM    7  C11 UNL     1       0.521  23.381   5.886  1.00  0.00     0.707 A 
HETATM    8  N6  UNL     1       0.349  22.286   6.671  1.00  0.00    -0.022 N 
ATOM      9  H6  UNL     1      -0.594  21.998   6.932  1.00  0.00     0.203 HD
ENDROOT
BRANCH   7  10
HETATM   10  N5  UNL     1      -0.528  23.995   5.515  1.00  0.00    -0.225 N 
ATOM     11  H5  UNL     1      -0.482  24.463   4.610  1.00  0.00     0.177 HD
BRANCH  10  12
HETATM   12  C12 UNL     1      -1.773  24.103   6.228  1.00  0.00     0.140 C 
BRANCH  12  13
HETATM   13  C13 UNL     1      -1.418  24.794   7.554  1.00  0.00     0.046 C 
BRANCH  13  14
HETATM   14  C14 UNL     1      -2.451  25.886   7.748  1.00  0.00     0.168 C 
BRANCH  14  15
HETATM   15  O1  UNL     1      -2.021  27.137   7.382  1.00  0.00    -0.396 OA
HETATM   16  C15 UNL     1      -2.676  28.184   7.970  1.00  0.00     0.201 C 
ENDBRANCH  14  15
ENDBRANCH  13  14
ENDBRANCH  12  13
ENDBRANCH  10  12
ENDBRANCH   7  10
BRANCH   4  17
HETATM   17  N3  UNL     1       4.201  23.428   5.631  1.00  0.00    -0.217 N 
HETATM   18  C6  UNL     1       4.356  24.558   4.754  1.00  0.00     0.141 C 
HETATM   19  C7  UNL     1       5.762  24.564   4.224  1.00  0.00     0.020 C 
HETATM   20  C8  UNL     1       6.702  24.547   5.400  1.00  0.00     0.003 C 
HETATM   21  C9  UNL     1       6.595  23.301   6.216  1.00  0.00     0.020 C 
HETATM   22  C10 UNL     1       5.266  22.641   6.185  1.00  0.00     0.141 C 
ENDBRANCH   4  17
BRANCH   1  23
HETATM   23  N1  UNL     1       1.149  20.559   7.850  1.00  0.00    -0.225 N 
ATOM     24  H1  UNL     1       1.945  20.102   8.297  1.00  0.00     0.177 HD
BRANCH  23  25
HETATM   25  C3  UNL     1      -0.143  20.004   8.108  1.00  0.00     0.137 C 
BRANCH  25  26
HETATM   26  C2  UNL     1      -0.764  20.818   9.225  1.00  0.00     0.016 C 
HETATM   27  C1  UNL     1      -2.198  21.138   8.851  1.00  0.00     0.006 C 
ENDBRANCH  25  26
ENDBRANCH  23  25
ENDBRANCH   1  23
TORSDOF 9
ENDMDL
MODEL 2
REMARK VINA RESULT: -7.111853010      4.789      9.044
REMARK  9 active torsions:
REMARK  status: ('A' for Active; 'I' for Inactive)
REMARK    1  A    between atoms: C2_2  and  C3_3 
REMARK    2  A    between atoms: C3_3  and  N1_4 
REMARK    3  A    between atoms: N1_4  and  C4_6 
REMARK    4  A    between atoms: C5_9  and  N3_10 
REMARK    5  A    between atoms: C11_18  and  N5_19 
REMARK    6  A    between atoms: N5_19  and  C12_21 
REMARK    7  A    between atoms: C12_21  and  C13_22 
REMARK    8  A    between atoms: C13_22  and  C14_23 
REMARK    9  A    between atoms: C14_23  and  O1_24 
ROOT
HETATM    1  C4  UNL     1       6.282  27.123   4.515  1.00  0.00     0.707 A 
HETATM    2  N2  UNL     1       5.600  26.165   5.164  1.00  0.00    -0.021 N 
ATOM      3  H2  UNL     1       5.121  26.397   6.035  1.00  0.00     0.203 HD
HETATM    4  C5  UNL     1       5.532  24.892   4.687  1.00  0.00     0.709 A 
HETATM    5  N4  UNL     1       6.181  24.645   3.537  1.00  0.00    -0.021 N 
ATOM      6  H4  UNL     1       6.145  23.698   3.160  1.00  0.00     0.203 HD
HETATM    7  C11 UNL     1       6.875  25.570   2.854  1.00  0.00     0.707 A 
HETATM    8  N6  UNL     1       6.915  26.827   3.367  1.00  0.00    -0.022 N 
ATOM      9  H6  UNL     1       7.432  27.556   2.874  1.00  0.00     0.203 HD
ENDROOT
BRANCH   7  10
HETATM   10  N5  UNL     1       7.499  25.373   1.765  1.00  0.00    -0.225 N 
ATOM     11  H5  UNL     1       7.748  24.406   1.554  1.00  0.00     0.177 HD
BRANCH  10  12
HETATM   12  C12 UNL     1       7.894  26.360   0.795  1.00  0.00     0.140 C 
BRANCH  12  13
HETATM   13  C13 UNL     1       9.198  25.823   0.184  1.00  0.00     0.046 C 
BRANCH  13  14
HETATM   14  C14 UNL     1       8.854  24.478  -0.424  1.00  0.00     0.168 C 
BRANCH  14  15
HETATM   15  O1  UNL     1       7.805  24.514  -1.308  1.00  0.00    -0.396 OA
HETATM   16  C15 UNL     1       8.146  24.618  -2.629  1.00  0.00     0.201 C 
ENDBRANCH  14  15
ENDBRANCH  13  14
ENDBRANCH  12  13
ENDBRANCH  10  12
ENDBRANCH   7  10
BRANCH   4  17
HETATM   17  N3  UNL     1       4.799  23.892   5.400  1.00  0.00    -0.217 N 
HETATM   18  C6  UNL     1       5.541  23.037   6.288  1.00  0.00     0.141 C 
HETATM   19  C7  UNL     1       4.685  21.854   6.641  1.00  0.00     0.020 C 
HETATM   20  C8  UNL     1       3.389  22.372   7.206  1.00  0.00     0.003 C 
HETATM   21  C9  UNL     1       2.589  23.153   6.215  1.00  0.00     0.020 C 
HETATM   22  C10 UNL     1       3.385  23.831   5.161  1.00  0.00     0.141 C 
ENDBRANCH   4  17
BRANCH   1  23
HETATM   23  N1  UNL     1       6.376  28.338   4.930  1.00  0.00    -0.225 N 
ATOM     24  H1  UNL     1       6.702  29.031   4.257  1.00  0.00     0.177 HD
BRANCH  23  25
HETATM   25  C3  UNL     1       6.066  28.808   6.244  1.00  0.00     0.137 C 
BRANCH  25  26
HETATM   26  C2  UNL     1       7.312  28.628   7.088  1.00  0.00     0.016 C 
HETATM   27  C1  UNL     1       6.922  28.710   8.551  1.00  0.00     0.006 C 
ENDBRANCH  25  26
ENDBRANCH  23  25
ENDBRANCH   1  23
TORSDOF 9
ENDMDL
MODEL 3
REMARK VINA RESULT: -7.032949906      4.397      8.568
REMARK  9 active torsions:
REMARK  status: ('A' for Active; 'I' for Inactive)
REMARK    1  A    between atoms: C2_2  and  C3_3 
REMARK    2  A    between atoms: C3_3  and  N1_4 
REMARK    3  A    between atoms: N1_4  and  C4_6 
REMARK    4  A    between atoms: C5_9  and  N3_10 
REMARK    5  A    between atoms: C11_18  and  N5_19 
REMARK    6  A    between atoms: N5_19  and  C12_21 
REMARK    7  A    between atoms: C12_21  and  C13_22 
REMARK    8  A    between atoms: C13_22  and  C14_23 
REMARK    9  A    between atoms: C14_23  and  O1_24 
ROOT
HETATM    1  C4  UNL     1       6.313  26.804   4.522  1.00  0.00     0.707 A 
HETATM    2  N2  UNL     1       5.507  25.928   5.144  1.00  0.00    -0.021 N 
ATOM      3  H2  UNL     1       4.843  26.269   5.839  1.00  0.00     0.203 HD
HETATM    4  C5  UNL     1       5.557  24.596   4.869  1.00  0.00     0.709 A 
HETATM    5  N4  UNL     1       6.451  24.205   3.945  1.00  0.00    -0.021 N 
ATOM      6  H4  UNL     1       6.507  23.211   3.723  1.00  0.00     0.203 HD
HETATM    7  C11 UNL     1       7.276  25.044   3.298  1.00  0.00     0.707 A 
HETATM    8  N6  UNL     1       7.191  26.365   3.604  1.00  0.00    -0.022 N 
ATOM      9  H6  UNL     1       7.802  27.031   3.131  1.00  0.00     0.203 HD
ENDROOT
BRANCH   7  10
HETATM   10  N5  UNL     1       8.131  24.710   2.420  1.00  0.00    -0.225 N 
ATOM     11  H5  UNL     1       8.958  24.217   2.757  1.00  0.00     0.177 HD
BRANCH  10  12
HETATM   12  C12 UNL     1       8.065  24.950   1.002  1.00  0.00     0.140 C 
BRANCH  12  13
HETATM   13  C13 UNL     1       9.123  26.030   0.727  1.00  0.00     0.046 C 
BRANCH  13  14
HETATM   14  C14 UNL     1       8.363  27.247   0.241  1.00  0.00     0.168 C 
BRANCH  14  15
HETATM   15  O1  UNL     1       7.150  27.434   0.854  1.00  0.00    -0.396 OA
HETATM   16  C15 UNL     1       6.707  28.728   0.909  1.00  0.00     0.201 C 
ENDBRANCH  14  15
ENDBRANCH  13  14
ENDBRANCH  12  13
ENDBRANCH  10  12
ENDBRANCH   7  10
BRANCH   4  17
HETATM   17  N3  UNL     1       4.687  23.686   5.548  1.00  0.00    -0.217 N 
HETATM   18  C6  UNL     1       5.283  22.802   6.515  1.00  0.00     0.141 C 
HETATM   19  C7  UNL     1       4.303  21.707   6.830  1.00  0.00     0.020 C 
HETATM   20  C8  UNL     1       3.017  22.351   7.276  1.00  0.00     0.003 C 
HETATM   21  C9  UNL     1       2.366  23.162   6.204  1.00  0.00     0.020 C 
HETATM   22  C10 UNL     1       3.296  23.735   5.198  1.00  0.00     0.141 C 
ENDBRANCH   4  17
BRANCH   1  23
HETATM   23  N1  UNL     1       6.303  28.071   4.752  1.00  0.00    -0.225 N 
ATOM     24  H1  UNL     1       6.458  28.686   3.953  1.00  0.00     0.177 HD
BRANCH  23  25
HETATM   25  C3  UNL     1       6.097  28.697   6.020  1.00  0.00     0.137 C 
BRANCH  25  26
HETATM   26  C2  UNL     1       7.380  28.539   6.811  1.00  0.00     0.016 C 
HETATM   27  C1  UNL     1       7.072  28.751   8.280  1.00  0.00     0.006 C 
ENDBRANCH  25  26
ENDBRANCH  23  25
ENDBRANCH   1  23
TORSDOF 9
ENDMDL
MODEL 4
REMARK VINA RESULT: -6.956600319      4.005      8.173
REMARK  9 active torsions:
REMARK  status: ('A' for Active; 'I' for Inactive)
REMARK    1  A    between atoms: C2_2  and  C3_3 
REMARK    2  A    between atoms: C3_3  and  N1_4 
REMARK    3  A    between atoms: N1_4  and  C4_6 
REMARK    4  A    between atoms: C5_9  and  N3_10 
REMARK    5  A    between atoms: C11_18  and  N5_19 
REMARK    6  A    between atoms: N5_19  and  C12_21 
REMARK    7  A    between atoms: C12_21  and  C13_22 
REMARK    8  A    between atoms: C13_22  and  C14_23 
REMARK    9  A    between atoms: C14_23  and  O1_24 
ROOT
HETATM    1  C4  UNL     1       7.136  24.920   3.238  1.00  0.00     0.707 A 
HETATM    2  N2  UNL     1       6.324  24.091   3.914  1.00  0.00    -0.021 N 
ATOM      3  H2  UNL     1       6.357  23.090   3.717  1.00  0.00     0.203 HD
HETATM    4  C5  UNL     1       5.457  24.554   4.856  1.00  0.00     0.709 A 
HETATM    5  N4  UNL     1       5.458  25.880   5.074  1.00  0.00    -0.021 N 
ATOM      6  H4  UNL     1       4.817  26.251   5.775  1.00  0.00     0.203 HD
HETATM    7  C11 UNL     1       6.251  26.747   4.423  1.00  0.00     0.707 A 
HETATM    8  N6  UNL     1       7.100  26.240   3.492  1.00  0.00    -0.022 N 
ATOM      9  H6  UNL     1       7.718  26.869   2.979  1.00  0.00     0.203 HD
ENDROOT
BRANCH   7  10
HETATM   10  N5  UNL     1       6.279  28.004   4.604  1.00  0.00    -0.225 N 
ATOM     11  H5  UNL     1       5.388  28.450   4.823  1.00  0.00     0.177 HD
BRANCH  10  12
HETATM   12  C12 UNL     1       7.426  28.870   4.533  1.00  0.00     0.140 C 
BRANCH  12  13
HETATM   13  C13 UNL     1       7.405  29.673   5.843  1.00  0.00     0.046 C 
BRANCH  13  14
HETATM   14  C14 UNL     1       5.949  29.764   6.256  1.00  0.00     0.168 C 
BRANCH  14  15
HETATM   15  O1  UNL     1       5.631  29.010   7.357  1.00  0.00    -0.396 OA
HETATM   16  C15 UNL     1       6.679  28.678   8.172  1.00  0.00     0.201 C 
ENDBRANCH  14  15
ENDBRANCH  13  14
ENDBRANCH  12  13
ENDBRANCH  10  12
ENDBRANCH   7  10
BRANCH   4  17
HETATM   17  N3  UNL     1       4.604  23.648   5.560  1.00  0.00    -0.217 N 
HETATM   18  C6  UNL     1       5.220  22.779   6.527  1.00  0.00     0.141 C 
HETATM   19  C7  UNL     1       4.252  21.682   6.872  1.00  0.00     0.020 C 
HETATM   20  C8  UNL     1       2.969  22.324   7.331  1.00  0.00     0.003 C 
HETATM   21  C9  UNL     1       2.297  23.119   6.259  1.00  0.00     0.020 C 
HETATM   22  C10 UNL     1       3.207  23.685   5.232  1.00  0.00     0.141 C 
ENDBRANCH   4  17
BRANCH   1  23
HETATM   23  N1  UNL     1       7.967  24.528   2.337  1.00  0.00    -0.225 N 
ATOM     24  H1  UNL     1       8.524  23.700   2.553  1.00  0.00     0.177 HD
BRANCH  23  25
HETATM   25  C3  UNL     1       8.186  25.141   1.065  1.00  0.00     0.137 C 
BRANCH  25  26
HETATM   26  C2  UNL     1       8.587  24.041   0.102  1.00  0.00     0.016 C 
HETATM   27  C1  UNL     1       8.578  24.604  -1.306  1.00  0.00     0.006 C 
ENDBRANCH  25  26
ENDBRANCH  23  25
ENDBRANCH   1  23
TORSDOF 9
ENDMDL
MODEL 5
REMARK VINA RESULT: -6.930520761      4.653      8.904
REMARK  9 active torsions:
REMARK  status: ('A' for Active; 'I' for Inactive)
REMARK    1  A    between atoms: C2_2  and  C3_3 
REMARK    2  A    between atoms: C3_3  and  N1_4 
REMARK    3  A    between atoms: N1_4  and  C4_6 
REMARK    4  A    between atoms: C5_9  and  N3_10 
REMARK    5  A    between atoms: C11_18  and  N5_19 
REMARK    6  A    between atoms: N5_19  and  C12_21 
REMARK    7  A    between atoms: C12_21  and  C13_22 
REMARK    8  A    between atoms: C13_22  and  C14_23 
REMARK    9  A    between atoms: C14_23  and  O1_24 
ROOT
HETATM    1  C4  UNL     1       7.720  24.712   2.972  1.00  0.00     0.707 A 
HETATM    2  N2  UNL     1       6.738  24.065   3.621  1.00  0.00    -0.021 N 
ATOM      3  H2  UNL     1       6.346  23.217   3.212  1.00  0.00     0.203 HD
HETATM    4  C5  UNL     1       6.255  24.514   4.812  1.00  0.00     0.709 A 
HETATM    5  N4  UNL     1       6.810  25.635   5.302  1.00  0.00    -0.021 N 
ATOM      6  H4  UNL     1       6.464  25.991   6.193  1.00  0.00     0.203 HD
HETATM    7  C11 UNL     1       7.793  26.315   4.689  1.00  0.00     0.707 A 
HETATM    8  N6  UNL     1       8.244  25.830   3.504  1.00  0.00    -0.022 N 
ATOM      9  H6  UNL     1       8.991  26.320   3.011  1.00  0.00     0.203 HD
ENDROOT
BRANCH   7  10
HETATM   10  N5  UNL     1       8.341  27.376   5.123  1.00  0.00    -0.225 N 
ATOM     11  H5  UNL     1       9.322  27.302   5.393  1.00  0.00     0.177 HD
BRANCH  10  12
HETATM   12  C12 UNL     1       7.732  28.671   5.278  1.00  0.00     0.140 C 
BRANCH  12  13
HETATM   13  C13 UNL     1       8.516  29.599   4.337  1.00  0.00     0.046 C 
BRANCH  13  14
HETATM   14  C14 UNL     1       7.678  29.730   3.082  1.00  0.00     0.168 C 
BRANCH  14  15
HETATM   15  O1  UNL     1       7.754  28.648   2.241  1.00  0.00    -0.396 OA
HETATM   16  C15 UNL     1       6.619  28.370   1.528  1.00  0.00     0.201 C 
ENDBRANCH  14  15
ENDBRANCH  13  14
ENDBRANCH  12  13
ENDBRANCH  10  12
ENDBRANCH   7  10
BRANCH   4  17
HETATM   17  N3  UNL     1       5.208  23.805   5.480  1.00  0.00    -0.217 N 
HETATM   18  C6  UNL     1       3.862  24.032   5.024  1.00  0.00     0.141 C 
HETATM   19  C7  UNL     1       2.911  23.505   6.061  1.00  0.00     0.020 C 
HETATM   20  C8  UNL     1       3.253  22.061   6.313  1.00  0.00     0.003 C 
HETATM   21  C9  UNL     1       4.614  21.876   6.901  1.00  0.00     0.020 C 
HETATM   22  C10 UNL     1       5.597  22.931   6.550  1.00  0.00     0.141 C 
ENDBRANCH   4  17
BRANCH   1  23
HETATM   23  N1  UNL     1       8.205  24.326   1.844  1.00  0.00    -0.225 N 
ATOM     24  H1  UNL     1       8.552  23.368   1.795  1.00  0.00     0.177 HD
BRANCH  23  25
HETATM   25  C3  UNL     1       8.304  25.112   0.654  1.00  0.00     0.137 C 
BRANCH  25  26
HETATM   26  C2  UNL     1       8.813  24.199  -0.443  1.00  0.00     0.016 C 
HETATM   27  C1  UNL     1       8.409  24.781  -1.784  1.00  0.00     0.006 C 
ENDBRANCH  25  26
ENDBRANCH  23  25
ENDBRANCH   1  23
TORSDOF 9
ENDMDL
