MODEL 1
REMARK VINA RESULT: -6.805591985      0.000      0.000
REMARK  7 active torsions:
REMARK  status: ('A' for Active; 'I' for Inactive)
REMARK    1  A    between atoms: C2_2  and  O1_3 
REMARK    2  A    between atoms: O1_3  and  C3_4 
REMARK    3  A    between atoms: C3_4  and  C4_5 
REMARK    4  A    between atoms: C4_5  and  C5_6 
REMARK    5  A    between atoms: C5_6  and  C6_7 
REMARK    6  A    between atoms: C6_7  and  C7_8 
REMARK    7  A    between atoms: C7_8  and  N1_9 
ROOT
HETATM    1  C4  UNL     1       5.778  25.741   4.616  1.00  0.00     0.194 C 
HETATM    2  N2  UNL     1       5.697  26.641   3.458  1.00  0.00    -0.056 N 
ATOM      3  H21 UNL     1       6.239  27.493   3.602  1.00  0.00     0.278 HD
ATOM      4  H22 UNL     1       4.773  27.062   3.368  1.00  0.00     0.278 HD
HETATM    5  C12 UNL     1       6.090  25.954   2.256  1.00  0.00     0.240 C 
HETATM    6  C13 UNL     1       7.613  25.785   2.349  1.00  0.00     0.086 C 
HETATM    7  C14 UNL     1       7.808  24.773   3.429  1.00  0.00     0.038 A 
HETATM    8  N3  UNL     1       8.682  23.788   3.656  1.00  0.00    -0.305 N 
ATOM      9  H3  UNL     1       9.462  23.535   3.050  1.00  0.00     0.186 HD
HETATM   10  N4  UNL     1       8.369  23.187   4.806  1.00  0.00    -0.311 N 
ATOM     11  H4  UNL     1       8.873  22.401   5.216  1.00  0.00     0.186 HD
HETATM   12  C15 UNL     1       7.272  23.787   5.347  1.00  0.00     0.119 A 
HETATM   13  C16 UNL     1       6.938  24.783   4.462  1.00  0.00     0.025 A 
ENDROOT
BRANCH   1  14
HETATM   14  C3  UNL     1       4.548  24.892   4.559  1.00  0.00     0.216 C 
BRANCH  14  15
HETATM   15  O1  UNL     1       4.139  24.439   5.813  1.00  0.00    -0.388 OA
BRANCH  15  16
HETATM   16  C2  UNL     1       3.484  23.241   5.688  1.00  0.00     0.163 C 
HETATM   17  C1  UNL     1       4.090  22.192   6.632  1.00  0.00     0.033 C 
ENDBRANCH  15  16
ENDBRANCH  14  15
ENDBRANCH   1  14
BRANCH   1  18
HETATM   18  C5  UNL     1       6.044  26.484   5.857  1.00  0.00     0.017 C 
BRANCH  18  19
HETATM   19  C6  UNL     1       6.889  27.662   5.935  1.00  0.00     0.002 C 
BRANCH  19  20
HETATM   20  C7  UNL     1       6.357  29.022   6.158  1.00  0.00     0.299 C 
BRANCH  20  21
HETATM   21  N1  UNL     1       6.678  29.980   5.130  1.00  0.00     0.096 N 
HETATM   22  C8  UNL     1       7.839  29.505   4.389  1.00  0.00     0.299 C 
HETATM   23  C9  UNL     1       8.642  30.682   3.937  1.00  0.00     0.198 C 
HETATM   24  O2  UNL     1       9.148  31.445   4.987  1.00  0.00    -0.388 OA
HETATM   25  C10 UNL     1       8.249  31.541   6.041  1.00  0.00     0.198 C 
HETATM   26  C11 UNL     1       6.826  31.331   5.560  1.00  0.00     0.299 C 
ENDBRANCH  20  21
ENDBRANCH  19  20
ENDBRANCH  18  19
ENDBRANCH   1  18
TORSDOF 7
ENDMDL
MODEL 2
REMARK VINA RESULT: -6.798380421      1.027      1.443
REMARK  7 active torsions:
REMARK  status: ('A' for Active; 'I' for Inactive)
REMARK    1  A    between atoms: C2_2  and  O1_3 
REMARK    2  A    between atoms: O1_3  and  C3_4 
REMARK    3  A    between atoms: C3_4  and  C4_5 
REMARK    4  A    between atoms: C4_5  and  C5_6 
REMARK    5  A    between atoms: C5_6  and  C6_7 
REMARK    6  A    between atoms: C6_7  and  C7_8 
REMARK    7  A    between atoms: C7_8  and  N1_9 
ROOT
HETATM    1  C4  UNL     1       5.771  25.730   4.615  1.00  0.00     0.194 C 
HETATM    2  N2  UNL     1       5.680  26.636   3.462  1.00  0.00    -0.056 N 
ATOM      3  H21 UNL     1       6.218  27.491   3.609  1.00  0.00     0.278 HD
ATOM      4  H22 UNL     1       4.753  27.052   3.379  1.00  0.00     0.278 HD
HETATM    5  C12 UNL     1       6.071  25.958   2.255  1.00  0.00     0.240 C 
HETATM    6  C13 UNL     1       7.596  25.797   2.340  1.00  0.00     0.086 C 
HETATM    7  C14 UNL     1       7.801  24.781   3.414  1.00  0.00     0.038 A 
HETATM    8  N3  UNL     1       8.682  23.799   3.631  1.00  0.00    -0.305 N 
ATOM      9  H3  UNL     1       9.460  23.554   3.020  1.00  0.00     0.186 HD
HETATM   10  N4  UNL     1       8.377  23.191   4.779  1.00  0.00    -0.311 N 
ATOM     11  H4  UNL     1       8.888  22.405   5.183  1.00  0.00     0.186 HD
HETATM   12  C15 UNL     1       7.280  23.781   5.329  1.00  0.00     0.119 A 
HETATM   13  C16 UNL     1       6.935  24.780   4.450  1.00  0.00     0.025 A 
ENDROOT
BRANCH   1  14
HETATM   14  C3  UNL     1       4.546  24.875   4.559  1.00  0.00     0.216 C 
BRANCH  14  15
HETATM   15  O1  UNL     1       4.133  24.429   5.814  1.00  0.00    -0.388 OA
BRANCH  15  16
HETATM   16  C2  UNL     1       3.490  23.224   5.696  1.00  0.00     0.163 C 
HETATM   17  C1  UNL     1       4.105  22.186   6.645  1.00  0.00     0.033 C 
ENDBRANCH  15  16
ENDBRANCH  14  15
ENDBRANCH   1  14
BRANCH   1  18
HETATM   18  C5  UNL     1       6.039  26.468   5.858  1.00  0.00     0.017 C 
BRANCH  18  19
HETATM   19  C6  UNL     1       6.339  27.888   5.915  1.00  0.00     0.002 C 
BRANCH  19  20
HETATM   20  C7  UNL     1       7.702  28.431   5.741  1.00  0.00     0.299 C 
BRANCH  20  21
HETATM   21  N1  UNL     1       7.762  29.785   5.253  1.00  0.00     0.096 N 
HETATM   22  C8  UNL     1       6.410  30.323   5.188  1.00  0.00     0.299 C 
HETATM   23  C9  UNL     1       6.322  31.280   4.043  1.00  0.00     0.198 C 
HETATM   24  O2  UNL     1       6.555  30.686   2.804  1.00  0.00    -0.388 OA
HETATM   25  C10 UNL     1       7.551  29.721   2.869  1.00  0.00     0.198 C 
HETATM   26  C11 UNL     1       8.481  29.980   4.037  1.00  0.00     0.299 C 
ENDBRANCH  20  21
ENDBRANCH  19  20
ENDBRANCH  18  19
ENDBRANCH   1  18
TORSDOF 7
ENDMDL
MODEL 3
REMARK VINA RESULT: -6.797532432      1.897      2.334
REMARK  7 active torsions:
REMARK  status: ('A' for Active; 'I' for Inactive)
REMARK    1  A    between atoms: C2_2  and  O1_3 
REMARK    2  A    between atoms: O1_3  and  C3_4 
REMARK    3  A    between atoms: C3_4  and  C4_5 
REMARK    4  A    between atoms: C4_5  and  C5_6 
REMARK    5  A    between atoms: C5_6  and  C6_7 
REMARK    6  A    between atoms: C6_7  and  C7_8 
REMARK    7  A    between atoms: C7_8  and  N1_9 
ROOT
HETATM    1  C4  UNL     1       5.778  25.754   4.616  1.00  0.00     0.194 C 
HETATM    2  N2  UNL     1       5.718  26.649   3.453  1.00  0.00    -0.056 N 
ATOM      3  H21 UNL     1       6.267  27.498   3.598  1.00  0.00     0.278 HD
ATOM      4  H22 UNL     1       4.799  27.079   3.351  1.00  0.00     0.278 HD
HETATM    5  C12 UNL     1       6.117  25.953   2.258  1.00  0.00     0.240 C 
HETATM    6  C13 UNL     1       7.638  25.770   2.368  1.00  0.00     0.086 C 
HETATM    7  C14 UNL     1       7.812  24.762   3.455  1.00  0.00     0.038 A 
HETATM    8  N3  UNL     1       8.674  23.769   3.695  1.00  0.00    -0.305 N 
ATOM      9  H3  UNL     1       9.458  23.507   3.097  1.00  0.00     0.186 HD
HETATM   10  N4  UNL     1       8.344  23.177   4.844  1.00  0.00    -0.311 N 
ATOM     11  H4  UNL     1       8.836  22.388   5.263  1.00  0.00     0.186 HD
HETATM   12  C15 UNL     1       7.247  23.790   5.371  1.00  0.00     0.119 A 
HETATM   13  C16 UNL     1       6.931  24.784   4.478  1.00  0.00     0.025 A 
ENDROOT
BRANCH   1  14
HETATM   14  C3  UNL     1       4.542  24.917   4.550  1.00  0.00     0.216 C 
BRANCH  14  15
HETATM   15  O1  UNL     1       4.119  24.467   5.801  1.00  0.00    -0.388 OA
BRANCH  15  16
HETATM   16  C2  UNL     1       3.467  23.269   5.673  1.00  0.00     0.163 C 
HETATM   17  C1  UNL     1       4.068  22.221   6.622  1.00  0.00     0.033 C 
ENDBRANCH  15  16
ENDBRANCH  14  15
ENDBRANCH   1  14
BRANCH   1  18
HETATM   18  C5  UNL     1       6.039  26.501   5.856  1.00  0.00     0.017 C 
BRANCH  18  19
HETATM   19  C6  UNL     1       6.776  27.751   5.914  1.00  0.00     0.002 C 
BRANCH  19  20
HETATM   20  C7  UNL     1       6.133  29.053   6.189  1.00  0.00     0.299 C 
BRANCH  20  21
HETATM   21  N1  UNL     1       6.704  29.796   7.283  1.00  0.00     0.096 N 
HETATM   22  C8  UNL     1       7.770  29.006   7.886  1.00  0.00     0.299 C 
HETATM   23  C9  UNL     1       7.821  29.297   9.351  1.00  0.00     0.198 C 
HETATM   24  O2  UNL     1       6.656  28.942  10.028  1.00  0.00    -0.388 OA
HETATM   25  C10 UNL     1       5.518  29.201   9.276  1.00  0.00     0.198 C 
HETATM   26  C11 UNL     1       5.781  30.288   8.252  1.00  0.00     0.299 C 
ENDBRANCH  20  21
ENDBRANCH  19  20
ENDBRANCH  18  19
ENDBRANCH   1  18
TORSDOF 7
ENDMDL
MODEL 4
REMARK VINA RESULT: -6.730544452      1.936      2.472
REMARK  7 active torsions:
REMARK  status: ('A' for Active; 'I' for Inactive)
REMARK    1  A    between atoms: C2_2  and  O1_3 
REMARK    2  A    between atoms: O1_3  and  C3_4 
REMARK    3  A    between atoms: C3_4  and  C4_5 
REMARK    4  A    between atoms: C4_5  and  C5_6 
REMARK    5  A    between atoms: C5_6  and  C6_7 
REMARK    6  A    between atoms: C6_7  and  C7_8 
REMARK    7  A    between atoms: C7_8  and  N1_9 
ROOT
HETATM    1  C4  UNL     1       5.791  25.764   4.614  1.00  0.00     0.194 C 
HETATM    2  N2  UNL     1       5.711  26.650   3.445  1.00  0.00    -0.056 N 
ATOM      3  H21 UNL     1       6.258  27.502   3.576  1.00  0.00     0.278 HD
ATOM      4  H22 UNL     1       4.788  27.074   3.352  1.00  0.00     0.278 HD
HETATM    5  C12 UNL     1       6.097  25.945   2.251  1.00  0.00     0.240 C 
HETATM    6  C13 UNL     1       7.620  25.770   2.341  1.00  0.00     0.086 C 
HETATM    7  C14 UNL     1       7.813  24.772   3.434  1.00  0.00     0.038 A 
HETATM    8  N3  UNL     1       8.683  23.785   3.671  1.00  0.00    -0.305 N 
ATOM      9  H3  UNL     1       9.459  23.521   3.065  1.00  0.00     0.186 HD
HETATM   10  N4  UNL     1       8.371  23.201   4.830  1.00  0.00    -0.311 N 
ATOM     11  H4  UNL     1       8.872  22.417   5.249  1.00  0.00     0.186 HD
HETATM   12  C15 UNL     1       7.278  23.813   5.366  1.00  0.00     0.119 A 
HETATM   13  C16 UNL     1       6.946  24.799   4.469  1.00  0.00     0.025 A 
ENDROOT
BRANCH   1  14
HETATM   14  C3  UNL     1       4.557  24.921   4.572  1.00  0.00     0.216 C 
BRANCH  14  15
HETATM   15  O1  UNL     1       4.177  24.447   5.827  1.00  0.00    -0.388 OA
BRANCH  15  16
HETATM   16  C2  UNL     1       3.514  23.254   5.697  1.00  0.00     0.163 C 
HETATM   17  C1  UNL     1       4.115  22.195   6.634  1.00  0.00     0.033 C 
ENDBRANCH  15  16
ENDBRANCH  14  15
ENDBRANCH   1  14
BRANCH   1  18
HETATM   18  C5  UNL     1       6.065  26.522   5.844  1.00  0.00     0.017 C 
BRANCH  18  19
HETATM   19  C6  UNL     1       7.061  27.574   5.948  1.00  0.00     0.002 C 
BRANCH  19  20
HETATM   20  C7  UNL     1       6.823  28.842   6.669  1.00  0.00     0.299 C 
BRANCH  20  21
HETATM   21  N1  UNL     1       6.734  28.722   8.102  1.00  0.00     0.096 N 
HETATM   22  C8  UNL     1       5.581  29.481   8.568  1.00  0.00     0.299 C 
HETATM   23  C9  UNL     1       5.881  30.036   9.923  1.00  0.00     0.198 C 
HETATM   24  O2  UNL     1       6.950  30.928   9.933  1.00  0.00    -0.388 OA
HETATM   25  C10 UNL     1       7.965  30.534   9.070  1.00  0.00     0.198 C 
HETATM   26  C11 UNL     1       7.919  29.038   8.829  1.00  0.00     0.299 C 
ENDBRANCH  20  21
ENDBRANCH  19  20
ENDBRANCH  18  19
ENDBRANCH   1  18
TORSDOF 7
ENDMDL
MODEL 5
REMARK VINA RESULT: -6.667248169      0.954      1.239
REMARK  7 active torsions:
REMARK  status: ('A' for Active; 'I' for Inactive)
REMARK    1  A    between atoms: C2_2  and  O1_3 
REMARK    2  A    between atoms: O1_3  and  C3_4 
REMARK    3  A    between atoms: C3_4  and  C4_5 
REMARK    4  A    between atoms: C4_5  and  C5_6 
REMARK    5  A    between atoms: C5_6  and  C6_7 
REMARK    6  A    between atoms: C6_7  and  C7_8 
REMARK    7  A    between atoms: C7_8  and  N1_9 
ROOT
HETATM    1  C4  UNL     1       5.789  25.766   4.599  1.00  0.00     0.194 C 
HETATM    2  N2  UNL     1       5.711  26.646   3.426  1.00  0.00    -0.056 N 
ATOM      3  H21 UNL     1       6.258  27.498   3.554  1.00  0.00     0.278 HD
ATOM      4  H22 UNL     1       4.789  27.071   3.330  1.00  0.00     0.278 HD
HETATM    5  C12 UNL     1       6.098  25.936   2.235  1.00  0.00     0.240 C 
HETATM    6  C13 UNL     1       7.620  25.760   2.329  1.00  0.00     0.086 C 
HETATM    7  C14 UNL     1       7.812  24.766   3.426  1.00  0.00     0.038 A 
HETATM    8  N3  UNL     1       8.680  23.780   3.669  1.00  0.00    -0.305 N 
ATOM      9  H3  UNL     1       9.458  23.512   3.065  1.00  0.00     0.186 HD
HETATM   10  N4  UNL     1       8.366  23.201   4.829  1.00  0.00    -0.311 N 
ATOM     11  H4  UNL     1       8.867  22.419   5.252  1.00  0.00     0.186 HD
HETATM   12  C15 UNL     1       7.274  23.817   5.362  1.00  0.00     0.119 A 
HETATM   13  C16 UNL     1       6.943  24.799   4.460  1.00  0.00     0.025 A 
ENDROOT
BRANCH   1  14
HETATM   14  C3  UNL     1       4.555  24.923   4.560  1.00  0.00     0.216 C 
BRANCH  14  15
HETATM   15  O1  UNL     1       4.178  24.447   5.815  1.00  0.00    -0.388 OA
BRANCH  15  16
HETATM   16  C2  UNL     1       3.499  23.264   5.684  1.00  0.00     0.163 C 
HETATM   17  C1  UNL     1       4.078  22.200   6.627  1.00  0.00     0.033 C 
ENDBRANCH  15  16
ENDBRANCH  14  15
ENDBRANCH   1  14
BRANCH   1  18
HETATM   18  C5  UNL     1       6.062  26.529   5.826  1.00  0.00     0.017 C 
BRANCH  18  19
HETATM   19  C6  UNL     1       6.606  27.875   5.844  1.00  0.00     0.002 C 
BRANCH  19  20
HETATM   20  C7  UNL     1       6.998  28.570   7.087  1.00  0.00     0.299 C 
BRANCH  20  21
HETATM   21  N1  UNL     1       6.620  29.959   7.156  1.00  0.00     0.096 N 
HETATM   22  C8  UNL     1       5.656  30.238   6.100  1.00  0.00     0.299 C 
HETATM   23  C9  UNL     1       5.844  31.644   5.630  1.00  0.00     0.198 C 
HETATM   24  O2  UNL     1       7.098  31.879   5.071  1.00  0.00    -0.388 OA
HETATM   25  C10 UNL     1       8.104  31.198   5.744  1.00  0.00     0.198 C 
HETATM   26  C11 UNL     1       7.692  30.898   7.172  1.00  0.00     0.299 C 
ENDBRANCH  20  21
ENDBRANCH  19  20
ENDBRANCH  18  19
ENDBRANCH   1  18
TORSDOF 7
ENDMDL
