MODEL 1
REMARK VINA RESULT: -8.137234570      0.000      0.000
REMARK  7 active torsions:
REMARK  status: ('A' for Active; 'I' for Inactive)
REMARK    1  A    between atoms: C2_2  and  C3_3 
REMARK    2  A    between atoms: C3_3  and  C4_4 
REMARK    3  A    between atoms: C4_4  and  N1_5 
REMARK    4  A    between atoms: N1_5  and  C5_8 
REMARK    5  A    between atoms: C5_8  and  C6_9 
REMARK    6  A    between atoms: C9_13  and  C10_14 
REMARK    7  A    between atoms: C10_14  and  N2_15 
ROOT
HETATM    1  C10 UNL     1       5.923  24.775   4.769  1.00  0.00     0.137 C 
ENDROOT
BRANCH   1   2
HETATM    2  C9  UNL     1       7.359  25.186   4.990  1.00  0.00     0.037 C 
HETATM    3  C6  UNL     1       8.243  24.775   3.856  1.00  0.00     0.152 C 
HETATM    4  O1  UNL     1       9.333  25.633   4.000  1.00  0.00    -0.384 OA
HETATM    5  C7  UNL     1       8.848  26.872   4.323  1.00  0.00     0.168 C 
HETATM    6  C8  UNL     1       7.457  26.716   4.862  1.00  0.00     0.035 C 
BRANCH   3   7
HETATM    7  C5  UNL     1       7.631  25.041   2.513  1.00  0.00     0.264 C 
BRANCH   7   8
HETATM    8  N1  UNL     1       8.250  24.127   1.564  1.00  0.00    -0.073 N 
ATOM      9  H12 UNL     1       7.690  23.287   1.423  1.00  0.00     0.277 HD
ATOM     10  H11 UNL     1       9.086  23.688   1.949  1.00  0.00     0.277 HD
BRANCH   8  11
HETATM   11  C4  UNL     1       8.528  24.815   0.304  1.00  0.00     0.232 C 
BRANCH  11  12
HETATM   12  C3  UNL     1       8.482  26.304   0.517  1.00  0.00     0.027 C 
BRANCH  12  13
HETATM   13  C2  UNL     1       9.367  27.039  -0.470  1.00  0.00    -0.003 C 
HETATM   14  C1  UNL     1      10.737  26.376  -0.499  1.00  0.00     0.005 C 
ENDBRANCH  12  13
ENDBRANCH  11  12
ENDBRANCH   8  11
ENDBRANCH   7   8
ENDBRANCH   3   7
ENDBRANCH   1   2
BRANCH   1  15
HETATM   15  N2  UNL     1       5.482  23.827   5.729  1.00  0.00    -0.337 N 
HETATM   16  C11 UNL     1       6.255  23.122   6.611  1.00  0.00     0.183 A 
HETATM   17  N3  UNL     1       5.526  22.321   7.362  1.00  0.00    -0.354 N 
HETATM   18  C12 UNL     1       4.252  22.465   7.005  1.00  0.00     0.043 A 
ATOM     19  H3  UNL     1       5.877  21.699   8.090  1.00  0.00     0.166 HD
HETATM   20  C13 UNL     1       4.236  23.405   5.987  1.00  0.00     0.126 A 
HETATM   21  C17 UNL     1       3.147  21.708   7.648  1.00  0.00     0.061 C 
HETATM   22  C14 UNL     1       3.050  23.879   5.290  1.00  0.00     0.270 C 
HETATM   23  O2  UNL     1       3.244  24.640   4.323  1.00  0.00    -0.266 OA
HETATM   24  N4  UNL     1       1.682  23.575   5.583  1.00  0.00    -0.356 N 
HETATM   25  C15 UNL     1       1.138  22.537   6.403  1.00  0.00     0.123 C 
ATOM     26  H4  UNL     1       0.996  24.188   5.142  1.00  0.00     0.162 HD
HETATM   27  C16 UNL     1       2.088  21.388   6.608  1.00  0.00     0.026 C 
ENDBRANCH   1  15
TORSDOF 7
ENDMDL
MODEL 2
REMARK VINA RESULT: -8.135932323      0.983      1.252
REMARK  7 active torsions:
REMARK  status: ('A' for Active; 'I' for Inactive)
REMARK    1  A    between atoms: C2_2  and  C3_3 
REMARK    2  A    between atoms: C3_3  and  C4_4 
REMARK    3  A    between atoms: C4_4  and  N1_5 
REMARK    4  A    between atoms: N1_5  and  C5_8 
REMARK    5  A    between atoms: C5_8  and  C6_9 
REMARK    6  A    between atoms: C9_13  and  C10_14 
REMARK    7  A    between atoms: C10_14  and  N2_15 
ROOT
HETATM    1  C10 UNL     1       5.915  24.780   4.788  1.00  0.00     0.137 C 
ENDROOT
BRANCH   1   2
HETATM    2  C9  UNL     1       7.356  25.180   5.000  1.00  0.00     0.037 C 
HETATM    3  C6  UNL     1       8.223  24.799   3.842  1.00  0.00     0.152 C 
HETATM    4  O1  UNL     1       9.317  25.648   3.995  1.00  0.00    -0.384 OA
HETATM    5  C7  UNL     1       8.842  26.879   4.360  1.00  0.00     0.168 C 
HETATM    6  C8  UNL     1       7.458  26.713   4.914  1.00  0.00     0.035 C 
BRANCH   3   7
HETATM    7  C5  UNL     1       7.592  25.104   2.516  1.00  0.00     0.264 C 
BRANCH   7   8
HETATM    8  N1  UNL     1       8.208  24.228   1.530  1.00  0.00    -0.073 N 
ATOM      9  H12 UNL     1       7.627  23.415   1.328  1.00  0.00     0.277 HD
ATOM     10  H11 UNL     1       9.021  23.743   1.907  1.00  0.00     0.277 HD
BRANCH   8  11
HETATM   11  C4  UNL     1       8.535  24.978   0.319  1.00  0.00     0.232 C 
BRANCH  11  12
HETATM   12  C3  UNL     1       8.874  24.023  -0.794  1.00  0.00     0.027 C 
BRANCH  12  13
HETATM   13  C2  UNL     1       8.456  24.567  -2.146  1.00  0.00    -0.003 C 
HETATM   14  C1  UNL     1       8.807  23.548  -3.222  1.00  0.00     0.005 C 
ENDBRANCH  12  13
ENDBRANCH  11  12
ENDBRANCH   8  11
ENDBRANCH   7   8
ENDBRANCH   3   7
ENDBRANCH   1   2
BRANCH   1  15
HETATM   15  N2  UNL     1       5.476  23.828   5.744  1.00  0.00    -0.337 N 
HETATM   16  C11 UNL     1       6.250  23.123   6.626  1.00  0.00     0.183 A 
HETATM   17  N3  UNL     1       5.523  22.318   7.374  1.00  0.00    -0.354 N 
HETATM   18  C12 UNL     1       4.249  22.459   7.015  1.00  0.00     0.043 A 
ATOM     19  H3  UNL     1       5.875  21.695   8.101  1.00  0.00     0.166 HD
HETATM   20  C13 UNL     1       4.231  23.402   6.000  1.00  0.00     0.126 A 
HETATM   21  C17 UNL     1       3.145  21.697   7.655  1.00  0.00     0.061 C 
HETATM   22  C14 UNL     1       3.044  23.873   5.302  1.00  0.00     0.270 C 
HETATM   23  O2  UNL     1       3.238  24.638   4.337  1.00  0.00    -0.266 OA
HETATM   24  N4  UNL     1       1.677  23.564   5.592  1.00  0.00    -0.356 N 
HETATM   25  C15 UNL     1       1.135  22.522   6.409  1.00  0.00     0.123 C 
ATOM     26  H4  UNL     1       0.990  24.176   5.153  1.00  0.00     0.162 HD
HETATM   27  C16 UNL     1       2.089  21.376   6.612  1.00  0.00     0.026 C 
ENDBRANCH   1  15
TORSDOF 7
ENDMDL
MODEL 3
REMARK VINA RESULT: -8.060390510      0.787      1.121
REMARK  7 active torsions:
REMARK  status: ('A' for Active; 'I' for Inactive)
REMARK    1  A    between atoms: C2_2  and  C3_3 
REMARK    2  A    between atoms: C3_3  and  C4_4 
REMARK    3  A    between atoms: C4_4  and  N1_5 
REMARK    4  A    between atoms: N1_5  and  C5_8 
REMARK    5  A    between atoms: C5_8  and  C6_9 
REMARK    6  A    between atoms: C9_13  and  C10_14 
REMARK    7  A    between atoms: C10_14  and  N2_15 
ROOT
HETATM    1  C10 UNL     1       5.778  24.700   4.853  1.00  0.00     0.137 C 
ENDROOT
BRANCH   1   2
HETATM    2  C9  UNL     1       7.238  25.045   5.029  1.00  0.00     0.037 C 
HETATM    3  C6  UNL     1       8.074  24.553   3.891  1.00  0.00     0.152 C 
HETATM    4  O1  UNL     1       9.208  25.358   3.984  1.00  0.00    -0.384 OA
HETATM    5  C7  UNL     1       8.794  26.630   4.275  1.00  0.00     0.168 C 
HETATM    6  C8  UNL     1       7.409  26.563   4.847  1.00  0.00     0.035 C 
BRANCH   3   7
HETATM    7  C5  UNL     1       7.446  24.804   2.554  1.00  0.00     0.264 C 
BRANCH   7   8
HETATM    8  N1  UNL     1       8.413  24.412   1.538  1.00  0.00    -0.073 N 
ATOM      9  H12 UNL     1       8.199  23.497   1.143  1.00  0.00     0.277 HD
ATOM     10  H11 UNL     1       9.322  24.193   1.943  1.00  0.00     0.277 HD
BRANCH   8  11
HETATM   11  C4  UNL     1       8.511  25.442   0.506  1.00  0.00     0.232 C 
BRANCH  11  12
HETATM   12  C3  UNL     1       7.476  26.507   0.750  1.00  0.00     0.027 C 
BRANCH  12  13
HETATM   13  C2  UNL     1       8.086  27.895   0.739  1.00  0.00    -0.003 C 
HETATM   14  C1  UNL     1       7.238  28.818   1.602  1.00  0.00     0.005 C 
ENDBRANCH  12  13
ENDBRANCH  11  12
ENDBRANCH   8  11
ENDBRANCH   7   8
ENDBRANCH   3   7
ENDBRANCH   1   2
BRANCH   1  15
HETATM   15  N2  UNL     1       5.331  23.751   5.808  1.00  0.00    -0.337 N 
HETATM   16  C11 UNL     1       6.099  23.039   6.689  1.00  0.00     0.183 A 
HETATM   17  N3  UNL     1       5.365  22.239   7.436  1.00  0.00    -0.354 N 
HETATM   18  C12 UNL     1       4.092  22.390   7.077  1.00  0.00     0.043 A 
ATOM     19  H3  UNL     1       5.712  21.613   8.163  1.00  0.00     0.166 HD
HETATM   20  C13 UNL     1       4.083  23.334   6.063  1.00  0.00     0.126 A 
HETATM   21  C17 UNL     1       2.983  21.637   7.716  1.00  0.00     0.061 C 
HETATM   22  C14 UNL     1       2.900  23.816   5.365  1.00  0.00     0.270 C 
HETATM   23  O2  UNL     1       3.100  24.580   4.401  1.00  0.00    -0.266 OA
HETATM   24  N4  UNL     1       1.530  23.518   5.655  1.00  0.00    -0.356 N 
HETATM   25  C15 UNL     1       0.980  22.479   6.470  1.00  0.00     0.123 C 
ATOM     26  H4  UNL     1       0.848  24.135   5.215  1.00  0.00     0.162 HD
HETATM   27  C16 UNL     1       1.924  21.326   6.673  1.00  0.00     0.026 C 
ENDBRANCH   1  15
TORSDOF 7
ENDMDL
MODEL 4
REMARK VINA RESULT: -7.796802709      2.578      8.362
REMARK  7 active torsions:
REMARK  status: ('A' for Active; 'I' for Inactive)
REMARK    1  A    between atoms: C2_2  and  C3_3 
REMARK    2  A    between atoms: C3_3  and  C4_4 
REMARK    3  A    between atoms: C4_4  and  N1_5 
REMARK    4  A    between atoms: N1_5  and  C5_8 
REMARK    5  A    between atoms: C5_8  and  C6_9 
REMARK    6  A    between atoms: C9_13  and  C10_14 
REMARK    7  A    between atoms: C10_14  and  N2_15 
ROOT
HETATM    1  C10 UNL     1       3.001  22.976   5.949  1.00  0.00     0.137 C 
ENDROOT
BRANCH   1   2
HETATM    2  C9  UNL     1       2.427  22.660   7.310  1.00  0.00     0.037 C 
HETATM    3  C6  UNL     1       1.033  23.180   7.468  1.00  0.00     0.152 C 
HETATM    4  O1  UNL     1       0.539  22.397   8.511  1.00  0.00    -0.384 OA
HETATM    5  C7  UNL     1       0.974  21.115   8.313  1.00  0.00     0.168 C 
HETATM    6  C8  UNL     1       2.157  21.148   7.391  1.00  0.00     0.035 C 
BRANCH   3   7
HETATM    7  C5  UNL     1       0.177  22.925   6.264  1.00  0.00     0.264 C 
BRANCH   7   8
HETATM    8  N1  UNL     1      -0.584  24.140   6.006  1.00  0.00    -0.073 N 
ATOM      9  H12 UNL     1      -1.005  24.135   5.078  1.00  0.00     0.277 HD
ATOM     10  H11 UNL     1       0.023  24.952   5.892  1.00  0.00     0.277 HD
BRANCH   8  11
HETATM   11  C4  UNL     1      -1.579  24.348   7.055  1.00  0.00     0.232 C 
BRANCH  11  12
HETATM   12  C3  UNL     1      -2.577  23.221   7.039  1.00  0.00     0.027 C 
BRANCH  12  13
HETATM   13  C2  UNL     1      -2.675  22.540   8.390  1.00  0.00    -0.003 C 
HETATM   14  C1  UNL     1      -2.658  21.031   8.189  1.00  0.00     0.005 C 
ENDBRANCH  12  13
ENDBRANCH  11  12
ENDBRANCH   8  11
ENDBRANCH   7   8
ENDBRANCH   3   7
ENDBRANCH   1   2
BRANCH   1  15
HETATM   15  N2  UNL     1       4.414  23.096   5.977  1.00  0.00    -0.337 N 
HETATM   16  C11 UNL     1       5.288  22.402   6.768  1.00  0.00     0.183 A 
HETATM   17  N3  UNL     1       6.537  22.759   6.543  1.00  0.00    -0.354 N 
HETATM   18  C12 UNL     1       6.534  23.699   5.600  1.00  0.00     0.043 A 
ATOM     19  H3  UNL     1       7.361  22.382   7.010  1.00  0.00     0.166 HD
HETATM   20  C13 UNL     1       5.207  23.901   5.255  1.00  0.00     0.126 A 
HETATM   21  C17 UNL     1       7.778  24.335   5.096  1.00  0.00     0.061 C 
HETATM   22  C14 UNL     1       4.726  24.843   4.256  1.00  0.00     0.270 C 
HETATM   23  O2  UNL     1       3.489  24.968   4.165  1.00  0.00    -0.266 OA
HETATM   24  N4  UNL     1       5.504  25.645   3.361  1.00  0.00    -0.356 N 
HETATM   25  C15 UNL     1       6.899  25.959   3.404  1.00  0.00     0.123 C 
ATOM     26  H4  UNL     1       4.989  26.052   2.581  1.00  0.00     0.162 HD
HETATM   27  C16 UNL     1       7.500  25.792   4.774  1.00  0.00     0.026 C 
ENDBRANCH   1  15
TORSDOF 7
ENDMDL
MODEL 5
REMARK VINA RESULT: -7.726859294      2.475      7.910
REMARK  7 active torsions:
REMARK  status: ('A' for Active; 'I' for Inactive)
REMARK    1  A    between atoms: C2_2  and  C3_3 
REMARK    2  A    between atoms: C3_3  and  C4_4 
REMARK    3  A    between atoms: C4_4  and  N1_5 
REMARK    4  A    between atoms: N1_5  and  C5_8 
REMARK    5  A    between atoms: C5_8  and  C6_9 
REMARK    6  A    between atoms: C9_13  and  C10_14 
REMARK    7  A    between atoms: C10_14  and  N2_15 
ROOT
HETATM    1  C10 UNL     1       5.150  25.510   4.501  1.00  0.00     0.137 C 
ENDROOT
BRANCH   1   2
HETATM    2  C9  UNL     1       5.806  24.478   5.388  1.00  0.00     0.037 C 
HETATM    3  C6  UNL     1       4.813  23.755   6.241  1.00  0.00     0.152 C 
HETATM    4  O1  UNL     1       5.499  22.588   6.574  1.00  0.00    -0.384 OA
HETATM    5  C7  UNL     1       6.162  22.160   5.456  1.00  0.00     0.168 C 
HETATM    6  C8  UNL     1       6.296  23.315   4.508  1.00  0.00     0.035 C 
BRANCH   3   7
HETATM    7  C5  UNL     1       3.578  23.358   5.490  1.00  0.00     0.264 C 
BRANCH   7   8
HETATM    8  N1  UNL     1       2.516  23.169   6.467  1.00  0.00    -0.073 N 
ATOM      9  H12 UNL     1       1.704  23.750   6.264  1.00  0.00     0.277 HD
ATOM     10  H11 UNL     1       2.760  23.563   7.375  1.00  0.00     0.277 HD
BRANCH   8  11
HETATM   11  C4  UNL     1       2.163  21.754   6.565  1.00  0.00     0.232 C 
BRANCH  11  12
HETATM   12  C3  UNL     1       1.457  21.496   7.870  1.00  0.00     0.027 C 
BRANCH  12  13
HETATM   13  C2  UNL     1      -0.049  21.569   7.717  1.00  0.00    -0.003 C 
HETATM   14  C1  UNL     1      -0.703  20.776   8.840  1.00  0.00     0.005 C 
ENDBRANCH  12  13
ENDBRANCH  11  12
ENDBRANCH   8  11
ENDBRANCH   7   8
ENDBRANCH   3   7
ENDBRANCH   1   2
BRANCH   1  15
HETATM   15  N2  UNL     1       5.919  26.698   4.400  1.00  0.00    -0.337 N 
HETATM   16  C11 UNL     1       6.211  27.583   5.402  1.00  0.00     0.183 A 
HETATM   17  N3  UNL     1       6.948  28.585   4.965  1.00  0.00    -0.354 N 
HETATM   18  C12 UNL     1       7.167  28.401   3.665  1.00  0.00     0.043 A 
ATOM     19  H3  UNL     1       7.290  29.365   5.525  1.00  0.00     0.166 HD
HETATM   20  C13 UNL     1       6.523  27.222   3.323  1.00  0.00     0.126 A 
HETATM   21  C17 UNL     1       7.967  29.345   2.843  1.00  0.00     0.061 C 
HETATM   22  C14 UNL     1       6.495  26.626   1.997  1.00  0.00     0.270 C 
HETATM   23  O2  UNL     1       5.765  25.625   1.856  1.00  0.00    -0.266 OA
HETATM   24  N4  UNL     1       7.207  27.051   0.830  1.00  0.00    -0.356 N 
HETATM   25  C15 UNL     1       7.870  28.293   0.573  1.00  0.00     0.123 C 
ATOM     26  H4  UNL     1       7.247  26.370   0.072  1.00  0.00     0.162 HD
HETATM   27  C16 UNL     1       7.378  29.415   1.446  1.00  0.00     0.026 C 
ENDBRANCH   1  15
TORSDOF 7
ENDMDL
