MODEL 1
REMARK VINA RESULT: -7.253556218      0.000      0.000
REMARK  8 active torsions:
REMARK  status: ('A' for Active; 'I' for Inactive)
REMARK    1  A    between atoms: N1_2  and  C2_5 
REMARK    2  A    between atoms: C2_5  and  O1_6 
REMARK    3  A    between atoms: C2_5  and  C3_8 
REMARK    4  A    between atoms: C3_8  and  O2_9 
REMARK    5  A    between atoms: C3_8  and  C5_13 
REMARK    6  A    between atoms: C6_14  and  C7_15 
REMARK    7  A    between atoms: C9_19  and  C10_20 
REMARK       I    between atoms: C10_20  and  N4_22 
REMARK       I    between atoms: N4_22  and  C11_24 
REMARK       I    between atoms: C11_24  and  N5_25 
REMARK       I    between atoms: C11_24  and  N6_29 
REMARK    8  A    between atoms: C12_33  and  O4_34 
ROOT
HETATM    1  C3  UNL     1      14.516  24.178  30.137  1.00  0.00     0.263 C 
HETATM    2  C4  UNL     1      13.191  24.544  29.645  1.00  0.00     0.116 C 
HETATM    3  N2  UNL     1      12.144  24.826  29.275  1.00  0.00    -0.193 NA
ENDROOT
BRANCH   1   4
HETATM    4  C2  UNL     1      14.568  24.264  31.639  1.00  0.00     0.381 C 
BRANCH   4   5
HETATM    5  N1  UNL     1      13.299  24.025  32.269  1.00  0.00    -0.048 N 
HETATM    6  C1  UNL     1      13.574  23.304  33.509  1.00  0.00     0.270 C 
ATOM      7  H12 UNL     1      12.632  23.545  31.664  1.00  0.00     0.279 HD
ATOM      8  H11 UNL     1      12.753  24.875  32.411  1.00  0.00     0.279 HD
ENDBRANCH   4   5
BRANCH   4   9
HETATM    9  O1  UNL     1      15.035  25.543  31.965  1.00  0.00    -0.366 OA
ATOM     10  H1  UNL     1      14.771  26.167  31.298  1.00  0.00     0.212 HD
ENDBRANCH   4   9
ENDBRANCH   1   4
BRANCH   1  11
HETATM   11  O2  UNL     1      15.467  24.997  29.574  1.00  0.00    -0.362 OA
ATOM     12  H2  UNL     1      15.065  25.604  28.965  1.00  0.00     0.213 HD
ENDBRANCH   1  11
BRANCH   1  13
HETATM   13  C5  UNL     1      14.812  22.792  29.765  1.00  0.00    -0.040 C 
HETATM   14  C6  UNL     1      15.038  21.647  29.469  1.00  0.00    -0.026 C 
BRANCH  14  15
HETATM   15  C7  UNL     1      15.306  20.266  29.085  1.00  0.00     0.163 A 
HETATM   16  N3  UNL     1      15.800  19.974  27.876  1.00  0.00    -0.344 N 
HETATM   17  C8  UNL     1      16.067  18.757  27.458  1.00  0.00     0.111 A 
ATOM     18  H3  UNL     1      15.981  20.748  27.235  1.00  0.00     0.167 HD
HETATM   19  C9  UNL     1      15.834  17.652  28.310  1.00  0.00     0.098 A 
HETATM   20  C12 UNL     1      15.331  17.982  29.537  1.00  0.00     0.159 A 
HETATM   21  N7  UNL     1      15.066  19.265  29.931  1.00  0.00    -0.315 N 
ATOM     22  H7  UNL     1      14.690  19.452  30.860  1.00  0.00     0.170 HD
BRANCH  19  23
HETATM   23  C10 UNL     1      16.129  16.318  27.848  1.00  0.00     0.260 C 
HETATM   24  O3  UNL     1      16.186  16.173  26.562  1.00  0.00    -0.267 OA
HETATM   25  N4  UNL     1      16.356  15.179  28.616  1.00  0.00    -0.307 N 
HETATM   26  C11 UNL     1      16.644  13.891  27.963  1.00  0.00     0.483 C 
ATOM     27  H4  UNL     1      16.321  15.237  29.633  1.00  0.00     0.166 HD
HETATM   28  N5  UNL     1      15.518  13.013  28.272  1.00  0.00    -0.033 N 
HETATM   29  N6  UNL     1      17.894  13.346  28.411  1.00  0.00    -0.033 N 
ATOM     30  H53 UNL     1      15.332  12.929  29.272  1.00  0.00     0.278 HD
ATOM     31  H52 UNL     1      14.614  13.407  28.010  1.00  0.00     0.278 HD
ATOM     32  H51 UNL     1      15.717  12.121  27.821  1.00  0.00     0.278 HD
ATOM     33  H63 UNL     1      18.659  14.009  28.283  1.00  0.00     0.278 HD
ATOM     34  H62 UNL     1      17.924  13.266  29.427  1.00  0.00     0.278 HD
ATOM     35  H61 UNL     1      18.093  12.454  27.959  1.00  0.00     0.278 HD
ENDBRANCH  19  23
BRANCH  20  36
HETATM   36  O4  UNL     1      15.065  16.959  30.454  1.00  0.00    -0.345 OA
ATOM     37  H4  UNL     1      14.673  17.184  31.290  1.00  0.00     0.219 HD
ENDBRANCH  20  36
ENDBRANCH  14  15
ENDBRANCH   1  13
TORSDOF 8
ENDMDL
MODEL 2
REMARK VINA RESULT: -6.925184556      2.558      9.413
REMARK  8 active torsions:
REMARK  status: ('A' for Active; 'I' for Inactive)
REMARK    1  A    between atoms: N1_2  and  C2_5 
REMARK    2  A    between atoms: C2_5  and  O1_6 
REMARK    3  A    between atoms: C2_5  and  C3_8 
REMARK    4  A    between atoms: C3_8  and  O2_9 
REMARK    5  A    between atoms: C3_8  and  C5_13 
REMARK    6  A    between atoms: C6_14  and  C7_15 
REMARK    7  A    between atoms: C9_19  and  C10_20 
REMARK       I    between atoms: C10_20  and  N4_22 
REMARK       I    between atoms: N4_22  and  C11_24 
REMARK       I    between atoms: C11_24  and  N5_25 
REMARK       I    between atoms: C11_24  and  N6_29 
REMARK    8  A    between atoms: C12_33  and  O4_34 
ROOT
HETATM    1  C3  UNL     1      16.965  12.593  27.457  1.00  0.00     0.263 C 
HETATM    2  C4  UNL     1      18.356  12.368  27.839  1.00  0.00     0.116 C 
HETATM    3  N2  UNL     1      19.442  12.185  28.154  1.00  0.00    -0.193 NA
ENDROOT
BRANCH   1   4
HETATM    4  C2  UNL     1      16.050  11.668  28.214  1.00  0.00     0.381 C 
BRANCH   4   5
HETATM    5  N1  UNL     1      14.961  12.346  28.863  1.00  0.00    -0.048 N 
HETATM    6  C1  UNL     1      14.254  11.343  29.656  1.00  0.00     0.270 C 
ATOM      7  H12 UNL     1      14.354  12.847  28.214  1.00  0.00     0.279 HD
ATOM      8  H11 UNL     1      15.258  13.154  29.409  1.00  0.00     0.279 HD
ENDBRANCH   4   5
BRANCH   4   9
HETATM    9  O1  UNL     1      16.832  10.995  29.161  1.00  0.00    -0.366 OA
ATOM     10  H1  UNL     1      17.751  11.192  29.025  1.00  0.00     0.212 HD
ENDBRANCH   4   9
ENDBRANCH   1   4
BRANCH   1  11
HETATM   11  O2  UNL     1      16.817  12.414  26.102  1.00  0.00    -0.362 OA
ATOM     12  H2  UNL     1      16.841  13.250  25.651  1.00  0.00     0.213 HD
ENDBRANCH   1  11
BRANCH   1  13
HETATM   13  C5  UNL     1      16.579  13.965  27.793  1.00  0.00    -0.040 C 
HETATM   14  C6  UNL     1      16.251  15.086  28.086  1.00  0.00    -0.026 C 
BRANCH  14  15
HETATM   15  C7  UNL     1      15.878  16.449  28.448  1.00  0.00     0.163 A 
HETATM   16  N3  UNL     1      15.160  16.693  29.551  1.00  0.00    -0.344 N 
HETATM   17  C8  UNL     1      14.787  17.890  29.943  1.00  0.00     0.111 A 
ATOM     18  H3  UNL     1      14.885  15.896  30.127  1.00  0.00     0.167 HD
HETATM   19  C9  UNL     1      15.146  19.026  29.179  1.00  0.00     0.098 A 
HETATM   20  C12 UNL     1      15.878  18.744  28.060  1.00  0.00     0.159 A 
HETATM   21  N7  UNL     1      16.245  17.480  27.688  1.00  0.00    -0.315 N 
ATOM     22  H7  UNL     1      16.792  17.329  26.841  1.00  0.00     0.170 HD
BRANCH  19  23
HETATM   23  C10 UNL     1      14.735  20.339  29.612  1.00  0.00     0.260 C 
HETATM   24  O3  UNL     1      14.051  20.374  30.713  1.00  0.00    -0.267 OA
HETATM   25  N4  UNL     1      14.983  21.559  28.992  1.00  0.00    -0.307 N 
HETATM   26  C11 UNL     1      14.479  22.809  29.586  1.00  0.00     0.483 C 
ATOM     27  H4  UNL     1      15.516  21.588  28.123  1.00  0.00     0.166 HD
HETATM   28  N5  UNL     1      13.490  23.338  28.651  1.00  0.00    -0.033 N 
HETATM   29  N6  UNL     1      15.544  23.739  29.832  1.00  0.00    -0.033 N 
ATOM     30  H53 UNL     1      13.851  23.456  27.704  1.00  0.00     0.278 HD
ATOM     31  H52 UNL     1      12.753  22.672  28.421  1.00  0.00     0.278 HD
ATOM     32  H51 UNL     1      13.141  24.203  29.062  1.00  0.00     0.278 HD
ATOM     33  H63 UNL     1      16.279  23.322  30.404  1.00  0.00     0.278 HD
ATOM     34  H62 UNL     1      16.086  23.918  28.987  1.00  0.00     0.278 HD
ATOM     35  H61 UNL     1      15.195  24.604  30.243  1.00  0.00     0.278 HD
ENDBRANCH  19  23
BRANCH  20  36
HETATM   36  O4  UNL     1      16.283  19.800  27.236  1.00  0.00    -0.345 OA
ATOM     37  H4  UNL     1      16.922  19.630  26.555  1.00  0.00     0.219 HD
ENDBRANCH  20  36
ENDBRANCH  14  15
ENDBRANCH   1  13
TORSDOF 8
ENDMDL
MODEL 3
REMARK VINA RESULT: -6.761814933      1.271      1.756
REMARK  8 active torsions:
REMARK  status: ('A' for Active; 'I' for Inactive)
REMARK    1  A    between atoms: N1_2  and  C2_5 
REMARK    2  A    between atoms: C2_5  and  O1_6 
REMARK    3  A    between atoms: C2_5  and  C3_8 
REMARK    4  A    between atoms: C3_8  and  O2_9 
REMARK    5  A    between atoms: C3_8  and  C5_13 
REMARK    6  A    between atoms: C6_14  and  C7_15 
REMARK    7  A    between atoms: C9_19  and  C10_20 
REMARK       I    between atoms: C10_20  and  N4_22 
REMARK       I    between atoms: N4_22  and  C11_24 
REMARK       I    between atoms: C11_24  and  N5_25 
REMARK       I    between atoms: C11_24  and  N6_29 
REMARK    8  A    between atoms: C12_33  and  O4_34 
ROOT
HETATM    1  C3  UNL     1      14.257  23.471  31.613  1.00  0.00     0.263 C 
HETATM    2  C4  UNL     1      13.279  24.212  30.822  1.00  0.00     0.116 C 
HETATM    3  N2  UNL     1      12.498  24.787  30.212  1.00  0.00    -0.193 NA
ENDROOT
BRANCH   1   4
HETATM    4  C2  UNL     1      13.709  23.157  32.978  1.00  0.00     0.381 C 
BRANCH   4   5
HETATM    5  N1  UNL     1      12.288  23.348  33.082  1.00  0.00    -0.048 N 
HETATM    6  C1  UNL     1      11.931  23.109  34.478  1.00  0.00     0.270 C 
ATOM      7  H12 UNL     1      11.755  22.775  32.426  1.00  0.00     0.279 HD
ATOM      8  H11 UNL     1      11.978  24.257  32.738  1.00  0.00     0.279 HD
ENDBRANCH   4   5
BRANCH   4   9
HETATM    9  O1  UNL     1      14.374  23.983  33.893  1.00  0.00    -0.366 OA
ATOM     10  H1  UNL     1      14.263  24.895  33.649  1.00  0.00     0.212 HD
ENDBRANCH   4   9
ENDBRANCH   1   4
BRANCH   1  11
HETATM   11  O2  UNL     1      15.422  24.195  31.716  1.00  0.00    -0.362 OA
ATOM     12  H2  UNL     1      16.027  23.769  32.311  1.00  0.00     0.213 HD
ENDBRANCH   1  11
BRANCH   1  13
HETATM   13  C5  UNL     1      14.555  22.196  30.955  1.00  0.00    -0.040 C 
HETATM   14  C6  UNL     1      14.820  21.156  30.410  1.00  0.00    -0.026 C 
BRANCH  14  15
HETATM   15  C7  UNL     1      15.139  19.883  29.774  1.00  0.00     0.163 A 
HETATM   16  N3  UNL     1      14.550  18.749  30.174  1.00  0.00    -0.344 N 
HETATM   17  C8  UNL     1      14.784  17.567  29.651  1.00  0.00     0.111 A 
ATOM     18  H3  UNL     1      13.873  18.807  30.936  1.00  0.00     0.167 HD
HETATM   19  C9  UNL     1      15.713  17.436  28.593  1.00  0.00     0.098 A 
HETATM   20  C12 UNL     1      16.298  18.610  28.207  1.00  0.00     0.159 A 
HETATM   21  N7  UNL     1      16.024  19.821  28.780  1.00  0.00    -0.315 N 
ATOM     22  H7  UNL     1      16.491  20.665  28.451  1.00  0.00     0.170 HD
BRANCH  19  23
HETATM   23  C10 UNL     1      15.968  16.136  28.021  1.00  0.00     0.260 C 
HETATM   24  O3  UNL     1      15.898  16.073  26.728  1.00  0.00    -0.267 OA
HETATM   25  N4  UNL     1      16.276  14.955  28.688  1.00  0.00    -0.307 N 
HETATM   26  C11 UNL     1      16.505  13.713  27.930  1.00  0.00     0.483 C 
ATOM     27  H4  UNL     1      16.343  14.949  29.705  1.00  0.00     0.166 HD
HETATM   28  N5  UNL     1      15.420  12.805  28.292  1.00  0.00    -0.033 N 
HETATM   29  N6  UNL     1      17.797  13.156  28.216  1.00  0.00    -0.033 N 
ATOM     30  H53 UNL     1      15.336  12.657  29.298  1.00  0.00     0.278 HD
ATOM     31  H52 UNL     1      14.493  13.204  28.146  1.00  0.00     0.278 HD
ATOM     32  H51 UNL     1      15.578  11.946  27.768  1.00  0.00     0.278 HD
ATOM     33  H63 UNL     1      18.541  13.835  28.055  1.00  0.00     0.278 HD
ATOM     34  H62 UNL     1      17.928  13.013  29.218  1.00  0.00     0.278 HD
ATOM     35  H61 UNL     1      17.955  12.296  27.692  1.00  0.00     0.278 HD
ENDBRANCH  19  23
BRANCH  20  36
HETATM   36  O4  UNL     1      17.232  18.587  27.165  1.00  0.00    -0.345 OA
ATOM     37  H4  UNL     1      17.635  19.403  26.894  1.00  0.00     0.219 HD
ENDBRANCH  20  36
ENDBRANCH  14  15
ENDBRANCH   1  13
TORSDOF 8
ENDMDL
MODEL 4
REMARK VINA RESULT: -6.729098770      1.613      2.115
REMARK  8 active torsions:
REMARK  status: ('A' for Active; 'I' for Inactive)
REMARK    1  A    between atoms: N1_2  and  C2_5 
REMARK    2  A    between atoms: C2_5  and  O1_6 
REMARK    3  A    between atoms: C2_5  and  C3_8 
REMARK    4  A    between atoms: C3_8  and  O2_9 
REMARK    5  A    between atoms: C3_8  and  C5_13 
REMARK    6  A    between atoms: C6_14  and  C7_15 
REMARK    7  A    between atoms: C9_19  and  C10_20 
REMARK       I    between atoms: C10_20  and  N4_22 
REMARK       I    between atoms: N4_22  and  C11_24 
REMARK       I    between atoms: C11_24  and  N5_25 
REMARK       I    between atoms: C11_24  and  N6_29 
REMARK    8  A    between atoms: C12_33  and  O4_34 
ROOT
HETATM    1  C3  UNL     1      14.171  23.505  31.684  1.00  0.00     0.263 C 
HETATM    2  C4  UNL     1      14.620  24.602  30.832  1.00  0.00     0.116 C 
HETATM    3  N2  UNL     1      14.957  25.464  30.156  1.00  0.00    -0.193 NA
ENDROOT
BRANCH   1   4
HETATM    4  C2  UNL     1      12.680  23.558  31.877  1.00  0.00     0.381 C 
BRANCH   4   5
HETATM    5  N1  UNL     1      12.184  24.882  32.140  1.00  0.00    -0.048 N 
HETATM    6  C1  UNL     1      11.468  24.818  33.411  1.00  0.00     0.270 C 
ATOM      7  H12 UNL     1      11.620  25.259  31.379  1.00  0.00     0.279 HD
ATOM      8  H11 UNL     1      12.913  25.595  32.125  1.00  0.00     0.279 HD
ENDBRANCH   4   5
BRANCH   4   9
HETATM    9  O1  UNL     1      12.369  22.706  32.944  1.00  0.00    -0.366 OA
ATOM     10  H1  UNL     1      13.139  22.563  33.482  1.00  0.00     0.212 HD
ENDBRANCH   4   9
ENDBRANCH   1   4
BRANCH   1  11
HETATM   11  O2  UNL     1      14.816  23.560  32.897  1.00  0.00    -0.362 OA
ATOM     12  H2  UNL     1      14.294  24.036  33.531  1.00  0.00     0.213 HD
ENDBRANCH   1  11
BRANCH   1  13
HETATM   13  C5  UNL     1      14.487  22.226  31.043  1.00  0.00    -0.040 C 
HETATM   14  C6  UNL     1      14.734  21.180  30.500  1.00  0.00    -0.026 C 
BRANCH  14  15
HETATM   15  C7  UNL     1      15.059  19.921  29.839  1.00  0.00     0.163 A 
HETATM   16  N3  UNL     1      14.480  18.776  30.221  1.00  0.00    -0.344 N 
HETATM   17  C8  UNL     1      14.720  17.606  29.675  1.00  0.00     0.111 A 
ATOM     18  H3  UNL     1      13.808  18.815  30.988  1.00  0.00     0.167 HD
HETATM   19  C9  UNL     1      15.644  17.501  28.608  1.00  0.00     0.098 A 
HETATM   20  C12 UNL     1      16.217  18.687  28.241  1.00  0.00     0.159 A 
HETATM   21  N7  UNL     1      15.938  19.885  28.838  1.00  0.00    -0.315 N 
ATOM     22  H7  UNL     1      16.397  20.739  28.522  1.00  0.00     0.170 HD
BRANCH  19  23
HETATM   23  C10 UNL     1      15.905  16.215  28.011  1.00  0.00     0.260 C 
HETATM   24  O3  UNL     1      15.880  16.187  26.715  1.00  0.00    -0.267 OA
HETATM   25  N4  UNL     1      16.175  15.012  28.656  1.00  0.00    -0.307 N 
HETATM   26  C11 UNL     1      16.418  13.789  27.873  1.00  0.00     0.483 C 
ATOM     27  H4  UNL     1      16.205  14.978  29.675  1.00  0.00     0.166 HD
HETATM   28  N5  UNL     1      15.310  12.885  28.172  1.00  0.00    -0.033 N 
HETATM   29  N6  UNL     1      17.692  13.209  28.190  1.00  0.00    -0.033 N 
ATOM     30  H53 UNL     1      15.188  12.710  29.169  1.00  0.00     0.278 HD
ATOM     31  H52 UNL     1      14.393  13.299  28.003  1.00  0.00     0.278 HD
ATOM     32  H51 UNL     1      15.478  12.038  27.630  1.00  0.00     0.278 HD
ATOM     33  H63 UNL     1      18.449  13.883  28.075  1.00  0.00     0.278 HD
ATOM     34  H62 UNL     1      17.786  13.037  29.191  1.00  0.00     0.278 HD
ATOM     35  H61 UNL     1      17.859  12.361  27.648  1.00  0.00     0.278 HD
ENDBRANCH  19  23
BRANCH  20  36
HETATM   36  O4  UNL     1      17.146  18.690  27.194  1.00  0.00    -0.345 OA
ATOM     37  H4  UNL     1      17.562  19.510  26.954  1.00  0.00     0.219 HD
ENDBRANCH  20  36
ENDBRANCH  14  15
ENDBRANCH   1  13
TORSDOF 8
ENDMDL
MODEL 5
REMARK VINA RESULT: -6.695105812      2.766      9.781
REMARK  8 active torsions:
REMARK  status: ('A' for Active; 'I' for Inactive)
REMARK    1  A    between atoms: N1_2  and  C2_5 
REMARK    2  A    between atoms: C2_5  and  O1_6 
REMARK    3  A    between atoms: C2_5  and  C3_8 
REMARK    4  A    between atoms: C3_8  and  O2_9 
REMARK    5  A    between atoms: C3_8  and  C5_13 
REMARK    6  A    between atoms: C6_14  and  C7_15 
REMARK    7  A    between atoms: C9_19  and  C10_20 
REMARK       I    between atoms: C10_20  and  N4_22 
REMARK       I    between atoms: N4_22  and  C11_24 
REMARK       I    between atoms: C11_24  and  N5_25 
REMARK       I    between atoms: C11_24  and  N6_29 
REMARK    8  A    between atoms: C12_33  and  O4_34 
ROOT
HETATM    1  C3  UNL     1      16.286  12.006  27.419  1.00  0.00     0.263 C 
HETATM    2  C4  UNL     1      15.941  11.146  28.547  1.00  0.00     0.116 C 
HETATM    3  N2  UNL     1      15.655  10.469  29.426  1.00  0.00    -0.193 NA
ENDROOT
BRANCH   1   4
HETATM    4  C2  UNL     1      15.390  11.724  26.243  1.00  0.00     0.381 C 
BRANCH   4   5
HETATM    5  N1  UNL     1      14.469  10.644  26.472  1.00  0.00    -0.048 N 
HETATM    6  C1  UNL     1      13.144  11.136  26.100  1.00  0.00     0.270 C 
ATOM      7  H12 UNL     1      14.509  10.275  27.422  1.00  0.00     0.279 HD
ATOM      8  H11 UNL     1      14.728   9.784  25.989  1.00  0.00     0.279 HD
ENDBRANCH   4   5
BRANCH   4   9
HETATM    9  O1  UNL     1      16.218  11.427  25.153  1.00  0.00    -0.366 OA
ATOM     10  H1  UNL     1      15.695  11.142  24.413  1.00  0.00     0.212 HD
ENDBRANCH   4   9
ENDBRANCH   1   4
BRANCH   1  11
HETATM   11  O2  UNL     1      17.605  11.823  27.075  1.00  0.00    -0.362 OA
ATOM     12  H2  UNL     1      18.166  11.948  27.831  1.00  0.00     0.213 HD
ENDBRANCH   1  11
BRANCH   1  13
HETATM   13  C5  UNL     1      16.090  13.409  27.794  1.00  0.00    -0.040 C 
HETATM   14  C6  UNL     1      15.950  14.564  28.103  1.00  0.00    -0.026 C 
BRANCH  14  15
HETATM   15  C7  UNL     1      15.770  15.969  28.452  1.00  0.00     0.163 A 
HETATM   16  N3  UNL     1      14.989  16.326  29.478  1.00  0.00    -0.344 N 
HETATM   17  C8  UNL     1      14.779  17.567  29.853  1.00  0.00     0.111 A 
ATOM     18  H3  UNL     1      14.526  15.584  30.005  1.00  0.00     0.167 HD
HETATM   19  C9  UNL     1      15.399  18.630  29.155  1.00  0.00     0.098 A 
HETATM   20  C12 UNL     1      16.190  18.233  28.113  1.00  0.00     0.159 A 
HETATM   21  N7  UNL     1      16.381  16.927  27.756  1.00  0.00    -0.315 N 
ATOM     22  H7  UNL     1      16.983  16.689  26.968  1.00  0.00     0.170 HD
BRANCH  19  23
HETATM   23  C10 UNL     1      15.167  19.991  29.569  1.00  0.00     0.260 C 
HETATM   24  O3  UNL     1      14.687  20.136  30.764  1.00  0.00    -0.267 OA
HETATM   25  N4  UNL     1      15.394  21.156  28.842  1.00  0.00    -0.307 N 
HETATM   26  C11 UNL     1      15.093  22.470  29.435  1.00  0.00     0.483 C 
ATOM     27  H4  UNL     1      15.770  21.099  27.896  1.00  0.00     0.166 HD
HETATM   28  N5  UNL     1      14.000  23.034  28.647  1.00  0.00    -0.033 N 
HETATM   29  N6  UNL     1      16.250  23.319  29.440  1.00  0.00    -0.033 N 
ATOM     30  H53 UNL     1      14.200  23.076  27.648  1.00  0.00     0.278 HD
ATOM     31  H52 UNL     1      13.187  22.421  28.586  1.00  0.00     0.278 HD
ATOM     32  H51 UNL     1      13.791  23.944  29.057  1.00  0.00     0.278 HD
ATOM     33  H63 UNL     1      17.040  22.871  29.906  1.00  0.00     0.278 HD
ATOM     34  H62 UNL     1      16.650  23.412  28.507  1.00  0.00     0.278 HD
ATOM     35  H61 UNL     1      16.041  24.229  29.850  1.00  0.00     0.278 HD
ENDBRANCH  19  23
BRANCH  20  36
HETATM   36  O4  UNL     1      16.849  19.210  27.357  1.00  0.00    -0.345 OA
ATOM     37  H4  UNL     1      16.336  19.775  26.793  1.00  0.00     0.219 HD
ENDBRANCH  20  36
ENDBRANCH  14  15
ENDBRANCH   1  13
TORSDOF 8
ENDMDL
