MODEL 1
REMARK VINA RESULT: -6.945450868      0.000      0.000
REMARK  9 active torsions:
REMARK  status: ('A' for Active; 'I' for Inactive)
REMARK    1  A    between atoms: N1_2  and  C2_4 
REMARK    2  A    between atoms: C2_4  and  C3_5 
REMARK    3  A    between atoms: C2_4  and  C12_31 
REMARK    4  A    between atoms: C4_8  and  N3_9 
REMARK    5  A    between atoms: C7_14  and  N5_15 
REMARK    6  A    between atoms: N5_15  and  C8_17 
REMARK    7  A    between atoms: C11_23  and  N8_24 
REMARK    8  A    between atoms: C12_31  and  O1_32 
REMARK    9  A    between atoms: C12_31  and  O2_34 
ROOT
HETATM    1  C3  UNL     1      14.925  15.097  28.274  1.00  0.00     0.140 A 
HETATM    2  N2  UNL     1      13.740  15.107  27.641  1.00  0.00    -0.177 N 
ATOM      3  H2  UNL     1      13.240  14.230  27.498  1.00  0.00     0.185 HD
HETATM    4  C4  UNL     1      13.200  16.266  27.188  1.00  0.00     0.695 A 
HETATM    5  N4  UNL     1      13.903  17.376  27.405  1.00  0.00    -0.022 N 
ATOM      6  H4  UNL     1      13.507  18.254  27.069  1.00  0.00     0.203 HD
HETATM    7  C7  UNL     1      15.102  17.435  28.036  1.00  0.00     0.699 A 
HETATM    8  N10 UNL     1      15.596  16.266  28.466  1.00  0.00    -0.177 N 
ATOM      9  H10 UNL     1      16.496  16.252  28.948  1.00  0.00     0.185 HD
ENDROOT
BRANCH   7  10
HETATM   10  N5  UNL     1      15.659  18.574  28.168  1.00  0.00    -0.174 N 
ATOM     11  H5  UNL     1      16.410  18.755  27.502  1.00  0.00     0.186 HD
BRANCH  10  12
HETATM   12  C8  UNL     1      15.424  19.604  29.057  1.00  0.00     0.138 A 
HETATM   13  C9  UNL     1      14.684  19.566  30.213  1.00  0.00     0.138 A 
HETATM   14  N6  UNL     1      14.538  20.656  30.997  1.00  0.00    -0.348 N 
HETATM   15  C10 UNL     1      15.109  21.840  30.686  1.00  0.00     0.160 A 
ATOM     16  H6  UNL     1      13.980  20.583  31.848  1.00  0.00     0.166 HD
HETATM   17  N7  UNL     1      14.931  22.977  31.528  1.00  0.00    -0.079 NA
HETATM   18  C11 UNL     1      15.854  21.893  29.532  1.00  0.00     0.142 A 
HETATM   19  N9  UNL     1      15.997  20.809  28.755  1.00  0.00    -0.325 N 
ATOM     20  H9  UNL     1      16.555  20.886  27.904  1.00  0.00     0.169 HD
BRANCH  18  21
HETATM   21  N8  UNL     1      16.423  23.026  29.250  1.00  0.00    -0.383 N 
ATOM     22  H82 UNL     1      15.885  23.850  28.981  1.00  0.00     0.157 HD
ATOM     23  H81 UNL     1      17.441  23.055  29.290  1.00  0.00     0.157 HD
ENDBRANCH  18  21
ENDBRANCH  10  12
ENDBRANCH   7  10
BRANCH   4  24
HETATM   24  N3  UNL     1      11.950  16.270  26.516  1.00  0.00    -0.226 N 
HETATM   25  C5  UNL     1      11.776  15.630  25.235  1.00  0.00     0.168 C 
HETATM   26  C6  UNL     1      10.838  16.922  27.157  1.00  0.00     0.168 C 
ENDBRANCH   4  24
BRANCH   1  27
HETATM   27  C2  UNL     1      15.555  13.862  28.796  1.00  0.00     0.201 C 
BRANCH  27  28
HETATM   28  N1  UNL     1      14.668  12.752  28.884  1.00  0.00    -0.411 N 
HETATM   29  C1  UNL     1      15.186  11.491  28.466  1.00  0.00     0.141 C 
ATOM     30  H1  UNL     1      13.713  12.854  29.228  1.00  0.00     0.153 HD
ENDBRANCH  27  28
BRANCH  27  31
HETATM   31  C12 UNL     1      16.847  13.527  28.083  1.00  0.00     0.283 C 
BRANCH  31  32
HETATM   32  O1  UNL     1      17.961  13.885  28.843  1.00  0.00    -0.369 OA
ATOM     33  H1  UNL     1      18.696  13.304  28.683  1.00  0.00     0.212 HD
ENDBRANCH  31  32
BRANCH  31  34
HETATM   34  O2  UNL     1      16.958  14.238  26.894  1.00  0.00    -0.369 OA
ATOM     35  H2  UNL     1      17.533  13.791  26.283  1.00  0.00     0.212 HD
ENDBRANCH  31  34
ENDBRANCH  27  31
ENDBRANCH   1  27
TORSDOF 9
ENDMDL
MODEL 2
REMARK VINA RESULT: -6.701423070      1.138      1.310
REMARK  9 active torsions:
REMARK  status: ('A' for Active; 'I' for Inactive)
REMARK    1  A    between atoms: N1_2  and  C2_4 
REMARK    2  A    between atoms: C2_4  and  C3_5 
REMARK    3  A    between atoms: C2_4  and  C12_31 
REMARK    4  A    between atoms: C4_8  and  N3_9 
REMARK    5  A    between atoms: C7_14  and  N5_15 
REMARK    6  A    between atoms: N5_15  and  C8_17 
REMARK    7  A    between atoms: C11_23  and  N8_24 
REMARK    8  A    between atoms: C12_31  and  O1_32 
REMARK    9  A    between atoms: C12_31  and  O2_34 
ROOT
HETATM    1  C3  UNL     1      15.164  14.139  27.766  1.00  0.00     0.140 A 
HETATM    2  N2  UNL     1      13.997  14.077  27.104  1.00  0.00    -0.177 N 
ATOM      3  H2  UNL     1      13.557  13.171  26.946  1.00  0.00     0.185 HD
HETATM    4  C4  UNL     1      13.395  15.202  26.644  1.00  0.00     0.695 A 
HETATM    5  N4  UNL     1      14.020  16.354  26.883  1.00  0.00    -0.022 N 
ATOM      6  H4  UNL     1      13.576  17.206  26.542  1.00  0.00     0.203 HD
HETATM    7  C7  UNL     1      15.198  16.485  27.543  1.00  0.00     0.699 A 
HETATM    8  N10 UNL     1      15.755  15.348  27.979  1.00  0.00    -0.177 N 
ATOM      9  H10 UNL     1      16.642  15.388  28.482  1.00  0.00     0.185 HD
ENDROOT
BRANCH   7  10
HETATM   10  N5  UNL     1      15.678  17.656  27.693  1.00  0.00    -0.174 N 
ATOM     11  H5  UNL     1      16.414  17.898  27.030  1.00  0.00     0.186 HD
BRANCH  10  12
HETATM   12  C8  UNL     1      15.374  18.654  28.598  1.00  0.00     0.138 A 
HETATM   13  C9  UNL     1      14.789  18.521  29.833  1.00  0.00     0.138 A 
HETATM   14  N6  UNL     1      14.551  19.590  30.623  1.00  0.00    -0.348 N 
HETATM   15  C10 UNL     1      14.874  20.845  30.242  1.00  0.00     0.160 A 
ATOM     16  H6  UNL     1      14.115  19.446  31.534  1.00  0.00     0.166 HD
HETATM   17  N7  UNL     1      14.604  21.957  31.093  1.00  0.00    -0.079 NA
HETATM   18  C11 UNL     1      15.462  20.994  29.009  1.00  0.00     0.142 A 
HETATM   19  N9  UNL     1      15.697  19.930  28.225  1.00  0.00    -0.325 N 
ATOM     20  H9  UNL     1      16.133  20.079  27.315  1.00  0.00     0.169 HD
BRANCH  18  21
HETATM   21  N8  UNL     1      15.795  22.199  28.656  1.00  0.00    -0.383 N 
ATOM     22  H82 UNL     1      16.540  22.715  29.125  1.00  0.00     0.157 HD
ATOM     23  H81 UNL     1      15.265  22.621  27.895  1.00  0.00     0.157 HD
ENDBRANCH  18  21
ENDBRANCH  10  12
ENDBRANCH   7  10
BRANCH   4  24
HETATM   24  N3  UNL     1      12.163  15.130  25.942  1.00  0.00    -0.226 N 
HETATM   25  C5  UNL     1      11.344  16.297  25.726  1.00  0.00     0.168 C 
HETATM   26  C6  UNL     1      11.750  13.850  25.428  1.00  0.00     0.168 C 
ENDBRANCH   4  24
BRANCH   1  27
HETATM   27  C2  UNL     1      15.860  12.944  28.297  1.00  0.00     0.201 C 
BRANCH  27  28
HETATM   28  N1  UNL     1      15.218  11.713  27.981  1.00  0.00    -0.411 N 
HETATM   29  C1  UNL     1      15.805  10.533  28.527  1.00  0.00     0.141 C 
ATOM     30  H1  UNL     1      14.384  11.676  27.396  1.00  0.00     0.153 HD
ENDBRANCH  27  28
BRANCH  27  31
HETATM   31  C12 UNL     1      17.337  12.939  27.966  1.00  0.00     0.283 C 
BRANCH  31  32
HETATM   32  O1  UNL     1      18.041  13.857  28.746  1.00  0.00    -0.369 OA
ATOM     33  H1  UNL     1      18.352  13.464  29.553  1.00  0.00     0.212 HD
ENDBRANCH  31  32
BRANCH  31  34
HETATM   34  O2  UNL     1      17.552  13.323  26.647  1.00  0.00    -0.369 OA
ATOM     35  H2  UNL     1      16.765  13.206  26.127  1.00  0.00     0.212 HD
ENDBRANCH  31  34
ENDBRANCH  27  31
ENDBRANCH   1  27
TORSDOF 9
ENDMDL
MODEL 3
REMARK VINA RESULT: -6.676867067      1.307      2.052
REMARK  9 active torsions:
REMARK  status: ('A' for Active; 'I' for Inactive)
REMARK    1  A    between atoms: N1_2  and  C2_4 
REMARK    2  A    between atoms: C2_4  and  C3_5 
REMARK    3  A    between atoms: C2_4  and  C12_31 
REMARK    4  A    between atoms: C4_8  and  N3_9 
REMARK    5  A    between atoms: C7_14  and  N5_15 
REMARK    6  A    between atoms: N5_15  and  C8_17 
REMARK    7  A    between atoms: C11_23  and  N8_24 
REMARK    8  A    between atoms: C12_31  and  O1_32 
REMARK    9  A    between atoms: C12_31  and  O2_34 
ROOT
HETATM    1  C3  UNL     1      15.175  13.705  28.141  1.00  0.00     0.140 A 
HETATM    2  N2  UNL     1      14.166  13.810  27.261  1.00  0.00    -0.177 N 
ATOM      3  H2  UNL     1      13.991  13.048  26.605  1.00  0.00     0.185 HD
HETATM    4  C4  UNL     1      13.376  14.912  27.232  1.00  0.00     0.695 A 
HETATM    5  N4  UNL     1      13.657  15.870  28.114  1.00  0.00    -0.022 N 
ATOM      6  H4  UNL     1      13.070  16.704  28.102  1.00  0.00     0.203 HD
HETATM    7  C7  UNL     1      14.660  15.827  29.026  1.00  0.00     0.699 A 
HETATM    8  N10 UNL     1      15.413  14.719  29.018  1.00  0.00    -0.177 N 
ATOM      9  H10 UNL     1      16.182  14.634  29.683  1.00  0.00     0.185 HD
ENDROOT
BRANCH   7  10
HETATM   10  N5  UNL     1      14.809  16.824  29.805  1.00  0.00    -0.174 N 
ATOM     11  H5  UNL     1      14.662  16.613  30.792  1.00  0.00     0.186 HD
BRANCH  10  12
HETATM   12  C8  UNL     1      15.135  18.141  29.546  1.00  0.00     0.138 A 
HETATM   13  C9  UNL     1      15.908  18.631  28.523  1.00  0.00     0.138 A 
HETATM   14  N6  UNL     1      16.146  19.953  28.384  1.00  0.00    -0.348 N 
HETATM   15  C10 UNL     1      15.638  20.863  29.244  1.00  0.00     0.160 A 
ATOM     16  H6  UNL     1      16.724  20.274  27.608  1.00  0.00     0.166 HD
HETATM   17  N7  UNL     1      15.911  22.253  29.078  1.00  0.00    -0.079 NA
HETATM   18  C11 UNL     1      14.861  20.388  30.273  1.00  0.00     0.142 A 
HETATM   19  N9  UNL     1      14.627  19.073  30.409  1.00  0.00    -0.325 N 
ATOM     20  H9  UNL     1      14.047  18.756  31.186  1.00  0.00     0.169 HD
BRANCH  18  21
HETATM   21  N8  UNL     1      14.353  21.267  31.083  1.00  0.00    -0.383 N 
ATOM     22  H82 UNL     1      14.869  21.626  31.886  1.00  0.00     0.157 HD
ATOM     23  H81 UNL     1      13.400  21.576  30.892  1.00  0.00     0.157 HD
ENDBRANCH  18  21
ENDBRANCH  10  12
ENDBRANCH   7  10
BRANCH   4  24
HETATM   24  N3  UNL     1      12.313  15.019  26.297  1.00  0.00    -0.226 N 
HETATM   25  C5  UNL     1      11.635  16.269  26.058  1.00  0.00     0.168 C 
HETATM   26  C6  UNL     1      11.930  13.837  25.569  1.00  0.00     0.168 C 
ENDBRANCH   4  24
BRANCH   1  27
HETATM   27  C2  UNL     1      16.062  12.521  28.220  1.00  0.00     0.201 C 
BRANCH  27  28
HETATM   28  N1  UNL     1      15.550  11.369  27.560  1.00  0.00    -0.411 N 
HETATM   29  C1  UNL     1      16.400  10.223  27.532  1.00  0.00     0.141 C 
ATOM     30  H1  UNL     1      14.625  11.362  27.130  1.00  0.00     0.153 HD
ENDBRANCH  27  28
BRANCH  27  31
HETATM   31  C12 UNL     1      17.489  12.838  27.827  1.00  0.00     0.283 C 
BRANCH  31  32
HETATM   32  O1  UNL     1      18.093  13.703  28.741  1.00  0.00    -0.369 OA
ATOM     33  H1  UNL     1      17.461  14.061  29.354  1.00  0.00     0.212 HD
ENDBRANCH  31  32
BRANCH  31  34
HETATM   34  O2  UNL     1      17.532  13.494  26.602  1.00  0.00    -0.369 OA
ATOM     35  H2  UNL     1      17.932  12.946  25.938  1.00  0.00     0.212 HD
ENDBRANCH  31  34
ENDBRANCH  27  31
ENDBRANCH   1  27
TORSDOF 9
ENDMDL
MODEL 4
REMARK VINA RESULT: -6.601130769      1.480      1.767
REMARK  9 active torsions:
REMARK  status: ('A' for Active; 'I' for Inactive)
REMARK    1  A    between atoms: N1_2  and  C2_4 
REMARK    2  A    between atoms: C2_4  and  C3_5 
REMARK    3  A    between atoms: C2_4  and  C12_31 
REMARK    4  A    between atoms: C4_8  and  N3_9 
REMARK    5  A    between atoms: C7_14  and  N5_15 
REMARK    6  A    between atoms: N5_15  and  C8_17 
REMARK    7  A    between atoms: C11_23  and  N8_24 
REMARK    8  A    between atoms: C12_31  and  O1_32 
REMARK    9  A    between atoms: C12_31  and  O2_34 
ROOT
HETATM    1  C3  UNL     1      14.644  15.909  28.907  1.00  0.00     0.140 A 
HETATM    2  N2  UNL     1      13.380  16.221  28.577  1.00  0.00    -0.177 N 
ATOM      3  H2  UNL     1      12.763  15.497  28.209  1.00  0.00     0.185 HD
HETATM    4  C4  UNL     1      12.911  17.486  28.726  1.00  0.00     0.695 A 
HETATM    5  N4  UNL     1      13.766  18.385  29.211  1.00  0.00    -0.022 N 
ATOM      6  H4  UNL     1      13.425  19.339  29.328  1.00  0.00     0.203 HD
HETATM    7  C7  UNL     1      15.052  18.136  29.561  1.00  0.00     0.699 A 
HETATM    8  N10 UNL     1      15.470  16.874  29.397  1.00  0.00    -0.177 N 
ATOM      9  H10 UNL     1      16.430  16.630  29.645  1.00  0.00     0.185 HD
ENDROOT
BRANCH   7  10
HETATM   10  N5  UNL     1      15.753  19.101  30.010  1.00  0.00    -0.174 N 
ATOM     11  H5  UNL     1      16.701  18.842  30.281  1.00  0.00     0.186 HD
BRANCH  10  12
HETATM   12  C8  UNL     1      15.452  20.437  30.191  1.00  0.00     0.138 A 
HETATM   13  C9  UNL     1      14.474  20.978  30.988  1.00  0.00     0.138 A 
HETATM   14  N6  UNL     1      14.290  22.313  31.076  1.00  0.00    -0.348 N 
HETATM   15  C10 UNL     1      15.056  23.186  30.386  1.00  0.00     0.160 A 
ATOM     16  H6  UNL     1      13.552  22.673  31.681  1.00  0.00     0.166 HD
HETATM   17  N7  UNL     1      14.834  24.591  30.491  1.00  0.00    -0.079 NA
HETATM   18  C11 UNL     1      16.040  22.659  29.584  1.00  0.00     0.142 A 
HETATM   19  N9  UNL     1      16.220  21.332  29.498  1.00  0.00    -0.325 N 
ATOM     20  H9  UNL     1      16.959  20.976  28.892  1.00  0.00     0.169 HD
BRANCH  18  21
HETATM   21  N8  UNL     1      16.791  23.502  28.941  1.00  0.00    -0.383 N 
ATOM     22  H82 UNL     1      17.808  23.427  28.936  1.00  0.00     0.157 HD
ATOM     23  H81 UNL     1      16.319  24.261  28.451  1.00  0.00     0.157 HD
ENDBRANCH  18  21
ENDBRANCH  10  12
ENDBRANCH   7  10
BRANCH   4  24
HETATM   24  N3  UNL     1      11.576  17.810  28.373  1.00  0.00    -0.226 N 
HETATM   25  C5  UNL     1      10.881  18.923  28.973  1.00  0.00     0.168 C 
HETATM   26  C6  UNL     1      10.923  17.003  27.375  1.00  0.00     0.168 C 
ENDBRANCH   4  24
BRANCH   1  27
HETATM   27  C2  UNL     1      15.203  14.544  28.771  1.00  0.00     0.201 C 
BRANCH  27  28
HETATM   28  N1  UNL     1      14.225  13.538  28.533  1.00  0.00    -0.411 N 
HETATM   29  C1  UNL     1      14.430  12.712  27.388  1.00  0.00     0.141 C 
ATOM     30  H1  UNL     1      13.420  13.414  29.147  1.00  0.00     0.153 HD
ENDBRANCH  27  28
BRANCH  27  31
HETATM   31  C12 UNL     1      16.358  14.486  27.794  1.00  0.00     0.283 C 
BRANCH  31  32
HETATM   32  O1  UNL     1      17.588  14.559  28.447  1.00  0.00    -0.369 OA
ATOM     33  H1  UNL     1      17.499  14.925  29.320  1.00  0.00     0.212 HD
ENDBRANCH  31  32
BRANCH  31  34
HETATM   34  O2  UNL     1      16.327  15.570  26.924  1.00  0.00    -0.369 OA
ATOM     35  H2  UNL     1      17.156  15.663  26.469  1.00  0.00     0.212 HD
ENDBRANCH  31  34
ENDBRANCH  27  31
ENDBRANCH   1  27
TORSDOF 9
ENDMDL
MODEL 5
REMARK VINA RESULT: -6.435312714      0.962      1.547
REMARK  9 active torsions:
REMARK  status: ('A' for Active; 'I' for Inactive)
REMARK    1  A    between atoms: N1_2  and  C2_4 
REMARK    2  A    between atoms: C2_4  and  C3_5 
REMARK    3  A    between atoms: C2_4  and  C12_31 
REMARK    4  A    between atoms: C4_8  and  N3_9 
REMARK    5  A    between atoms: C7_14  and  N5_15 
REMARK    6  A    between atoms: N5_15  and  C8_17 
REMARK    7  A    between atoms: C11_23  and  N8_24 
REMARK    8  A    between atoms: C12_31  and  O1_32 
REMARK    9  A    between atoms: C12_31  and  O2_34 
ROOT
HETATM    1  C3  UNL     1      14.619  14.569  28.362  1.00  0.00     0.140 A 
HETATM    2  N2  UNL     1      13.597  14.751  27.509  1.00  0.00    -0.177 N 
ATOM      3  H2  UNL     1      13.371  14.022  26.834  1.00  0.00     0.185 HD
HETATM    4  C4  UNL     1      12.863  15.892  27.534  1.00  0.00     0.695 A 
HETATM    5  N4  UNL     1      13.209  16.805  28.439  1.00  0.00    -0.022 N 
ATOM      6  H4  UNL     1      12.664  17.666  28.467  1.00  0.00     0.203 HD
HETATM    7  C7  UNL     1      14.228  16.684  29.326  1.00  0.00     0.699 A 
HETATM    8  N10 UNL     1      14.925  15.541  29.265  1.00  0.00    -0.177 N 
ATOM      9  H10 UNL     1      15.703  15.396  29.910  1.00  0.00     0.185 HD
ENDROOT
BRANCH   7  10
HETATM   10  N5  UNL     1      14.443  17.646  30.133  1.00  0.00    -0.174 N 
ATOM     11  H5  UNL     1      14.228  17.434  31.107  1.00  0.00     0.186 HD
BRANCH  10  12
HETATM   12  C8  UNL     1      14.917  18.925  29.919  1.00  0.00     0.138 A 
HETATM   13  C9  UNL     1      15.779  19.349  28.938  1.00  0.00     0.138 A 
HETATM   14  N6  UNL     1      16.161  20.641  28.840  1.00  0.00    -0.348 N 
HETATM   15  C10 UNL     1      15.717  21.583  29.700  1.00  0.00     0.160 A 
ATOM     16  H6  UNL     1      16.802  20.913  28.095  1.00  0.00     0.166 HD
HETATM   17  N7  UNL     1      16.143  22.939  29.579  1.00  0.00    -0.079 NA
HETATM   18  C11 UNL     1      14.852  21.174  30.687  1.00  0.00     0.142 A 
HETATM   19  N9  UNL     1      14.475  19.889  30.782  1.00  0.00    -0.325 N 
ATOM     20  H9  UNL     1      13.834  19.621  31.529  1.00  0.00     0.169 HD
BRANCH  18  21
HETATM   21  N8  UNL     1      14.407  22.087  31.497  1.00  0.00    -0.383 N 
ATOM     22  H82 UNL     1      13.809  22.848  31.178  1.00  0.00     0.157 HD
ATOM     23  H81 UNL     1      14.699  22.021  32.472  1.00  0.00     0.157 HD
ENDBRANCH  18  21
ENDBRANCH  10  12
ENDBRANCH   7  10
BRANCH   4  24
HETATM   24  N3  UNL     1      11.787  16.081  26.628  1.00  0.00    -0.226 N 
HETATM   25  C5  UNL     1      11.810  15.526  25.297  1.00  0.00     0.168 C 
HETATM   26  C6  UNL     1      10.646  16.835  27.078  1.00  0.00     0.168 C 
ENDBRANCH   4  24
BRANCH   1  27
HETATM   27  C2  UNL     1      15.447  13.341  28.384  1.00  0.00     0.201 C 
BRANCH  27  28
HETATM   28  N1  UNL     1      14.841  12.222  27.745  1.00  0.00    -0.411 N 
HETATM   29  C1  UNL     1      15.669  11.474  26.856  1.00  0.00     0.141 C 
ATOM     30  H1  UNL     1      13.868  11.969  27.915  1.00  0.00     0.153 HD
ENDBRANCH  27  28
BRANCH  27  31
HETATM   31  C12 UNL     1      16.864  13.590  27.914  1.00  0.00     0.283 C 
BRANCH  31  32
HETATM   32  O1  UNL     1      17.721  13.856  28.982  1.00  0.00    -0.369 OA
ATOM     33  H1  UNL     1      17.480  14.658  29.432  1.00  0.00     0.212 HD
ENDBRANCH  31  32
BRANCH  31  34
HETATM   34  O2  UNL     1      16.926  14.711  27.094  1.00  0.00    -0.369 OA
ATOM     35  H2  UNL     1      17.498  14.557  26.351  1.00  0.00     0.212 HD
ENDBRANCH  31  34
ENDBRANCH  27  31
ENDBRANCH   1  27
TORSDOF 9
ENDMDL
