MODEL 1
REMARK VINA RESULT: -6.418452156      0.000      0.000
REMARK  8 active torsions:
REMARK  status: ('A' for Active; 'I' for Inactive)
REMARK    1  A    between atoms: N1_2  and  O1_3 
REMARK       I    between atoms: N1_2  and  C4_13 
REMARK    2  A    between atoms: O1_3  and  C2_4 
REMARK    3  A    between atoms: C2_4  and  C3_6 
REMARK    4  A    between atoms: C3_6  and  N2_7 
REMARK    5  A    between atoms: C3_6  and  O3_11 
REMARK       I    between atoms: C4_13  and  N4_17 
REMARK       I    between atoms: N4_17  and  C5_19 
REMARK    6  A    between atoms: C5_19  and  C6_21 
REMARK    7  A    between atoms: C9_30  and  C10_31 
REMARK    8  A    between atoms: C10_31  and  O6_33 
ROOT
HETATM    1  C1  UNL     1      12.042  15.779  29.550  1.00  0.00     0.206 C 
HETATM    2  N1  UNL     1      13.448  16.105  29.465  1.00  0.00    -0.084 N 
HETATM    3  C4  UNL     1      14.051  16.779  30.552  1.00  0.00     0.700 C 
HETATM    4  N3  UNL     1      14.476  16.077  31.539  1.00  0.00    -0.233 N 
ATOM      5  H31 UNL     1      14.911  16.564  32.323  1.00  0.00     0.174 HD
ATOM      6  H32 UNL     1      14.363  15.065  31.497  1.00  0.00     0.174 HD
HETATM    7  N4  UNL     1      14.208  18.182  30.609  1.00  0.00    -0.153 N 
ATOM      8  H4  UNL     1      14.657  18.592  31.429  1.00  0.00     0.187 HD
HETATM    9  C5  UNL     1      13.757  19.056  29.555  1.00  0.00     0.287 C 
HETATM   10  O4  UNL     1      13.227  18.483  28.602  1.00  0.00    -0.265 OA
ENDROOT
BRANCH   9  11
HETATM   11  C6  UNL     1      13.992  20.466  29.776  1.00  0.00     0.123 A 
HETATM   12  N5  UNL     1      15.307  20.868  29.764  1.00  0.00    -0.303 N 
HETATM   13  C7  UNL     1      15.672  22.122  29.959  1.00  0.00     0.326 A 
ATOM     14  H5  UNL     1      16.031  20.169  29.597  1.00  0.00     0.171 HD
HETATM   15  O5  UNL     1      16.915  22.386  29.927  1.00  0.00    -0.247 OA
HETATM   16  N6  UNL     1      14.785  23.096  30.184  1.00  0.00    -0.296 N 
HETATM   17  C8  UNL     1      13.500  22.743  30.205  1.00  0.00     0.136 A 
ATOM     18  H6  UNL     1      15.077  24.062  30.331  1.00  0.00     0.171 HD
HETATM   19  N7  UNL     1      12.534  23.776  30.444  1.00  0.00    -0.081 NA
HETATM   20  C9  UNL     1      13.046  21.415  30.004  1.00  0.00     0.085 A 
BRANCH  20  21
HETATM   21  C10 UNL     1      11.618  21.200  30.114  1.00  0.00     0.165 C 
HETATM   22  N8  UNL     1      10.673  20.919  29.132  1.00  0.00    -0.074 NA
BRANCH  21  23
HETATM   23  O6  UNL     1      11.103  21.268  31.307  1.00  0.00    -0.348 OA
ATOM     24  H6  UNL     1      10.473  21.961  31.465  1.00  0.00     0.219 HD
ENDBRANCH  21  23
ENDBRANCH  20  21
ENDBRANCH   9  11
BRANCH   2  25
HETATM   25  O1  UNL     1      14.127  15.750  28.348  1.00  0.00    -0.179 OA
BRANCH  25  26
HETATM   26  C2  UNL     1      15.472  15.572  28.196  1.00  0.00     0.338 C 
HETATM   27  O2  UNL     1      15.975  14.481  28.500  1.00  0.00    -0.258 OA
BRANCH  26  28
HETATM   28  C3  UNL     1      16.308  16.700  27.663  1.00  0.00     0.419 C 
BRANCH  28  29
HETATM   29  N2  UNL     1      15.528  17.500  26.755  1.00  0.00    -0.043 N 
ATOM     30  H23 UNL     1      14.819  16.949  26.271  1.00  0.00     0.278 HD
ATOM     31  H22 UNL     1      14.906  18.141  27.248  1.00  0.00     0.278 HD
ATOM     32  H21 UNL     1      16.145  17.988  26.105  1.00  0.00     0.278 HD
ENDBRANCH  28  29
BRANCH  28  33
HETATM   33  O3  UNL     1      16.751  17.457  28.744  1.00  0.00    -0.362 OA
ATOM     34  H3  UNL     1      17.253  16.888  29.316  1.00  0.00     0.212 HD
ENDBRANCH  28  33
ENDBRANCH  26  28
ENDBRANCH  25  26
ENDBRANCH   2  25
TORSDOF 8
ENDMDL
MODEL 2
REMARK VINA RESULT: -6.354613752      3.872      8.313
REMARK  8 active torsions:
REMARK  status: ('A' for Active; 'I' for Inactive)
REMARK    1  A    between atoms: N1_2  and  O1_3 
REMARK       I    between atoms: N1_2  and  C4_13 
REMARK    2  A    between atoms: O1_3  and  C2_4 
REMARK    3  A    between atoms: C2_4  and  C3_6 
REMARK    4  A    between atoms: C3_6  and  N2_7 
REMARK    5  A    between atoms: C3_6  and  O3_11 
REMARK       I    between atoms: C4_13  and  N4_17 
REMARK       I    between atoms: N4_17  and  C5_19 
REMARK    6  A    between atoms: C5_19  and  C6_21 
REMARK    7  A    between atoms: C9_30  and  C10_31 
REMARK    8  A    between atoms: C10_31  and  O6_33 
ROOT
HETATM    1  C1  UNL     1      12.513  16.764  29.609  1.00  0.00     0.206 C 
HETATM    2  N1  UNL     1      13.508  16.750  28.559  1.00  0.00    -0.084 N 
HETATM    3  C4  UNL     1      13.242  16.003  27.389  1.00  0.00     0.700 C 
HETATM    4  N3  UNL     1      12.555  16.559  26.458  1.00  0.00    -0.233 N 
ATOM      5  H31 UNL     1      12.363  16.020  25.614  1.00  0.00     0.174 HD
ATOM      6  H32 UNL     1      12.232  17.515  26.601  1.00  0.00     0.174 HD
HETATM    7  N4  UNL     1      13.690  14.677  27.191  1.00  0.00    -0.153 N 
ATOM      8  H4  UNL     1      13.458  14.207  26.315  1.00  0.00     0.187 HD
HETATM    9  C5  UNL     1      14.461  13.964  28.179  1.00  0.00     0.287 C 
HETATM   10  O4  UNL     1      14.698  14.601  29.205  1.00  0.00    -0.265 OA
ENDROOT
BRANCH   9  11
HETATM   11  C6  UNL     1      14.835  12.614  27.817  1.00  0.00     0.123 A 
HETATM   12  N5  UNL     1      13.811  11.697  27.769  1.00  0.00    -0.303 N 
HETATM   13  C7  UNL     1      14.003  10.427  27.462  1.00  0.00     0.326 A 
ATOM     14  H5  UNL     1      12.863  12.011  27.978  1.00  0.00     0.171 HD
HETATM   15  O5  UNL     1      12.987   9.664  27.445  1.00  0.00    -0.247 OA
HETATM   16  N6  UNL     1      15.214   9.939  27.176  1.00  0.00    -0.296 N 
HETATM   17  C8  UNL     1      16.231  10.798  27.215  1.00  0.00     0.136 A 
ATOM     18  H6  UNL     1      15.351   8.957  26.938  1.00  0.00     0.171 HD
HETATM   19  N7  UNL     1      17.538  10.291  26.910  1.00  0.00    -0.081 NA
HETATM   20  C9  UNL     1      16.089  12.172  27.539  1.00  0.00     0.085 A 
BRANCH  20  21
HETATM   21  C10 UNL     1      17.308  12.950  27.589  1.00  0.00     0.165 C 
HETATM   22  N8  UNL     1      18.125  13.271  28.669  1.00  0.00    -0.074 NA
BRANCH  21  23
HETATM   23  O6  UNL     1      17.742  13.440  26.464  1.00  0.00    -0.348 OA
ATOM     24  H6  UNL     1      17.963  14.364  26.453  1.00  0.00     0.219 HD
ENDBRANCH  21  23
ENDBRANCH  20  21
ENDBRANCH   9  11
BRANCH   2  25
HETATM   25  O1  UNL     1      14.651  17.452  28.743  1.00  0.00    -0.179 OA
BRANCH  25  26
HETATM   26  C2  UNL     1      15.474  17.991  27.797  1.00  0.00     0.338 C 
HETATM   27  O2  UNL     1      15.265  19.147  27.401  1.00  0.00    -0.258 OA
BRANCH  26  28
HETATM   28  C3  UNL     1      16.613  17.172  27.260  1.00  0.00     0.419 C 
BRANCH  28  29
HETATM   29  N2  UNL     1      16.987  16.167  28.220  1.00  0.00    -0.043 N 
ATOM     30  H23 UNL     1      16.509  16.292  29.112  1.00  0.00     0.278 HD
ATOM     31  H22 UNL     1      16.614  15.249  27.978  1.00  0.00     0.278 HD
ATOM     32  H21 UNL     1      18.002  16.152  28.327  1.00  0.00     0.278 HD
ENDBRANCH  28  29
BRANCH  28  33
HETATM   33  O3  UNL     1      16.201  16.593  26.062  1.00  0.00    -0.362 OA
ATOM     34  H3  UNL     1      16.968  16.239  25.627  1.00  0.00     0.212 HD
ENDBRANCH  28  33
ENDBRANCH  26  28
ENDBRANCH  25  26
ENDBRANCH   2  25
TORSDOF 8
ENDMDL
MODEL 3
REMARK VINA RESULT: -6.271103872      2.436      4.268
REMARK  8 active torsions:
REMARK  status: ('A' for Active; 'I' for Inactive)
REMARK    1  A    between atoms: N1_2  and  O1_3 
REMARK       I    between atoms: N1_2  and  C4_13 
REMARK    2  A    between atoms: O1_3  and  C2_4 
REMARK    3  A    between atoms: C2_4  and  C3_6 
REMARK    4  A    between atoms: C3_6  and  N2_7 
REMARK    5  A    between atoms: C3_6  and  O3_11 
REMARK       I    between atoms: C4_13  and  N4_17 
REMARK       I    between atoms: N4_17  and  C5_19 
REMARK    6  A    between atoms: C5_19  and  C6_21 
REMARK    7  A    between atoms: C9_30  and  C10_31 
REMARK    8  A    between atoms: C10_31  and  O6_33 
ROOT
HETATM    1  C1  UNL     1      10.693  15.970  32.480  1.00  0.00     0.206 C 
HETATM    2  N1  UNL     1      11.841  15.286  31.925  1.00  0.00    -0.084 N 
HETATM    3  C4  UNL     1      13.130  15.681  32.349  1.00  0.00     0.700 C 
HETATM    4  N3  UNL     1      13.597  15.169  33.430  1.00  0.00    -0.233 N 
ATOM      5  H31 UNL     1      14.527  15.454  33.735  1.00  0.00     0.174 HD
ATOM      6  H32 UNL     1      13.019  14.499  33.936  1.00  0.00     0.174 HD
HETATM    7  N4  UNL     1      13.932  16.611  31.647  1.00  0.00    -0.153 N 
ATOM      8  H4  UNL     1      14.854  16.841  32.017  1.00  0.00     0.187 HD
HETATM    9  C5  UNL     1      13.495  17.245  30.428  1.00  0.00     0.287 C 
HETATM   10  O4  UNL     1      12.371  16.912  30.048  1.00  0.00    -0.265 OA
ENDROOT
BRANCH   9  11
HETATM   11  C6  UNL     1      14.436  18.174  29.841  1.00  0.00     0.123 A 
HETATM   12  N5  UNL     1      14.441  19.443  30.370  1.00  0.00    -0.303 N 
HETATM   13  C7  UNL     1      15.240  20.397  29.929  1.00  0.00     0.326 A 
ATOM     14  H5  UNL     1      13.801  19.656  31.136  1.00  0.00     0.171 HD
HETATM   15  O5  UNL     1      15.164  21.535  30.490  1.00  0.00    -0.247 OA
HETATM   16  N6  UNL     1      16.106  20.197  28.931  1.00  0.00    -0.296 N 
HETATM   17  C8  UNL     1      16.127  18.979  28.391  1.00  0.00     0.136 A 
ATOM     18  H6  UNL     1      16.720  20.941  28.599  1.00  0.00     0.171 HD
HETATM   19  N7  UNL     1      17.050  18.746  27.319  1.00  0.00    -0.081 NA
HETATM   20  C9  UNL     1      15.294  17.914  28.820  1.00  0.00     0.085 A 
BRANCH  20  21
HETATM   21  C10 UNL     1      15.410  16.672  28.085  1.00  0.00     0.165 C 
HETATM   22  N8  UNL     1      14.570  16.114  27.126  1.00  0.00    -0.074 NA
BRANCH  21  23
HETATM   23  O6  UNL     1      16.454  15.936  28.333  1.00  0.00    -0.348 OA
ATOM     24  H6  UNL     1      17.170  15.982  27.711  1.00  0.00     0.219 HD
ENDBRANCH  21  23
ENDBRANCH  20  21
ENDBRANCH   9  11
BRANCH   2  25
HETATM   25  O1  UNL     1      11.630  14.297  31.025  1.00  0.00    -0.179 OA
BRANCH  25  26
HETATM   26  C2  UNL     1      12.504  13.337  30.602  1.00  0.00     0.338 C 
HETATM   27  O2  UNL     1      12.710  12.349  31.321  1.00  0.00    -0.258 OA
BRANCH  26  28
HETATM   28  C3  UNL     1      13.193  13.501  29.278  1.00  0.00     0.419 C 
BRANCH  28  29
HETATM   29  N2  UNL     1      12.411  14.354  28.422  1.00  0.00    -0.043 N 
ATOM     30  H23 UNL     1      12.945  14.682  27.617  1.00  0.00     0.278 HD
ATOM     31  H22 UNL     1      11.689  13.837  27.921  1.00  0.00     0.278 HD
ATOM     32  H21 UNL     1      12.022  15.126  28.965  1.00  0.00     0.278 HD
ENDBRANCH  28  29
BRANCH  28  33
HETATM   33  O3  UNL     1      14.454  14.045  29.511  1.00  0.00    -0.362 OA
ATOM     34  H3  UNL     1      15.097  13.353  29.404  1.00  0.00     0.212 HD
ENDBRANCH  28  33
ENDBRANCH  26  28
ENDBRANCH  25  26
ENDBRANCH   2  25
TORSDOF 8
ENDMDL
MODEL 4
REMARK VINA RESULT: -6.270949129      1.116      1.384
REMARK  8 active torsions:
REMARK  status: ('A' for Active; 'I' for Inactive)
REMARK    1  A    between atoms: N1_2  and  O1_3 
REMARK       I    between atoms: N1_2  and  C4_13 
REMARK    2  A    between atoms: O1_3  and  C2_4 
REMARK    3  A    between atoms: C2_4  and  C3_6 
REMARK    4  A    between atoms: C3_6  and  N2_7 
REMARK    5  A    between atoms: C3_6  and  O3_11 
REMARK       I    between atoms: C4_13  and  N4_17 
REMARK       I    between atoms: N4_17  and  C5_19 
REMARK    6  A    between atoms: C5_19  and  C6_21 
REMARK    7  A    between atoms: C9_30  and  C10_31 
REMARK    8  A    between atoms: C10_31  and  O6_33 
ROOT
HETATM    1  C1  UNL     1      12.453  15.752  29.082  1.00  0.00     0.206 C 
HETATM    2  N1  UNL     1      13.849  16.122  29.155  1.00  0.00    -0.084 N 
HETATM    3  C4  UNL     1      14.312  16.777  30.319  1.00  0.00     0.700 C 
HETATM    4  N3  UNL     1      14.656  16.055  31.324  1.00  0.00    -0.233 N 
ATOM      5  H31 UNL     1      14.990  16.527  32.164  1.00  0.00     0.174 HD
ATOM      6  H32 UNL     1      14.581  15.042  31.239  1.00  0.00     0.174 HD
HETATM    7  N4  UNL     1      14.416  18.181  30.436  1.00  0.00    -0.153 N 
ATOM      8  H4  UNL     1      14.763  18.576  31.310  1.00  0.00     0.187 HD
HETATM    9  C5  UNL     1      14.049  19.077  29.367  1.00  0.00     0.287 C 
HETATM   10  O4  UNL     1      13.640  18.521  28.347  1.00  0.00    -0.265 OA
ENDROOT
BRANCH   9  11
HETATM   11  C6  UNL     1      14.212  20.485  29.655  1.00  0.00     0.123 A 
HETATM   12  N5  UNL     1      15.504  20.955  29.657  1.00  0.00    -0.303 N 
HETATM   13  C7  UNL     1      15.805  22.215  29.911  1.00  0.00     0.326 A 
ATOM     14  H5  UNL     1      16.262  20.303  29.454  1.00  0.00     0.171 HD
HETATM   15  O5  UNL     1      17.033  22.544  29.886  1.00  0.00    -0.247 OA
HETATM   16  N6  UNL     1      14.871  23.130  30.186  1.00  0.00    -0.296 N 
HETATM   17  C8  UNL     1      13.606  22.710  30.195  1.00  0.00     0.136 A 
ATOM     18  H6  UNL     1      15.114  24.101  30.379  1.00  0.00     0.171 HD
HETATM   19  N7  UNL     1      12.590  23.679  30.488  1.00  0.00    -0.081 NA
HETATM   20  C9  UNL     1      13.219  21.371  29.932  1.00  0.00     0.085 A 
BRANCH  20  21
HETATM   21  C10 UNL     1      11.806  21.078  30.039  1.00  0.00     0.165 C 
HETATM   22  N8  UNL     1      10.876  20.768  29.051  1.00  0.00    -0.074 NA
BRANCH  21  23
HETATM   23  O6  UNL     1      11.289  21.092  31.233  1.00  0.00    -0.348 OA
ATOM     24  H6  UNL     1      10.866  20.295  31.529  1.00  0.00     0.219 HD
ENDBRANCH  21  23
ENDBRANCH  20  21
ENDBRANCH   9  11
BRANCH   2  25
HETATM   25  O1  UNL     1      14.652  15.826  28.105  1.00  0.00    -0.179 OA
BRANCH  25  26
HETATM   26  C2  UNL     1      15.975  15.491  28.120  1.00  0.00     0.338 C 
HETATM   27  O2  UNL     1      16.820  16.356  27.848  1.00  0.00    -0.258 OA
BRANCH  26  28
HETATM   28  C3  UNL     1      16.374  14.085  28.465  1.00  0.00     0.419 C 
BRANCH  28  29
HETATM   29  N2  UNL     1      16.055  13.204  27.372  1.00  0.00    -0.043 N 
ATOM     30  H23 UNL     1      15.085  13.304  27.071  1.00  0.00     0.278 HD
ATOM     31  H22 UNL     1      16.510  13.488  26.505  1.00  0.00     0.278 HD
ATOM     32  H21 UNL     1      16.281  12.242  27.626  1.00  0.00     0.278 HD
ENDBRANCH  28  29
BRANCH  28  33
HETATM   33  O3  UNL     1      17.742  14.077  28.731  1.00  0.00    -0.362 OA
ATOM     34  H3  UNL     1      17.994  13.187  28.949  1.00  0.00     0.212 HD
ENDBRANCH  28  33
ENDBRANCH  26  28
ENDBRANCH  25  26
ENDBRANCH   2  25
TORSDOF 8
ENDMDL
MODEL 5
REMARK VINA RESULT: -6.236652004      1.635      2.826
REMARK  8 active torsions:
REMARK  status: ('A' for Active; 'I' for Inactive)
REMARK    1  A    between atoms: N1_2  and  O1_3 
REMARK       I    between atoms: N1_2  and  C4_13 
REMARK    2  A    between atoms: O1_3  and  C2_4 
REMARK    3  A    between atoms: C2_4  and  C3_6 
REMARK    4  A    between atoms: C3_6  and  N2_7 
REMARK    5  A    between atoms: C3_6  and  O3_11 
REMARK       I    between atoms: C4_13  and  N4_17 
REMARK       I    between atoms: N4_17  and  C5_19 
REMARK    6  A    between atoms: C5_19  and  C6_21 
REMARK    7  A    between atoms: C9_30  and  C10_31 
REMARK    8  A    between atoms: C10_31  and  O6_33 
ROOT
HETATM    1  C1  UNL     1      16.133  15.901  27.939  1.00  0.00     0.206 C 
HETATM    2  N1  UNL     1      14.911  16.209  28.649  1.00  0.00    -0.084 N 
HETATM    3  C4  UNL     1      13.982  17.084  28.042  1.00  0.00     0.700 C 
HETATM    4  N3  UNL     1      13.139  16.591  27.209  1.00  0.00    -0.233 N 
ATOM      5  H31 UNL     1      12.469  17.223  26.771  1.00  0.00     0.174 HD
ATOM      6  H32 UNL     1      13.175  15.590  27.021  1.00  0.00     0.174 HD
HETATM    7  N4  UNL     1      13.933  18.473  28.303  1.00  0.00    -0.153 N 
ATOM      8  H4  UNL     1      13.229  19.037  27.826  1.00  0.00     0.187 HD
HETATM    9  C5  UNL     1      14.840  19.122  29.217  1.00  0.00     0.287 C 
HETATM   10  O4  UNL     1      15.658  18.372  29.751  1.00  0.00    -0.265 OA
ENDROOT
BRANCH   9  11
HETATM   11  C6  UNL     1      14.655  20.549  29.364  1.00  0.00     0.123 A 
HETATM   12  N5  UNL     1      15.796  21.315  29.306  1.00  0.00    -0.303 N 
HETATM   13  C7  UNL     1      15.781  22.629  29.434  1.00  0.00     0.326 A 
ATOM     14  H5  UNL     1      16.691  20.848  29.159  1.00  0.00     0.171 HD
HETATM   15  O5  UNL     1      16.894  23.240  29.363  1.00  0.00    -0.247 OA
HETATM   16  N6  UNL     1      14.651  23.314  29.628  1.00  0.00    -0.296 N 
HETATM   17  C8  UNL     1      13.524  22.605  29.692  1.00  0.00     0.136 A 
ATOM     18  H6  UNL     1      14.650  24.329  29.723  1.00  0.00     0.171 HD
HETATM   19  N7  UNL     1      12.301  23.323  29.901  1.00  0.00    -0.081 NA
HETATM   20  C9  UNL     1      13.475  21.193  29.565  1.00  0.00     0.085 A 
BRANCH  20  21
HETATM   21  C10 UNL     1      12.173  20.579  29.715  1.00  0.00     0.165 C 
HETATM   22  N8  UNL     1      11.724  19.638  30.637  1.00  0.00    -0.074 NA
BRANCH  21  23
HETATM   23  O6  UNL     1      11.249  20.943  28.874  1.00  0.00    -0.348 OA
ATOM     24  H6  UNL     1      10.361  20.996  29.206  1.00  0.00     0.219 HD
ENDBRANCH  21  23
ENDBRANCH  20  21
ENDBRANCH   9  11
BRANCH   2  25
HETATM   25  O1  UNL     1      14.711  15.645  29.864  1.00  0.00    -0.179 OA
BRANCH  25  26
HETATM   26  C2  UNL     1      13.528  15.423  30.509  1.00  0.00     0.338 C 
HETATM   27  O2  UNL     1      12.745  14.575  30.058  1.00  0.00    -0.258 OA
BRANCH  26  28
HETATM   28  C3  UNL     1      13.206  16.209  31.747  1.00  0.00     0.419 C 
BRANCH  28  29
HETATM   29  N2  UNL     1      14.041  15.772  32.835  1.00  0.00    -0.043 N 
ATOM     30  H23 UNL     1      14.301  14.789  32.747  1.00  0.00     0.278 HD
ATOM     31  H22 UNL     1      14.975  16.177  32.788  1.00  0.00     0.278 HD
ATOM     32  H21 UNL     1      13.582  15.969  33.725  1.00  0.00     0.278 HD
ENDBRANCH  28  29
BRANCH  28  33
HETATM   33  O3  UNL     1      13.412  17.558  31.468  1.00  0.00    -0.362 OA
ATOM     34  H3  UNL     1      12.568  17.994  31.484  1.00  0.00     0.212 HD
ENDBRANCH  28  33
ENDBRANCH  26  28
ENDBRANCH  25  26
ENDBRANCH   2  25
TORSDOF 8
ENDMDL
