MODEL 1
REMARK VINA RESULT: -6.658142957      0.000      0.000
REMARK  6 active torsions:
REMARK  status: ('A' for Active; 'I' for Inactive)
REMARK    1  A    between atoms: O1_2  and  N1_3 
REMARK       I    between atoms: N1_3  and  C2_5 
REMARK    2  A    between atoms: C2_5  and  C3_7 
REMARK    3  A    between atoms: N2_9  and  N3_11 
REMARK    4  A    between atoms: N3_11  and  C5_13 
REMARK    5  A    between atoms: C6_17  and  C7_18 
REMARK       I    between atoms: C7_18  and  N5_20 
REMARK       I    between atoms: N5_20  and  C8_22 
REMARK    6  A    between atoms: N8_28  and  O4_30 
ROOT
HETATM    1  C5  UNL     1      14.725  15.305  29.885  1.00  0.00     0.369 C 
HETATM    2  N4  UNL     1      15.607  15.420  28.769  1.00  0.00    -0.025 N 
ATOM      3  H41 UNL     1      16.578  15.512  29.067  1.00  0.00     0.282 HD
ATOM      4  H42 UNL     1      15.501  16.320  28.300  1.00  0.00     0.282 HD
HETATM    5  C6  UNL     1      15.438  14.330  27.859  1.00  0.00     0.339 C 
HETATM    6  C9  UNL     1      14.012  14.126  27.606  1.00  0.00     0.112 C 
HETATM    7  N8  UNL     1      13.484  13.530  26.640  1.00  0.00    -0.264 N 
ATOM      8  H8  UNL     1      14.117  13.138  25.943  1.00  0.00     0.194 HD
HETATM    9  S1  UNL     1      13.175  14.905  28.962  1.00  0.00    -0.057 SA
ENDROOT
BRANCH   1  10
HETATM   10  N3  UNL     1      14.601  16.534  30.588  1.00  0.00    -0.297 N 
ATOM     11  H3  UNL     1      13.993  16.575  31.406  1.00  0.00     0.183 HD
BRANCH  10  12
HETATM   12  N2  UNL     1      15.278  17.681  30.199  1.00  0.00    -0.301 N 
HETATM   13  C3  UNL     1      14.759  18.696  29.599  1.00  0.00     0.091 C 
HETATM   14  C4  UNL     1      13.328  18.782  29.232  1.00  0.00     0.076 C 
ATOM     15  H2  UNL     1      16.277  17.724  30.406  1.00  0.00     0.186 HD
BRANCH  13  16
HETATM   16  C2  UNL     1      15.642  19.802  29.275  1.00  0.00     0.288 C 
HETATM   17  N1  UNL     1      15.769  20.878  30.165  1.00  0.00    -0.230 N 
ATOM     18  H1  UNL     1      15.229  20.850  31.029  1.00  0.00     0.197 HD
HETATM   19  O2  UNL     1      16.305  19.833  28.215  1.00  0.00    -0.264 OA
BRANCH  17  20
HETATM   20  O1  UNL     1      16.564  21.950  29.950  1.00  0.00    -0.282 OA
HETATM   21  C1  UNL     1      15.785  23.089  29.780  1.00  0.00     0.237 C 
ENDBRANCH  17  20
ENDBRANCH  13  16
ENDBRANCH  10  12
ENDBRANCH   1  10
BRANCH   5  22
HETATM   22  C7  UNL     1      16.187  13.140  28.256  1.00  0.00     0.261 C 
HETATM   23  O3  UNL     1      15.611  12.183  28.799  1.00  0.00    -0.270 OA
HETATM   24  N5  UNL     1      17.583  13.069  28.022  1.00  0.00    -0.299 N 
HETATM   25  C8  UNL     1      18.339  11.937  28.393  1.00  0.00     0.188 C 
ATOM     26  H5  UNL     1      18.053  13.856  27.574  1.00  0.00     0.171 HD
HETATM   27  N6  UNL     1      19.599  11.877  28.181  1.00  0.00    -0.373 N 
HETATM   28  N7  UNL     1      17.689  10.852  29.014  1.00  0.00    -0.064 NA
ATOM     29  H62 UNL     1      20.069  12.663  27.731  1.00  0.00     0.158 HD
ATOM     30  H61 UNL     1      20.145  11.059  28.449  1.00  0.00     0.158 HD
ENDBRANCH   5  22
BRANCH   7  31
HETATM   31  O4  UNL     1      12.149  13.353  26.424  1.00  0.00    -0.289 OA
ATOM     32  H4  UNL     1      11.729  12.575  26.078  1.00  0.00     0.244 HD
ENDBRANCH   7  31
TORSDOF 6
ENDMDL
MODEL 2
REMARK VINA RESULT: -6.651188283      3.342      8.935
REMARK  6 active torsions:
REMARK  status: ('A' for Active; 'I' for Inactive)
REMARK    1  A    between atoms: O1_2  and  N1_3 
REMARK       I    between atoms: N1_3  and  C2_5 
REMARK    2  A    between atoms: C2_5  and  C3_7 
REMARK    3  A    between atoms: N2_9  and  N3_11 
REMARK    4  A    between atoms: N3_11  and  C5_13 
REMARK    5  A    between atoms: C6_17  and  C7_18 
REMARK       I    between atoms: C7_18  and  N5_20 
REMARK       I    between atoms: N5_20  and  C8_22 
REMARK    6  A    between atoms: N8_28  and  O4_30 
ROOT
HETATM    1  C5  UNL     1      14.358  20.158  30.238  1.00  0.00     0.369 C 
HETATM    2  N4  UNL     1      13.407  21.187  29.967  1.00  0.00    -0.025 N 
ATOM      3  H41 UNL     1      12.537  21.038  30.479  1.00  0.00     0.282 HD
ATOM      4  H42 UNL     1      13.042  21.118  29.017  1.00  0.00     0.282 HD
HETATM    5  C6  UNL     1      13.955  22.482  30.228  1.00  0.00     0.339 C 
HETATM    6  C9  UNL     1      15.282  22.578  29.621  1.00  0.00     0.112 C 
HETATM    7  N8  UNL     1      15.918  23.616  29.330  1.00  0.00    -0.264 N 
ATOM      8  H8  UNL     1      15.462  24.505  29.539  1.00  0.00     0.194 HD
HETATM    9  S1  UNL     1      15.812  20.902  29.377  1.00  0.00    -0.057 SA
ENDROOT
BRANCH   1  10
HETATM   10  N3  UNL     1      13.984  18.924  29.640  1.00  0.00    -0.297 N 
ATOM     11  H3  UNL     1      13.004  18.642  29.663  1.00  0.00     0.183 HD
BRANCH  10  12
HETATM   12  N2  UNL     1      14.907  18.089  29.027  1.00  0.00    -0.301 N 
HETATM   13  C3  UNL     1      14.642  17.204  28.128  1.00  0.00     0.091 C 
HETATM   14  C4  UNL     1      13.279  16.949  27.612  1.00  0.00     0.076 C 
ATOM     15  H2  UNL     1      15.881  18.184  29.313  1.00  0.00     0.186 HD
BRANCH  13  16
HETATM   16  C2  UNL     1      15.754  16.428  27.609  1.00  0.00     0.288 C 
HETATM   17  N1  UNL     1      16.355  15.447  28.410  1.00  0.00    -0.230 N 
ATOM     18  H1  UNL     1      15.986  15.306  29.349  1.00  0.00     0.197 HD
HETATM   19  O2  UNL     1      16.202  16.603  26.454  1.00  0.00    -0.264 OA
BRANCH  17  20
HETATM   20  O1  UNL     1      17.393  14.677  28.014  1.00  0.00    -0.282 OA
HETATM   21  C1  UNL     1      17.038  13.334  28.082  1.00  0.00     0.237 C 
ENDBRANCH  17  20
ENDBRANCH  13  16
ENDBRANCH  10  12
ENDBRANCH   1  10
BRANCH   5  22
HETATM   22  C7  UNL     1      13.875  22.858  31.637  1.00  0.00     0.261 C 
HETATM   23  O3  UNL     1      14.892  23.211  32.256  1.00  0.00    -0.270 OA
HETATM   24  N5  UNL     1      12.629  22.822  32.311  1.00  0.00    -0.299 N 
HETATM   25  C8  UNL     1      12.513  23.176  33.672  1.00  0.00     0.188 C 
ATOM     26  H5  UNL     1      11.795  22.533  31.800  1.00  0.00     0.171 HD
HETATM   27  N6  UNL     1      11.387  23.142  34.277  1.00  0.00    -0.373 N 
HETATM   28  N7  UNL     1      13.667  23.572  34.377  1.00  0.00    -0.064 NA
ATOM     29  H62 UNL     1      10.552  22.856  33.766  1.00  0.00     0.158 HD
ATOM     30  H61 UNL     1      11.304  23.398  35.260  1.00  0.00     0.158 HD
ENDBRANCH   5  22
BRANCH   7  31
HETATM   31  O4  UNL     1      17.156  23.681  28.763  1.00  0.00    -0.289 OA
ATOM     32  H4  UNL     1      17.601  24.463  28.459  1.00  0.00     0.244 HD
ENDBRANCH   7  31
TORSDOF 6
ENDMDL
MODEL 3
REMARK VINA RESULT: -6.590698767      2.325      7.542
REMARK  6 active torsions:
REMARK  status: ('A' for Active; 'I' for Inactive)
REMARK    1  A    between atoms: O1_2  and  N1_3 
REMARK       I    between atoms: N1_3  and  C2_5 
REMARK    2  A    between atoms: C2_5  and  C3_7 
REMARK    3  A    between atoms: N2_9  and  N3_11 
REMARK    4  A    between atoms: N3_11  and  C5_13 
REMARK    5  A    between atoms: C6_17  and  C7_18 
REMARK       I    between atoms: C7_18  and  N5_20 
REMARK       I    between atoms: N5_20  and  C8_22 
REMARK    6  A    between atoms: N8_28  and  O4_30 
ROOT
HETATM    1  C5  UNL     1      14.792  17.194  27.860  1.00  0.00     0.369 C 
HETATM    2  N4  UNL     1      15.721  17.566  28.877  1.00  0.00    -0.025 N 
ATOM      3  H41 UNL     1      16.471  18.148  28.505  1.00  0.00     0.282 HD
ATOM      4  H42 UNL     1      16.279  16.769  29.184  1.00  0.00     0.282 HD
HETATM    5  C6  UNL     1      15.060  18.199  29.977  1.00  0.00     0.339 C 
HETATM    6  C9  UNL     1      13.886  17.414  30.354  1.00  0.00     0.112 C 
HETATM    7  N8  UNL     1      13.269  17.434  31.443  1.00  0.00    -0.264 N 
ATOM      8  H8  UNL     1      13.621  18.073  32.156  1.00  0.00     0.194 HD
HETATM    9  S1  UNL     1      13.510  16.414  28.937  1.00  0.00    -0.057 SA
ENDROOT
BRANCH   1  10
HETATM   10  N3  UNL     1      15.349  16.247  26.958  1.00  0.00    -0.297 N 
ATOM     11  H3  UNL     1      15.036  16.247  25.987  1.00  0.00     0.183 HD
BRANCH  10  12
HETATM   12  N2  UNL     1      16.306  15.322  27.353  1.00  0.00    -0.301 N 
HETATM   13  C3  UNL     1      16.111  14.059  27.515  1.00  0.00     0.091 C 
HETATM   14  C4  UNL     1      14.804  13.401  27.297  1.00  0.00     0.076 C 
ATOM     15  H2  UNL     1      17.247  15.674  27.531  1.00  0.00     0.186 HD
BRANCH  13  16
HETATM   16  C2  UNL     1      17.246  13.258  27.936  1.00  0.00     0.288 C 
HETATM   17  N1  UNL     1      17.385  11.945  27.467  1.00  0.00    -0.230 N 
ATOM     18  H1  UNL     1      16.672  11.585  26.833  1.00  0.00     0.197 HD
HETATM   19  O2  UNL     1      18.120  13.703  28.712  1.00  0.00    -0.264 OA
BRANCH  17  20
HETATM   20  O1  UNL     1      18.406  11.124  27.802  1.00  0.00    -0.282 OA
HETATM   21  C1  UNL     1      17.986  10.219  28.771  1.00  0.00     0.237 C 
ENDBRANCH  17  20
ENDBRANCH  13  16
ENDBRANCH  10  12
ENDBRANCH   1  10
BRANCH   5  22
HETATM   22  C7  UNL     1      14.824  19.623  29.751  1.00  0.00     0.261 C 
HETATM   23  O3  UNL     1      13.681  20.044  29.510  1.00  0.00    -0.270 OA
HETATM   24  N5  UNL     1      15.904  20.539  29.808  1.00  0.00    -0.299 N 
HETATM   25  C8  UNL     1      15.714  21.921  29.594  1.00  0.00     0.188 C 
ATOM     26  H5  UNL     1      16.841  20.191  30.009  1.00  0.00     0.171 HD
HETATM   27  N6  UNL     1      16.691  22.744  29.646  1.00  0.00    -0.373 N 
HETATM   28  N7  UNL     1      14.419  22.399  29.314  1.00  0.00    -0.064 NA
ATOM     29  H62 UNL     1      17.629  22.397  29.848  1.00  0.00     0.158 HD
ATOM     30  H61 UNL     1      16.554  23.743  29.491  1.00  0.00     0.158 HD
ENDBRANCH   5  22
BRANCH   7  31
HETATM   31  O4  UNL     1      12.174  16.692  31.773  1.00  0.00    -0.289 OA
ATOM     32  H4  UNL     1      11.336  16.687  31.327  1.00  0.00     0.244 HD
ENDBRANCH   7  31
TORSDOF 6
ENDMDL
MODEL 4
REMARK VINA RESULT: -6.429430381      1.541      1.697
REMARK  6 active torsions:
REMARK  status: ('A' for Active; 'I' for Inactive)
REMARK    1  A    between atoms: O1_2  and  N1_3 
REMARK       I    between atoms: N1_3  and  C2_5 
REMARK    2  A    between atoms: C2_5  and  C3_7 
REMARK    3  A    between atoms: N2_9  and  N3_11 
REMARK    4  A    between atoms: N3_11  and  C5_13 
REMARK    5  A    between atoms: C6_17  and  C7_18 
REMARK       I    between atoms: C7_18  and  N5_20 
REMARK       I    between atoms: N5_20  and  C8_22 
REMARK    6  A    between atoms: N8_28  and  O4_30 
ROOT
HETATM    1  C5  UNL     1      15.205  14.590  29.049  1.00  0.00     0.369 C 
HETATM    2  N4  UNL     1      15.399  14.518  27.637  1.00  0.00    -0.025 N 
ATOM      3  H41 UNL     1      16.186  15.094  27.337  1.00  0.00     0.282 HD
ATOM      4  H42 UNL     1      14.653  14.996  27.132  1.00  0.00     0.282 HD
HETATM    5  C6  UNL     1      15.545  13.163  27.202  1.00  0.00     0.339 C 
HETATM    6  C9  UNL     1      14.495  12.344  27.807  1.00  0.00     0.112 C 
HETATM    7  N8  UNL     1      14.076  11.229  27.422  1.00  0.00    -0.264 N 
ATOM      8  H8  UNL     1      14.516  10.839  26.588  1.00  0.00     0.194 HD
HETATM    9  S1  UNL     1      13.928  13.266  29.213  1.00  0.00    -0.057 SA
ENDROOT
BRANCH   1  10
HETATM   10  N3  UNL     1      14.688  15.854  29.446  1.00  0.00    -0.297 N 
ATOM     11  H3  UNL     1      13.793  15.889  29.933  1.00  0.00     0.183 HD
BRANCH  10  12
HETATM   12  N2  UNL     1      15.360  17.041  29.193  1.00  0.00    -0.301 N 
HETATM   13  C3  UNL     1      14.815  18.161  28.866  1.00  0.00     0.091 C 
HETATM   14  C4  UNL     1      13.354  18.342  28.711  1.00  0.00     0.076 C 
ATOM     15  H2  UNL     1      16.377  17.025  29.272  1.00  0.00     0.186 HD
BRANCH  13  16
HETATM   16  C2  UNL     1      15.697  19.293  28.642  1.00  0.00     0.288 C 
HETATM   17  N1  UNL     1      15.725  20.349  29.562  1.00  0.00    -0.230 N 
ATOM     18  H1  UNL     1      15.114  20.290  30.376  1.00  0.00     0.197 HD
HETATM   19  O2  UNL     1      16.446  19.361  27.642  1.00  0.00    -0.264 OA
BRANCH  17  20
HETATM   20  O1  UNL     1      16.511  21.442  29.438  1.00  0.00    -0.282 OA
HETATM   21  C1  UNL     1      15.827  22.568  29.881  1.00  0.00     0.237 C 
ENDBRANCH  17  20
ENDBRANCH  13  16
ENDBRANCH  10  12
ENDBRANCH   1  10
BRANCH   5  22
HETATM   22  C7  UNL     1      16.907  12.661  27.358  1.00  0.00     0.261 C 
HETATM   23  O3  UNL     1      17.856  13.218  26.783  1.00  0.00    -0.270 OA
HETATM   24  N5  UNL     1      17.157  11.528  28.173  1.00  0.00    -0.299 N 
HETATM   25  C8  UNL     1      18.459  11.013  28.346  1.00  0.00     0.188 C 
ATOM     26  H5  UNL     1      16.376  11.073  28.646  1.00  0.00     0.171 HD
HETATM   27  N6  UNL     1      18.680   9.991  29.082  1.00  0.00    -0.373 N 
HETATM   28  N7  UNL     1      19.536  11.641  27.690  1.00  0.00    -0.064 NA
ATOM     29  H62 UNL     1      17.900   9.537  29.556  1.00  0.00     0.158 HD
ATOM     30  H61 UNL     1      19.621   9.619  29.207  1.00  0.00     0.158 HD
ENDBRANCH   5  22
BRANCH   7  31
HETATM   31  O4  UNL     1      13.094  10.483  28.002  1.00  0.00    -0.289 OA
ATOM     32  H4  UNL     1      13.131   9.556  28.207  1.00  0.00     0.244 HD
ENDBRANCH   7  31
TORSDOF 6
ENDMDL
MODEL 5
REMARK VINA RESULT: -6.327037810      1.667      1.717
REMARK  6 active torsions:
REMARK  status: ('A' for Active; 'I' for Inactive)
REMARK    1  A    between atoms: O1_2  and  N1_3 
REMARK       I    between atoms: N1_3  and  C2_5 
REMARK    2  A    between atoms: C2_5  and  C3_7 
REMARK    3  A    between atoms: N2_9  and  N3_11 
REMARK    4  A    between atoms: N3_11  and  C5_13 
REMARK    5  A    between atoms: C6_17  and  C7_18 
REMARK       I    between atoms: C7_18  and  N5_20 
REMARK       I    between atoms: N5_20  and  C8_22 
REMARK    6  A    between atoms: N8_28  and  O4_30 
ROOT
HETATM    1  C5  UNL     1      14.227  16.655  29.806  1.00  0.00     0.369 C 
HETATM    2  N4  UNL     1      15.339  16.750  28.917  1.00  0.00    -0.025 N 
ATOM      3  H41 UNL     1      16.219  16.552  29.395  1.00  0.00     0.282 HD
ATOM      4  H42 UNL     1      15.522  17.717  28.648  1.00  0.00     0.282 HD
HETATM    5  C6  UNL     1      15.163  15.911  27.773  1.00  0.00     0.339 C 
HETATM    6  C9  UNL     1      13.817  16.104  27.233  1.00  0.00     0.112 C 
HETATM    7  N8  UNL     1      13.408  15.833  26.082  1.00  0.00    -0.264 N 
ATOM      8  H8  UNL     1      14.089  15.429  25.438  1.00  0.00     0.194 HD
HETATM    9  S1  UNL     1      12.873  16.809  28.559  1.00  0.00    -0.057 SA
ENDROOT
BRANCH   1  10
HETATM   10  N3  UNL     1      14.198  17.734  30.731  1.00  0.00    -0.297 N 
ATOM     11  H3  UNL     1      13.711  17.610  31.619  1.00  0.00     0.183 HD
BRANCH  10  12
HETATM   12  N2  UNL     1      14.810  18.952  30.468  1.00  0.00    -0.301 N 
HETATM   13  C3  UNL     1      14.210  20.034  30.108  1.00  0.00     0.091 C 
HETATM   14  C4  UNL     1      12.746  20.132  29.920  1.00  0.00     0.076 C 
ATOM     15  H2  UNL     1      15.824  18.994  30.567  1.00  0.00     0.186 HD
BRANCH  13  16
HETATM   16  C2  UNL     1      15.034  21.208  29.879  1.00  0.00     0.288 C 
HETATM   17  N1  UNL     1      14.995  22.276  30.786  1.00  0.00    -0.230 N 
ATOM     18  H1  UNL     1      14.379  22.194  31.594  1.00  0.00     0.197 HD
HETATM   19  O2  UNL     1      15.790  21.304  28.887  1.00  0.00    -0.264 OA
BRANCH  17  20
HETATM   20  O1  UNL     1      15.724  23.407  30.656  1.00  0.00    -0.282 OA
HETATM   21  C1  UNL     1      14.893  24.466  30.306  1.00  0.00     0.237 C 
ENDBRANCH  17  20
ENDBRANCH  13  16
ENDBRANCH  10  12
ENDBRANCH   1  10
BRANCH   5  22
HETATM   22  C7  UNL     1      15.552  14.525  28.021  1.00  0.00     0.261 C 
HETATM   23  O3  UNL     1      14.692  13.656  28.238  1.00  0.00    -0.270 OA
HETATM   24  N5  UNL     1      16.922  14.161  28.017  1.00  0.00    -0.299 N 
HETATM   25  C8  UNL     1      17.336  12.834  28.255  1.00  0.00     0.188 C 
ATOM     26  H5  UNL     1      17.626  14.877  27.837  1.00  0.00     0.171 HD
HETATM   27  N6  UNL     1      18.573  12.509  28.250  1.00  0.00    -0.373 N 
HETATM   28  N7  UNL     1      16.362  11.847  28.506  1.00  0.00    -0.064 NA
ATOM     29  H62 UNL     1      19.278  13.224  28.068  1.00  0.00     0.158 HD
ATOM     30  H61 UNL     1      18.872  11.549  28.422  1.00  0.00     0.158 HD
ENDBRANCH   5  22
BRANCH   7  31
HETATM   31  O4  UNL     1      12.147  16.022  25.600  1.00  0.00    -0.289 OA
ATOM     32  H4  UNL     1      11.372  16.232  26.106  1.00  0.00     0.244 HD
ENDBRANCH   7  31
TORSDOF 6
ENDMDL
