MODEL 1
REMARK VINA RESULT: -5.829776103      0.000      0.000
REMARK  7 active torsions:
REMARK  status: ('A' for Active; 'I' for Inactive)
REMARK    1  A    between atoms: S1_2  and  C2_5 
REMARK    2  A    between atoms: C2_5  and  C3_6 
REMARK    3  A    between atoms: C3_6  and  N1_7 
REMARK    4  A    between atoms: N1_7  and  C4_8 
REMARK    5  A    between atoms: C7_21  and  N6_22 
REMARK    6  A    between atoms: N6_22  and  N7_23 
REMARK    7  A    between atoms: N8_27  and  O3_29 
ROOT
HETATM    1  C4  UNL     1      15.070  19.719  28.831  1.00  0.00     0.220 C 
HETATM    2  N2  UNL     1      15.865  19.033  27.819  1.00  0.00    -0.162 N 
ATOM      3  H2  UNL     1      16.740  19.490  27.564  1.00  0.00     0.187 HD
HETATM    4  C5  UNL     1      15.593  17.830  27.148  1.00  0.00     0.679 C 
HETATM    5  N3  UNL     1      16.562  17.357  26.448  1.00  0.00    -0.234 N 
ATOM      6  H31 UNL     1      16.365  16.484  25.960  1.00  0.00     0.174 HD
ATOM      7  H32 UNL     1      17.442  17.875  26.430  1.00  0.00     0.174 HD
HETATM    8  N4  UNL     1      14.346  17.097  27.174  1.00  0.00    -0.177 N 
ATOM      9  H4  UNL     1      14.143  16.497  26.375  1.00  0.00     0.185 HD
HETATM   10  C6  UNL     1      13.471  17.133  28.114  1.00  0.00     0.148 C 
HETATM   11  N5  UNL     1      12.193  16.506  28.348  1.00  0.00    -0.314 N 
ATOM     12  H5  UNL     1      11.799  15.569  28.270  1.00  0.00     0.175 HD
HETATM   13  S2  UNL     1      11.624  18.115  28.834  1.00  0.00    -0.009 SA
HETATM   14  C7  UNL     1      13.311  17.791  29.402  1.00  0.00     0.224 C 
HETATM   15  C8  UNL     1      14.139  18.951  29.703  1.00  0.00     0.136 C 
HETATM   16  N8  UNL     1      14.077  19.398  30.891  1.00  0.00    -0.265 N 
ATOM     17  H8  UNL     1      13.459  18.929  31.554  1.00  0.00     0.194 HD
ENDROOT
BRANCH   1  18
HETATM   18  N1  UNL     1      15.190  20.904  28.907  1.00  0.00    -0.400 NA
BRANCH  18  19
HETATM   19  C3  UNL     1      15.325  22.230  28.993  1.00  0.00     0.172 C 
BRANCH  19  20
HETATM   20  C2  UNL     1      14.089  23.029  29.404  1.00  0.00     0.199 C 
BRANCH  20  21
HETATM   21  S1  UNL     1      14.468  24.131  30.741  1.00  0.00     0.146 S 
HETATM   22  C1  UNL     1      12.986  24.576  31.636  1.00  0.00     0.161 C 
HETATM   23  O1  UNL     1      15.400  23.409  31.672  1.00  0.00    -0.228 OA
HETATM   24  O2  UNL     1      15.093  25.410  30.265  1.00  0.00    -0.228 OA
ENDBRANCH  20  21
ENDBRANCH  19  20
ENDBRANCH  18  19
ENDBRANCH   1  18
BRANCH  14  25
HETATM   25  N6  UNL     1      13.297  16.813  30.468  1.00  0.00    -0.110 NA
BRANCH  25  26
HETATM   26  N7  UNL     1      14.555  16.452  30.913  1.00  0.00    -0.346 N 
ATOM     27  H72 UNL     1      15.285  16.131  30.277  1.00  0.00     0.172 HD
ATOM     28  H71 UNL     1      14.677  16.538  31.922  1.00  0.00     0.172 HD
ENDBRANCH  25  26
ENDBRANCH  14  25
BRANCH  16  29
HETATM   29  O3  UNL     1      14.784  20.458  31.317  1.00  0.00    -0.289 OA
ATOM     30  H3  UNL     1      15.008  20.602  32.228  1.00  0.00     0.244 HD
ENDBRANCH  16  29
TORSDOF 7
ENDMDL
MODEL 2
REMARK VINA RESULT: -5.819386797      4.268      7.193
REMARK  7 active torsions:
REMARK  status: ('A' for Active; 'I' for Inactive)
REMARK    1  A    between atoms: S1_2  and  C2_5 
REMARK    2  A    between atoms: C2_5  and  C3_6 
REMARK    3  A    between atoms: C3_6  and  N1_7 
REMARK    4  A    between atoms: N1_7  and  C4_8 
REMARK    5  A    between atoms: C7_21  and  N6_22 
REMARK    6  A    between atoms: N6_22  and  N7_23 
REMARK    7  A    between atoms: N8_27  and  O3_29 
ROOT
HETATM    1  C4  UNL     1      14.279  15.921  29.054  1.00  0.00     0.220 C 
HETATM    2  N2  UNL     1      14.421  15.643  30.478  1.00  0.00    -0.162 N 
ATOM      3  H2  UNL     1      15.171  14.999  30.727  1.00  0.00     0.187 HD
HETATM    4  C5  UNL     1      13.667  16.138  31.554  1.00  0.00     0.679 C 
HETATM    5  N3  UNL     1      14.136  15.878  32.723  1.00  0.00    -0.234 N 
ATOM      6  H31 UNL     1      13.589  16.238  33.504  1.00  0.00     0.174 HD
ATOM      7  H32 UNL     1      15.003  15.344  32.787  1.00  0.00     0.174 HD
HETATM    8  N4  UNL     1      12.438  16.895  31.463  1.00  0.00    -0.177 N 
ATOM      9  H4  UNL     1      11.804  16.849  32.260  1.00  0.00     0.185 HD
HETATM   10  C6  UNL     1      12.071  17.620  30.468  1.00  0.00     0.148 C 
HETATM   11  N5  UNL     1      10.924  18.439  30.164  1.00  0.00    -0.314 N 
ATOM     12  H5  UNL     1      10.366  19.144  30.644  1.00  0.00     0.175 HD
HETATM   13  S2  UNL     1      10.931  17.654  28.572  1.00  0.00    -0.009 SA
HETATM   14  C7  UNL     1      12.604  18.000  29.167  1.00  0.00     0.224 C 
HETATM   15  C8  UNL     1      13.684  17.206  28.595  1.00  0.00     0.136 C 
HETATM   16  N8  UNL     1      14.221  17.661  27.536  1.00  0.00    -0.265 N 
ATOM     17  H8  UNL     1      13.870  18.539  27.153  1.00  0.00     0.194 HD
ENDROOT
BRANCH   1  18
HETATM   18  N1  UNL     1      14.641  15.074  28.294  1.00  0.00    -0.400 NA
BRANCH  18  19
HETATM   19  C3  UNL     1      15.046  14.127  27.444  1.00  0.00     0.172 C 
BRANCH  19  20
HETATM   20  C2  UNL     1      15.605  12.842  28.051  1.00  0.00     0.199 C 
BRANCH  20  21
HETATM   21  S1  UNL     1      17.360  12.742  27.808  1.00  0.00     0.146 S 
HETATM   22  C1  UNL     1      17.943  11.072  28.063  1.00  0.00     0.161 C 
HETATM   23  O1  UNL     1      17.643  13.145  26.388  1.00  0.00    -0.228 OA
HETATM   24  O2  UNL     1      18.118  13.620  28.761  1.00  0.00    -0.228 OA
ENDBRANCH  20  21
ENDBRANCH  19  20
ENDBRANCH  18  19
ENDBRANCH   1  18
BRANCH  14  25
HETATM   25  N6  UNL     1      12.864  19.422  29.126  1.00  0.00    -0.110 NA
BRANCH  25  26
HETATM   26  N7  UNL     1      14.048  19.794  29.735  1.00  0.00    -0.346 N 
ATOM     27  H72 UNL     1      14.694  19.110  30.129  1.00  0.00     0.172 HD
ATOM     28  H71 UNL     1      14.208  20.801  29.749  1.00  0.00     0.172 HD
ENDBRANCH  25  26
ENDBRANCH  14  25
BRANCH  16  29
HETATM   29  O3  UNL     1      15.227  17.042  26.897  1.00  0.00    -0.289 OA
ATOM     30  H3  UNL     1      15.322  17.042  25.952  1.00  0.00     0.244 HD
ENDBRANCH  16  29
TORSDOF 7
ENDMDL
MODEL 3
REMARK VINA RESULT: -5.594563438      5.221      7.421
REMARK  7 active torsions:
REMARK  status: ('A' for Active; 'I' for Inactive)
REMARK    1  A    between atoms: S1_2  and  C2_5 
REMARK    2  A    between atoms: C2_5  and  C3_6 
REMARK    3  A    between atoms: C3_6  and  N1_7 
REMARK    4  A    between atoms: N1_7  and  C4_8 
REMARK    5  A    between atoms: C7_21  and  N6_22 
REMARK    6  A    between atoms: N6_22  and  N7_23 
REMARK    7  A    between atoms: N8_27  and  O3_29 
ROOT
HETATM    1  C4  UNL     1      14.671  14.850  27.765  1.00  0.00     0.220 C 
HETATM    2  N2  UNL     1      15.710  15.806  27.402  1.00  0.00    -0.162 N 
ATOM      3  H2  UNL     1      16.259  15.565  26.578  1.00  0.00     0.187 HD
HETATM    4  C5  UNL     1      16.059  17.012  28.030  1.00  0.00     0.679 C 
HETATM    5  N3  UNL     1      16.885  17.753  27.382  1.00  0.00    -0.234 N 
ATOM      6  H31 UNL     1      17.139  18.629  27.838  1.00  0.00     0.174 HD
ATOM      7  H32 UNL     1      17.222  17.423  26.477  1.00  0.00     0.174 HD
HETATM    8  N4  UNL     1      15.581  17.479  29.314  1.00  0.00    -0.177 N 
ATOM      9  H4  UNL     1      16.179  18.130  29.822  1.00  0.00     0.185 HD
HETATM   10  C6  UNL     1      14.472  17.149  29.871  1.00  0.00     0.148 C 
HETATM   11  N5  UNL     1      13.809  17.478  31.108  1.00  0.00    -0.314 N 
ATOM     12  H5  UNL     1      13.611  18.323  31.644  1.00  0.00     0.175 HD
HETATM   13  S2  UNL     1      13.494  15.739  31.268  1.00  0.00    -0.009 SA
HETATM   14  C7  UNL     1      13.327  16.305  29.558  1.00  0.00     0.224 C 
HETATM   15  C8  UNL     1      13.465  15.298  28.514  1.00  0.00     0.136 C 
HETATM   16  N8  UNL     1      12.402  14.692  28.169  1.00  0.00    -0.265 N 
ATOM     17  H8  UNL     1      11.529  14.940  28.635  1.00  0.00     0.194 HD
ENDROOT
BRANCH   1  18
HETATM   18  N1  UNL     1      14.845  13.711  27.452  1.00  0.00    -0.400 NA
BRANCH  18  19
HETATM   19  C3  UNL     1      15.039  12.436  27.102  1.00  0.00     0.172 C 
BRANCH  19  20
HETATM   20  C2  UNL     1      16.113  11.663  27.864  1.00  0.00     0.199 C 
BRANCH  20  21
HETATM   21  S1  UNL     1      17.642  12.562  27.885  1.00  0.00     0.146 S 
HETATM   22  C1  UNL     1      19.023  11.462  28.168  1.00  0.00     0.161 C 
HETATM   23  O1  UNL     1      17.804  13.210  26.539  1.00  0.00    -0.228 OA
HETATM   24  O2  UNL     1      17.679  13.598  28.971  1.00  0.00    -0.228 OA
ENDBRANCH  20  21
ENDBRANCH  19  20
ENDBRANCH  18  19
ENDBRANCH   1  18
BRANCH  14  25
HETATM   25  N6  UNL     1      12.134  17.110  29.414  1.00  0.00    -0.110 NA
BRANCH  25  26
HETATM   26  N7  UNL     1      11.973  17.654  28.153  1.00  0.00    -0.346 N 
ATOM     27  H72 UNL     1      12.351  18.568  27.904  1.00  0.00     0.172 HD
ATOM     28  H71 UNL     1      11.449  17.060  27.511  1.00  0.00     0.172 HD
ENDBRANCH  25  26
ENDBRANCH  14  25
BRANCH  16  29
HETATM   29  O3  UNL     1      12.372  13.743  27.220  1.00  0.00    -0.289 OA
ATOM     30  H3  UNL     1      11.652  13.639  26.609  1.00  0.00     0.244 HD
ENDBRANCH  16  29
TORSDOF 7
ENDMDL
MODEL 4
REMARK VINA RESULT: -5.505278511      5.337      7.636
REMARK  7 active torsions:
REMARK  status: ('A' for Active; 'I' for Inactive)
REMARK    1  A    between atoms: S1_2  and  C2_5 
REMARK    2  A    between atoms: C2_5  and  C3_6 
REMARK    3  A    between atoms: C3_6  and  N1_7 
REMARK    4  A    between atoms: N1_7  and  C4_8 
REMARK    5  A    between atoms: C7_21  and  N6_22 
REMARK    6  A    between atoms: N6_22  and  N7_23 
REMARK    7  A    between atoms: N8_27  and  O3_29 
ROOT
HETATM    1  C4  UNL     1      14.378  14.441  27.682  1.00  0.00     0.220 C 
HETATM    2  N2  UNL     1      15.434  15.354  27.265  1.00  0.00    -0.162 N 
ATOM      3  H2  UNL     1      16.322  14.916  27.023  1.00  0.00     0.187 HD
HETATM    4  C5  UNL     1      15.399  16.753  27.152  1.00  0.00     0.679 C 
HETATM    5  N3  UNL     1      16.416  17.286  26.573  1.00  0.00    -0.234 N 
ATOM      6  H31 UNL     1      16.391  18.302  26.491  1.00  0.00     0.174 HD
ATOM      7  H32 UNL     1      17.160  16.671  26.243  1.00  0.00     0.174 HD
HETATM    8  N4  UNL     1      14.344  17.624  27.621  1.00  0.00    -0.177 N 
ATOM      9  H4  UNL     1      14.600  18.587  27.840  1.00  0.00     0.185 HD
HETATM   10  C6  UNL     1      13.113  17.296  27.788  1.00  0.00     0.148 C 
HETATM   11  N5  UNL     1      11.922  17.976  28.232  1.00  0.00    -0.314 N 
ATOM     12  H5  UNL     1      11.465  18.870  28.053  1.00  0.00     0.175 HD
HETATM   13  S2  UNL     1      11.618  16.544  29.235  1.00  0.00    -0.009 SA
HETATM   14  C7  UNL     1      12.290  16.108  27.613  1.00  0.00     0.224 C 
HETATM   15  C8  UNL     1      12.947  14.813  27.498  1.00  0.00     0.136 C 
HETATM   16  N8  UNL     1      12.205  13.826  27.193  1.00  0.00    -0.265 N 
ATOM     17  H8  UNL     1      11.209  13.995  27.051  1.00  0.00     0.194 HD
ENDROOT
BRANCH   1  18
HETATM   18  N1  UNL     1      14.713  13.411  28.183  1.00  0.00    -0.400 NA
BRANCH  18  19
HETATM   19  C3  UNL     1      15.089  12.258  28.744  1.00  0.00     0.172 C 
BRANCH  19  20
HETATM   20  C2  UNL     1      16.237  11.503  28.078  1.00  0.00     0.199 C 
BRANCH  20  21
HETATM   21  S1  UNL     1      17.670  12.538  27.929  1.00  0.00     0.146 S 
HETATM   22  C1  UNL     1      19.167  11.589  28.160  1.00  0.00     0.161 C 
HETATM   23  O1  UNL     1      17.668  13.114  26.541  1.00  0.00    -0.228 OA
HETATM   24  O2  UNL     1      17.687  13.638  28.951  1.00  0.00    -0.228 OA
ENDBRANCH  20  21
ENDBRANCH  19  20
ENDBRANCH  18  19
ENDBRANCH   1  18
BRANCH  14  25
HETATM   25  N6  UNL     1      11.297  16.331  26.586  1.00  0.00    -0.110 NA
BRANCH  25  26
HETATM   26  N7  UNL     1      11.758  16.107  25.301  1.00  0.00    -0.346 N 
ATOM     27  H72 UNL     1      11.333  15.414  24.686  1.00  0.00     0.172 HD
ATOM     28  H71 UNL     1      12.549  16.694  25.037  1.00  0.00     0.172 HD
ENDBRANCH  25  26
ENDBRANCH  14  25
BRANCH  16  29
HETATM   29  O3  UNL     1      12.668  12.574  27.049  1.00  0.00    -0.289 OA
ATOM     30  H3  UNL     1      12.258  11.818  27.452  1.00  0.00     0.244 HD
ENDBRANCH  16  29
TORSDOF 7
ENDMDL
MODEL 5
REMARK VINA RESULT: -5.463008979      3.196      6.226
REMARK  7 active torsions:
REMARK  status: ('A' for Active; 'I' for Inactive)
REMARK    1  A    between atoms: S1_2  and  C2_5 
REMARK    2  A    between atoms: C2_5  and  C3_6 
REMARK    3  A    between atoms: C3_6  and  N1_7 
REMARK    4  A    between atoms: N1_7  and  C4_8 
REMARK    5  A    between atoms: C7_21  and  N6_22 
REMARK    6  A    between atoms: N6_22  and  N7_23 
REMARK    7  A    between atoms: N8_27  and  O3_29 
ROOT
HETATM    1  C4  UNL     1      13.714  21.437  29.797  1.00  0.00     0.220 C 
HETATM    2  N2  UNL     1      14.975  21.943  29.270  1.00  0.00    -0.162 N 
ATOM      3  H2  UNL     1      15.355  21.432  28.474  1.00  0.00     0.187 HD
HETATM    4  C5  UNL     1      15.739  23.038  29.706  1.00  0.00     0.679 C 
HETATM    5  N3  UNL     1      16.709  23.377  28.933  1.00  0.00    -0.234 N 
ATOM      6  H31 UNL     1      17.263  24.172  29.250  1.00  0.00     0.174 HD
ATOM      7  H32 UNL     1      16.853  22.841  28.077  1.00  0.00     0.174 HD
HETATM    8  N4  UNL     1      15.533  23.797  30.920  1.00  0.00    -0.177 N 
ATOM      9  H4  UNL     1      16.344  24.275  31.312  1.00  0.00     0.185 HD
HETATM   10  C6  UNL     1      14.421  23.924  31.550  1.00  0.00     0.148 C 
HETATM   11  N5  UNL     1      13.992  24.609  32.744  1.00  0.00    -0.314 N 
ATOM     12  H5  UNL     1      14.117  25.533  33.157  1.00  0.00     0.175 HD
HETATM   13  S2  UNL     1      13.149  23.106  33.165  1.00  0.00    -0.009 SA
HETATM   14  C7  UNL     1      13.046  23.471  31.396  1.00  0.00     0.224 C 
HETATM   15  C8  UNL     1      12.775  22.349  30.507  1.00  0.00     0.136 C 
HETATM   16  N8  UNL     1      11.551  22.087  30.283  1.00  0.00    -0.265 N 
ATOM     17  H8  UNL     1      10.841  22.665  30.733  1.00  0.00     0.194 HD
ENDROOT
BRANCH   1  18
HETATM   18  N1  UNL     1      13.488  20.274  29.649  1.00  0.00    -0.400 NA
BRANCH  18  19
HETATM   19  C3  UNL     1      13.237  18.973  29.483  1.00  0.00     0.172 C 
BRANCH  19  20
HETATM   20  C2  UNL     1      13.928  18.274  28.314  1.00  0.00     0.199 C 
BRANCH  20  21
HETATM   21  S1  UNL     1      15.687  18.492  28.401  1.00  0.00     0.146 S 
HETATM   22  C1  UNL     1      16.536  16.995  27.919  1.00  0.00     0.161 C 
HETATM   23  O1  UNL     1      16.054  19.590  27.444  1.00  0.00    -0.228 OA
HETATM   24  O2  UNL     1      16.151  18.831  29.788  1.00  0.00    -0.228 OA
ENDBRANCH  20  21
ENDBRANCH  19  20
ENDBRANCH  18  19
ENDBRANCH   1  18
BRANCH  14  25
HETATM   25  N6  UNL     1      12.168  24.597  31.170  1.00  0.00    -0.110 NA
BRANCH  25  26
HETATM   26  N7  UNL     1      12.164  25.053  29.865  1.00  0.00    -0.346 N 
ATOM     27  H72 UNL     1      12.976  24.960  29.255  1.00  0.00     0.172 HD
ATOM     28  H71 UNL     1      11.284  25.482  29.579  1.00  0.00     0.172 HD
ENDBRANCH  25  26
ENDBRANCH  14  25
BRANCH  16  29
HETATM   29  O3  UNL     1      11.147  21.086  29.484  1.00  0.00    -0.289 OA
ATOM     30  H3  UNL     1      10.244  20.798  29.426  1.00  0.00     0.244 HD
ENDBRANCH  16  29
TORSDOF 7
ENDMDL
