MODEL 1
REMARK VINA RESULT: -5.239274592      0.000      0.000
REMARK  9 active torsions:
REMARK  status: ('A' for Active; 'I' for Inactive)
REMARK    1  A    between atoms: N2_5  and  N3_6 
REMARK    2  A    between atoms: C2_9  and  N4_10 
REMARK    3  A    between atoms: C2_9  and  C3_14 
REMARK       I    between atoms: C3_14  and  N5_16 
REMARK    4  A    between atoms: N5_16  and  N6_18 
REMARK    5  A    between atoms: N6_18  and  N7_19 
REMARK    6  A    between atoms: C5_24  and  S2_25 
REMARK    7  A    between atoms: S2_25  and  C6_26 
REMARK    8  A    between atoms: C6_26  and  C7_27 
REMARK    9  A    between atoms: C7_27  and  O2_28 
ROOT
HETATM    1  N1  UNL     1      24.296  33.456  23.089  1.00  0.00    -0.385 N 
ATOM      2  H11 UNL     1      24.357  32.540  23.534  1.00  0.00     0.157 HD
ATOM      3  H12 UNL     1      25.214  33.650  23.490  1.00  0.00     0.157 HD
HETATM    4  C1  UNL     1      23.500  34.140  22.347  1.00  0.00     0.136 C 
HETATM    5  N2  UNL     1      23.414  35.419  21.727  1.00  0.00    -0.236 N 
HETATM    6  C2  UNL     1      22.004  35.334  21.847  1.00  0.00     0.337 C 
HETATM    7  C4  UNL     1      22.171  33.860  21.767  1.00  0.00     0.258 C 
HETATM    8  S1  UNL     1      21.076  32.838  22.748  1.00  0.00    -0.063 SA
HETATM    9  C5  UNL     1      20.351  31.809  21.478  1.00  0.00     0.119 C 
HETATM   10  N8  UNL     1      20.877  31.955  20.360  1.00  0.00    -0.271 N 
ATOM     11  H8  UNL     1      20.553  31.424  19.551  1.00  0.00     0.179 HD
HETATM   12  S3  UNL     1      22.140  33.059  20.227  1.00  0.00     0.263 S 
HETATM   13  O3  UNL     1      23.426  32.256  20.037  1.00  0.00    -0.203 OA
HETATM   14  O4  UNL     1      22.001  33.983  19.050  1.00  0.00    -0.203 OA
ENDROOT
BRANCH   6  15
HETATM   15  N4  UNL     1      21.633  35.682  23.252  1.00  0.00    -0.038 N 
ATOM     16  H43 UNL     1      22.447  35.802  23.855  1.00  0.00     0.278 HD
ATOM     17  H42 UNL     1      21.258  36.627  23.337  1.00  0.00     0.278 HD
ATOM     18  H41 UNL     1      20.989  34.971  23.598  1.00  0.00     0.278 HD
ENDBRANCH   6  15
BRANCH   6  19
HETATM   19  C3  UNL     1      21.124  36.012  20.919  1.00  0.00     0.296 C 
HETATM   20  O1  UNL     1      19.884  36.058  21.236  1.00  0.00    -0.267 OA
HETATM   21  N5  UNL     1      21.506  36.627  19.712  1.00  0.00    -0.250 N 
ATOM     22  H5  UNL     1      22.484  36.618  19.420  1.00  0.00     0.187 HD
BRANCH  21  23
HETATM   23  N6  UNL     1      20.520  37.262  18.897  1.00  0.00    -0.027 NA
BRANCH  23  24
HETATM   24  N7  UNL     1      19.793  36.254  18.259  1.00  0.00    -0.329 N 
ATOM     25  H72 UNL     1      20.190  35.506  17.692  1.00  0.00     0.174 HD
ATOM     26  H71 UNL     1      18.807  36.411  18.467  1.00  0.00     0.174 HD
ENDBRANCH  23  24
ENDBRANCH  21  23
ENDBRANCH   6  19
BRANCH   5  27
HETATM   27  N3  UNL     1      24.342  36.317  21.230  1.00  0.00    -0.339 N 
ATOM     28  H32 UNL     1      24.604  36.701  20.322  1.00  0.00     0.177 HD
ATOM     29  H31 UNL     1      25.079  36.886  21.648  1.00  0.00     0.177 HD
ENDBRANCH   5  27
BRANCH   9  30
HETATM   30  S2  UNL     1      18.963  30.668  21.808  1.00  0.00    -0.102 SA
BRANCH  30  31
HETATM   31  C6  UNL     1      18.052  30.364  20.283  1.00  0.00     0.107 C 
BRANCH  31  32
HETATM   32  C7  UNL     1      16.811  31.192  20.173  1.00  0.00     0.174 C 
BRANCH  32  33
HETATM   33  O2  UNL     1      15.878  30.489  19.426  1.00  0.00    -0.400 OA
ATOM     34  H2  UNL     1      15.055  30.482  19.901  1.00  0.00     0.209 HD
ENDBRANCH  32  33
ENDBRANCH  31  32
ENDBRANCH  30  31
ENDBRANCH   9  30
TORSDOF 9
ENDMDL
MODEL 2
REMARK VINA RESULT: -5.176523120      2.897      3.993
REMARK  9 active torsions:
REMARK  status: ('A' for Active; 'I' for Inactive)
REMARK    1  A    between atoms: N2_5  and  N3_6 
REMARK    2  A    between atoms: C2_9  and  N4_10 
REMARK    3  A    between atoms: C2_9  and  C3_14 
REMARK       I    between atoms: C3_14  and  N5_16 
REMARK    4  A    between atoms: N5_16  and  N6_18 
REMARK    5  A    between atoms: N6_18  and  N7_19 
REMARK    6  A    between atoms: C5_24  and  S2_25 
REMARK    7  A    between atoms: S2_25  and  C6_26 
REMARK    8  A    between atoms: C6_26  and  C7_27 
REMARK    9  A    between atoms: C7_27  and  O2_28 
ROOT
HETATM    1  N1  UNL     1      17.498  32.572  23.066  1.00  0.00    -0.385 N 
ATOM      2  H11 UNL     1      17.511  31.592  23.349  1.00  0.00     0.157 HD
ATOM      3  H12 UNL     1      16.732  32.696  23.728  1.00  0.00     0.157 HD
HETATM    4  C1  UNL     1      18.111  33.378  22.274  1.00  0.00     0.136 C 
HETATM    5  N2  UNL     1      18.093  34.745  21.878  1.00  0.00    -0.236 N 
HETATM    6  C2  UNL     1      18.579  34.339  20.610  1.00  0.00     0.337 C 
HETATM    7  C4  UNL     1      19.220  33.199  21.314  1.00  0.00     0.258 C 
HETATM    8  S1  UNL     1      19.291  31.623  20.468  1.00  0.00    -0.063 SA
HETATM    9  C5  UNL     1      21.052  31.312  20.487  1.00  0.00     0.119 C 
HETATM   10  N8  UNL     1      21.693  32.130  21.171  1.00  0.00    -0.271 N 
ATOM     11  H8  UNL     1      22.707  32.061  21.262  1.00  0.00     0.179 HD
HETATM   12  S3  UNL     1      20.832  33.353  21.940  1.00  0.00     0.263 S 
HETATM   13  O3  UNL     1      20.838  33.042  23.435  1.00  0.00    -0.203 OA
HETATM   14  O4  UNL     1      21.441  34.715  21.756  1.00  0.00    -0.203 OA
ENDROOT
BRANCH   6  15
HETATM   15  N4  UNL     1      17.428  33.805  19.818  1.00  0.00    -0.038 N 
ATOM     16  H43 UNL     1      17.190  32.846  20.069  1.00  0.00     0.278 HD
ATOM     17  H42 UNL     1      16.541  34.239  20.073  1.00  0.00     0.278 HD
ATOM     18  H41 UNL     1      17.647  33.911  18.828  1.00  0.00     0.278 HD
ENDBRANCH   6  15
BRANCH   6  19
HETATM   19  C3  UNL     1      19.379  35.222  19.788  1.00  0.00     0.296 C 
HETATM   20  O1  UNL     1      19.844  34.728  18.702  1.00  0.00    -0.267 OA
HETATM   21  N5  UNL     1      19.683  36.567  20.070  1.00  0.00    -0.250 N 
ATOM     22  H5  UNL     1      19.331  37.004  20.921  1.00  0.00     0.187 HD
BRANCH  21  23
HETATM   23  N6  UNL     1      20.488  37.317  19.158  1.00  0.00    -0.027 NA
BRANCH  23  24
HETATM   24  N7  UNL     1      21.823  37.119  19.519  1.00  0.00    -0.329 N 
ATOM     25  H72 UNL     1      22.185  37.122  20.472  1.00  0.00     0.174 HD
ATOM     26  H71 UNL     1      22.354  36.976  18.660  1.00  0.00     0.174 HD
ENDBRANCH  23  24
ENDBRANCH  21  23
ENDBRANCH   6  19
BRANCH   5  27
HETATM   27  N3  UNL     1      17.746  35.929  22.505  1.00  0.00    -0.339 N 
ATOM     28  H32 UNL     1      16.947  36.301  23.017  1.00  0.00     0.177 HD
ATOM     29  H31 UNL     1      18.212  36.826  22.642  1.00  0.00     0.177 HD
ENDBRANCH   5  27
BRANCH   9  30
HETATM   30  S2  UNL     1      21.817  29.928  19.572  1.00  0.00    -0.102 SA
BRANCH  30  31
HETATM   31  C6  UNL     1      20.607  28.613  19.339  1.00  0.00     0.107 C 
BRANCH  31  32
HETATM   32  C7  UNL     1      20.640  28.031  17.961  1.00  0.00     0.174 C 
BRANCH  32  33
HETATM   33  O2  UNL     1      19.368  28.114  17.417  1.00  0.00    -0.400 OA
ATOM     34  H2  UNL     1      19.330  27.555  16.649  1.00  0.00     0.209 HD
ENDBRANCH  32  33
ENDBRANCH  31  32
ENDBRANCH  30  31
ENDBRANCH   9  30
TORSDOF 9
ENDMDL
MODEL 3
REMARK VINA RESULT: -5.152449171      2.944      4.401
REMARK  9 active torsions:
REMARK  status: ('A' for Active; 'I' for Inactive)
REMARK    1  A    between atoms: N2_5  and  N3_6 
REMARK    2  A    between atoms: C2_9  and  N4_10 
REMARK    3  A    between atoms: C2_9  and  C3_14 
REMARK       I    between atoms: C3_14  and  N5_16 
REMARK    4  A    between atoms: N5_16  and  N6_18 
REMARK    5  A    between atoms: N6_18  and  N7_19 
REMARK    6  A    between atoms: C5_24  and  S2_25 
REMARK    7  A    between atoms: S2_25  and  C6_26 
REMARK    8  A    between atoms: C6_26  and  C7_27 
REMARK    9  A    between atoms: C7_27  and  O2_28 
ROOT
HETATM    1  N1  UNL     1      18.050  31.963  23.209  1.00  0.00    -0.385 N 
ATOM      2  H11 UNL     1      18.358  31.003  23.367  1.00  0.00     0.157 HD
ATOM      3  H12 UNL     1      17.308  31.777  23.885  1.00  0.00     0.157 HD
HETATM    4  C1  UNL     1      18.370  33.001  22.522  1.00  0.00     0.136 C 
HETATM    5  N2  UNL     1      17.939  34.340  22.301  1.00  0.00    -0.236 N 
HETATM    6  C2  UNL     1      18.470  34.247  20.990  1.00  0.00     0.337 C 
HETATM    7  C4  UNL     1      19.443  33.271  21.544  1.00  0.00     0.258 C 
HETATM    8  S1  UNL     1      19.935  31.898  20.506  1.00  0.00    -0.063 SA
HETATM    9  C5  UNL     1      21.709  32.117  20.479  1.00  0.00     0.119 C 
HETATM   10  N8  UNL     1      22.112  33.000  21.258  1.00  0.00    -0.271 N 
ATOM     11  H8  UNL     1      23.105  33.220  21.335  1.00  0.00     0.179 HD
HETATM   12  S3  UNL     1      20.964  33.816  22.177  1.00  0.00     0.263 S 
HETATM   13  O3  UNL     1      21.121  33.344  23.622  1.00  0.00    -0.203 OA
HETATM   14  O4  UNL     1      21.144  35.308  22.163  1.00  0.00    -0.203 OA
ENDROOT
BRANCH   6  15
HETATM   15  N4  UNL     1      17.494  33.498  20.142  1.00  0.00    -0.038 N 
ATOM     16  H43 UNL     1      16.833  32.951  20.694  1.00  0.00     0.278 HD
ATOM     17  H42 UNL     1      16.818  34.111  19.686  1.00  0.00     0.278 HD
ATOM     18  H41 UNL     1      18.019  32.928  19.479  1.00  0.00     0.278 HD
ENDBRANCH   6  15
BRANCH   6  19
HETATM   19  C3  UNL     1      18.945  35.418  20.283  1.00  0.00     0.296 C 
HETATM   20  O1  UNL     1      18.619  36.555  20.774  1.00  0.00    -0.267 OA
HETATM   21  N5  UNL     1      19.732  35.420  19.116  1.00  0.00    -0.250 N 
ATOM     22  H5  UNL     1      20.019  34.538  18.691  1.00  0.00     0.187 HD
BRANCH  21  23
HETATM   23  N6  UNL     1      20.127  36.661  18.530  1.00  0.00    -0.027 NA
BRANCH  23  24
HETATM   24  N7  UNL     1      21.223  37.136  19.255  1.00  0.00    -0.329 N 
ATOM     25  H72 UNL     1      21.312  38.072  19.648  1.00  0.00     0.174 HD
ATOM     26  H71 UNL     1      21.902  36.377  19.313  1.00  0.00     0.174 HD
ENDBRANCH  23  24
ENDBRANCH  21  23
ENDBRANCH   6  19
BRANCH   5  27
HETATM   27  N3  UNL     1      17.289  35.286  23.073  1.00  0.00    -0.339 N 
ATOM     28  H32 UNL     1      17.409  36.270  23.313  1.00  0.00     0.177 HD
ATOM     29  H31 UNL     1      16.457  35.276  23.663  1.00  0.00     0.177 HD
ENDBRANCH   5  27
BRANCH   9  30
HETATM   30  S2  UNL     1      22.806  31.137  19.395  1.00  0.00    -0.102 SA
BRANCH  30  31
HETATM   31  C6  UNL     1      21.940  29.660  18.831  1.00  0.00     0.107 C 
BRANCH  31  32
HETATM   32  C7  UNL     1      22.761  28.824  17.901  1.00  0.00     0.174 C 
BRANCH  32  33
HETATM   33  O2  UNL     1      23.577  29.663  17.160  1.00  0.00    -0.400 OA
ATOM     34  H2  UNL     1      23.123  29.897  16.359  1.00  0.00     0.209 HD
ENDBRANCH  32  33
ENDBRANCH  31  32
ENDBRANCH  30  31
ENDBRANCH   9  30
TORSDOF 9
ENDMDL
MODEL 4
REMARK VINA RESULT: -5.053078798      3.883      4.545
REMARK  9 active torsions:
REMARK  status: ('A' for Active; 'I' for Inactive)
REMARK    1  A    between atoms: N2_5  and  N3_6 
REMARK    2  A    between atoms: C2_9  and  N4_10 
REMARK    3  A    between atoms: C2_9  and  C3_14 
REMARK       I    between atoms: C3_14  and  N5_16 
REMARK    4  A    between atoms: N5_16  and  N6_18 
REMARK    5  A    between atoms: N6_18  and  N7_19 
REMARK    6  A    between atoms: C5_24  and  S2_25 
REMARK    7  A    between atoms: S2_25  and  C6_26 
REMARK    8  A    between atoms: C6_26  and  C7_27 
REMARK    9  A    between atoms: C7_27  and  O2_28 
ROOT
HETATM    1  N1  UNL     1      19.866  31.564  23.328  1.00  0.00    -0.385 N 
ATOM      2  H11 UNL     1      19.252  31.060  23.967  1.00  0.00     0.157 HD
ATOM      3  H12 UNL     1      20.567  30.851  23.528  1.00  0.00     0.157 HD
HETATM    4  C1  UNL     1      19.862  32.602  22.569  1.00  0.00     0.136 C 
HETATM    5  N2  UNL     1      20.719  33.306  21.677  1.00  0.00    -0.236 N 
HETATM    6  C2  UNL     1      20.030  34.495  22.023  1.00  0.00     0.337 C 
HETATM    7  C4  UNL     1      18.847  33.635  22.280  1.00  0.00     0.258 C 
HETATM    8  S1  UNL     1      17.761  34.083  23.631  1.00  0.00    -0.063 SA
HETATM    9  C5  UNL     1      16.200  34.234  22.772  1.00  0.00     0.119 C 
HETATM   10  N8  UNL     1      16.249  33.860  21.586  1.00  0.00    -0.271 N 
ATOM     11  H8  UNL     1      15.423  33.896  20.988  1.00  0.00     0.179 HD
HETATM   12  S3  UNL     1      17.721  33.293  21.003  1.00  0.00     0.263 S 
HETATM   13  O3  UNL     1      17.587  31.782  20.823  1.00  0.00    -0.203 OA
HETATM   14  O4  UNL     1      18.098  33.879  19.670  1.00  0.00    -0.203 OA
ENDROOT
BRANCH   6  15
HETATM   15  N4  UNL     1      20.551  34.970  23.341  1.00  0.00    -0.038 N 
ATOM     16  H43 UNL     1      20.742  34.205  23.988  1.00  0.00     0.278 HD
ATOM     17  H42 UNL     1      21.500  35.338  23.279  1.00  0.00     0.278 HD
ATOM     18  H41 UNL     1      19.890  35.649  23.719  1.00  0.00     0.278 HD
ENDBRANCH   6  15
BRANCH   6  19
HETATM   19  C3  UNL     1      19.929  35.606  21.101  1.00  0.00     0.296 C 
HETATM   20  O1  UNL     1      19.115  36.542  21.419  1.00  0.00    -0.267 OA
HETATM   21  N5  UNL     1      20.644  35.753  19.897  1.00  0.00    -0.250 N 
ATOM     22  H5  UNL     1      21.307  35.034  19.605  1.00  0.00     0.187 HD
BRANCH  21  23
HETATM   23  N6  UNL     1      20.438  36.911  19.088  1.00  0.00    -0.027 NA
BRANCH  23  24
HETATM   24  N7  UNL     1      19.243  36.726  18.389  1.00  0.00    -0.329 N 
ATOM     25  H72 UNL     1      18.654  35.895  18.432  1.00  0.00     0.174 HD
ATOM     26  H71 UNL     1      19.078  37.568  17.837  1.00  0.00     0.174 HD
ENDBRANCH  23  24
ENDBRANCH  21  23
ENDBRANCH   6  19
BRANCH   5  27
HETATM   27  N3  UNL     1      21.761  32.937  20.845  1.00  0.00    -0.339 N 
ATOM     28  H32 UNL     1      21.942  32.894  19.842  1.00  0.00     0.177 HD
ATOM     29  H31 UNL     1      22.703  32.577  20.998  1.00  0.00     0.177 HD
ENDBRANCH   5  27
BRANCH   9  30
HETATM   30  S2  UNL     1      14.695  34.889  23.572  1.00  0.00    -0.102 SA
BRANCH  30  31
HETATM   31  C6  UNL     1      15.025  35.206  25.316  1.00  0.00     0.107 C 
BRANCH  31  32
HETATM   32  C7  UNL     1      13.856  34.894  26.195  1.00  0.00     0.174 C 
BRANCH  32  33
HETATM   33  O2  UNL     1      12.707  35.375  25.588  1.00  0.00    -0.400 OA
ATOM     34  H2  UNL     1      12.244  34.645  25.195  1.00  0.00     0.209 HD
ENDBRANCH  32  33
ENDBRANCH  31  32
ENDBRANCH  30  31
ENDBRANCH   9  30
TORSDOF 9
ENDMDL
MODEL 5
REMARK VINA RESULT: -5.045241405      2.812      5.775
REMARK  9 active torsions:
REMARK  status: ('A' for Active; 'I' for Inactive)
REMARK    1  A    between atoms: N2_5  and  N3_6 
REMARK    2  A    between atoms: C2_9  and  N4_10 
REMARK    3  A    between atoms: C2_9  and  C3_14 
REMARK       I    between atoms: C3_14  and  N5_16 
REMARK    4  A    between atoms: N5_16  and  N6_18 
REMARK    5  A    between atoms: N6_18  and  N7_19 
REMARK    6  A    between atoms: C5_24  and  S2_25 
REMARK    7  A    between atoms: S2_25  and  C6_26 
REMARK    8  A    between atoms: C6_26  and  C7_27 
REMARK    9  A    between atoms: C7_27  and  O2_28 
ROOT
HETATM    1  N1  UNL     1      18.135  36.051  21.735  1.00  0.00    -0.385 N 
ATOM      2  H11 UNL     1      18.212  36.970  22.170  1.00  0.00     0.157 HD
ATOM      3  H12 UNL     1      17.124  36.162  21.808  1.00  0.00     0.157 HD
HETATM    4  C1  UNL     1      18.884  35.117  21.267  1.00  0.00     0.136 C 
HETATM    5  N2  UNL     1      18.777  33.833  20.660  1.00  0.00    -0.236 N 
HETATM    6  C2  UNL     1      20.031  33.506  21.236  1.00  0.00     0.337 C 
HETATM    7  C4  UNL     1      20.348  34.955  21.162  1.00  0.00     0.258 C 
HETATM    8  S1  UNL     1      21.323  35.668  22.483  1.00  0.00    -0.063 SA
HETATM    9  C5  UNL     1      22.690  36.355  21.558  1.00  0.00     0.119 C 
HETATM   10  N8  UNL     1      22.533  36.299  20.326  1.00  0.00    -0.271 N 
ATOM     11  H8  UNL     1      23.243  36.659  19.687  1.00  0.00     0.179 HD
HETATM   12  S3  UNL     1      21.111  35.612  19.748  1.00  0.00     0.263 S 
HETATM   13  O3  UNL     1      20.258  36.745  19.180  1.00  0.00    -0.203 OA
HETATM   14  O4  UNL     1      21.337  34.616  18.645  1.00  0.00    -0.203 OA
ENDROOT
BRANCH   6  15
HETATM   15  N4  UNL     1      19.808  33.153  22.671  1.00  0.00    -0.038 N 
ATOM     16  H43 UNL     1      19.406  33.922  23.207  1.00  0.00     0.278 HD
ATOM     17  H42 UNL     1      19.048  32.485  22.798  1.00  0.00     0.278 HD
ATOM     18  H41 UNL     1      20.691  32.822  23.058  1.00  0.00     0.278 HD
ENDBRANCH   6  15
BRANCH   6  19
HETATM   19  C3  UNL     1      20.916  32.541  20.619  1.00  0.00     0.296 C 
HETATM   20  O1  UNL     1      20.366  31.647  19.885  1.00  0.00    -0.267 OA
HETATM   21  N5  UNL     1      22.317  32.499  20.748  1.00  0.00    -0.250 N 
ATOM     22  H5  UNL     1      22.799  33.193  21.319  1.00  0.00     0.187 HD
BRANCH  21  23
HETATM   23  N6  UNL     1      23.060  31.482  20.075  1.00  0.00    -0.027 NA
BRANCH  23  24
HETATM   24  N7  UNL     1      23.408  31.981  18.817  1.00  0.00    -0.329 N 
ATOM     25  H72 UNL     1      22.794  32.512  18.200  1.00  0.00     0.174 HD
ATOM     26  H71 UNL     1      24.377  31.715  18.640  1.00  0.00     0.174 HD
ENDBRANCH  23  24
ENDBRANCH  21  23
ENDBRANCH   6  19
BRANCH   5  27
HETATM   27  N3  UNL     1      17.834  33.219  19.855  1.00  0.00    -0.339 N 
ATOM     28  H32 UNL     1      17.658  33.107  18.857  1.00  0.00     0.177 HD
ATOM     29  H31 UNL     1      16.991  32.673  20.033  1.00  0.00     0.177 HD
ENDBRANCH   5  27
BRANCH   9  30
HETATM   30  S2  UNL     1      24.173  37.053  22.366  1.00  0.00    -0.102 SA
BRANCH  30  31
HETATM   31  C6  UNL     1      25.581  35.961  22.095  1.00  0.00     0.107 C 
BRANCH  31  32
HETATM   32  C7  UNL     1      25.206  34.514  22.110  1.00  0.00     0.174 C 
BRANCH  32  33
HETATM   33  O2  UNL     1      24.888  34.127  20.818  1.00  0.00    -0.400 OA
ATOM     34  H2  UNL     1      25.646  34.275  20.263  1.00  0.00     0.209 HD
ENDBRANCH  32  33
ENDBRANCH  31  32
ENDBRANCH  30  31
ENDBRANCH   9  30
TORSDOF 9
ENDMDL
