MODEL 1
REMARK VINA RESULT: -6.824689957      0.000      0.000
REMARK  9 active torsions:
REMARK  status: ('A' for Active; 'I' for Inactive)
REMARK    1  A    between atoms: N1_2  and  C2_4 
REMARK    2  A    between atoms: C3_7  and  N3_8 
REMARK    3  A    between atoms: N3_8  and  C5_10 
REMARK    4  A    between atoms: C6_13  and  N5_14 
REMARK    5  A    between atoms: N8_22  and  C8_23 
REMARK    6  A    between atoms: C8_23  and  O1_25 
REMARK    7  A    between atoms: C11_32  and  C12_33 
REMARK    8  A    between atoms: C12_33  and  N11_34 
REMARK    9  A    between atoms: C12_33  and  N12_38 
ROOT
HETATM    1  N3  UNL     1      20.547  31.630  20.967  1.00  0.00    -0.018 N 
HETATM    2  C4  UNL     1      20.533  31.237  22.377  1.00  0.00     0.195 C 
ENDROOT
BRANCH   1   3
HETATM    3  C3  UNL     1      19.703  32.697  20.576  1.00  0.00     0.714 A 
HETATM    4  N2  UNL     1      18.385  32.507  20.498  1.00  0.00    -0.021 N 
HETATM    5  C2  UNL     1      17.560  33.489  20.123  1.00  0.00     0.693 A 
ATOM      6  H2  UNL     1      17.998  31.592  20.729  1.00  0.00     0.203 HD
HETATM    7  N13 UNL     1      18.095  34.688  19.824  1.00  0.00    -0.176 N 
HETATM    8  C11 UNL     1      19.423  34.916  19.891  1.00  0.00     0.170 A 
ATOM      9  H13 UNL     1      17.477  35.448  19.537  1.00  0.00     0.185 HD
HETATM   10  N10 UNL     1      20.207  33.916  20.266  1.00  0.00    -0.175 N 
ATOM     11  H10 UNL     1      21.215  34.068  20.324  1.00  0.00     0.185 HD
BRANCH   5  12
HETATM   12  N1  UNL     1      16.292  33.278  20.061  1.00  0.00    -0.230 N 
HETATM   13  C1  UNL     1      15.424  33.710  21.132  1.00  0.00     0.165 C 
ATOM     14  H1  UNL     1      15.898  32.802  19.249  1.00  0.00     0.177 HD
ENDBRANCH   5  12
BRANCH   8  15
HETATM   15  C12 UNL     1      19.942  36.273  19.539  1.00  0.00     0.445 C 
BRANCH  15  16
HETATM   16  N11 UNL     1      19.295  36.783  18.335  1.00  0.00    -0.043 N 
ATOM     17 3H11 UNL     1      19.360  36.119  17.563  1.00  0.00     0.277 HD
ATOM     18 2H11 UNL     1      18.280  36.805  18.435  1.00  0.00     0.277 HD
ATOM     19 1H11 UNL     1      19.669  37.697  18.079  1.00  0.00     0.277 HD
ENDBRANCH  15  16
BRANCH  15  20
HETATM   20  N12 UNL     1      21.352  36.143  19.203  1.00  0.00    -0.043 N 
ATOM     21 3H12 UNL     1      21.965  36.330  19.996  1.00  0.00     0.277 HD
ATOM     22 2H12 UNL     1      21.631  35.176  19.039  1.00  0.00     0.277 HD
ATOM     23 1H12 UNL     1      21.544  36.749  18.405  1.00  0.00     0.277 HD
ENDBRANCH  15  20
ENDBRANCH   8  15
ENDBRANCH   1   3
BRANCH   1  24
HETATM   24  C5  UNL     1      21.410  30.935  20.096  1.00  0.00     0.702 A 
HETATM   25  N4  UNL     1      22.675  31.370  19.965  1.00  0.00    -0.174 N 
HETATM   26  C6  UNL     1      23.527  30.749  19.132  1.00  0.00     0.147 A 
ATOM     27  H4  UNL     1      22.991  32.177  20.502  1.00  0.00     0.186 HD
HETATM   28  C7  UNL     1      23.038  29.665  18.436  1.00  0.00     0.140 A 
HETATM   29  N6  UNL     1      23.596  28.827  17.533  1.00  0.00    -0.279 N 
HETATM   30  C10 UNL     1      21.728  29.220  18.574  1.00  0.00     0.173 A 
HETATM   31  N7  UNL     1      22.701  27.953  17.159  1.00  0.00    -0.236 N 
ATOM     32  H6  UNL     1      24.558  28.871  17.200  1.00  0.00     0.189 HD
HETATM   33  N8  UNL     1      21.528  28.154  17.776  1.00  0.00    -0.230 N 
ATOM     34  H7  UNL     1      22.873  27.210  16.482  1.00  0.00     0.208 HD
HETATM   35  N9  UNL     1      20.927  29.865  19.408  1.00  0.00    -0.172 N 
ATOM     36  H9  UNL     1      19.961  29.564  19.533  1.00  0.00     0.186 HD
BRANCH  26  37
HETATM   37  N5  UNL     1      24.751  31.118  18.971  1.00  0.00    -0.383 N 
ATOM     38  H52 UNL     1      25.012  32.093  19.116  1.00  0.00     0.157 HD
ATOM     39  H51 UNL     1      25.496  30.477  18.696  1.00  0.00     0.157 HD
ENDBRANCH  26  37
BRANCH  33  40
HETATM   40  C8  UNL     1      20.340  27.361  17.573  1.00  0.00     0.240 C 
HETATM   41  C9  UNL     1      20.463  26.384  16.426  1.00  0.00     0.065 C 
BRANCH  40  42
HETATM   42  O1  UNL     1      19.175  28.112  17.520  1.00  0.00    -0.375 OA
ATOM     43  H1  UNL     1      18.511  27.742  16.950  1.00  0.00     0.212 HD
ENDBRANCH  40  42
ENDBRANCH  33  40
ENDBRANCH   1  24
TORSDOF 9
ENDMDL
MODEL 2
REMARK VINA RESULT: -6.750360417      0.910      2.857
REMARK  9 active torsions:
REMARK  status: ('A' for Active; 'I' for Inactive)
REMARK    1  A    between atoms: N1_2  and  C2_4 
REMARK    2  A    between atoms: C3_7  and  N3_8 
REMARK    3  A    between atoms: N3_8  and  C5_10 
REMARK    4  A    between atoms: C6_13  and  N5_14 
REMARK    5  A    between atoms: N8_22  and  C8_23 
REMARK    6  A    between atoms: C8_23  and  O1_25 
REMARK    7  A    between atoms: C11_32  and  C12_33 
REMARK    8  A    between atoms: C12_33  and  N11_34 
REMARK    9  A    between atoms: C12_33  and  N12_38 
ROOT
HETATM    1  N3  UNL     1      20.385  31.843  21.058  1.00  0.00    -0.018 N 
HETATM    2  C4  UNL     1      20.643  31.795  22.497  1.00  0.00     0.195 C 
ENDROOT
BRANCH   1   3
HETATM    3  C3  UNL     1      19.267  32.592  20.617  1.00  0.00     0.714 A 
HETATM    4  N2  UNL     1      19.425  33.859  20.233  1.00  0.00    -0.021 N 
HETATM    5  C2  UNL     1      18.390  34.596  19.819  1.00  0.00     0.693 A 
ATOM      6  H2  UNL     1      20.356  34.275  20.256  1.00  0.00     0.203 HD
HETATM    7  N13 UNL     1      17.171  34.025  19.798  1.00  0.00    -0.176 N 
HETATM    8  C11 UNL     1      16.974  32.746  20.180  1.00  0.00     0.170 A 
ATOM      9  H13 UNL     1      16.372  34.576  19.484  1.00  0.00     0.185 HD
HETATM   10  N10 UNL     1      18.025  32.048  20.583  1.00  0.00    -0.175 N 
ATOM     11  H10 UNL     1      17.898  31.079  20.875  1.00  0.00     0.185 HD
BRANCH   5  12
HETATM   12  N1  UNL     1      18.574  35.816  19.451  1.00  0.00    -0.230 N 
HETATM   13  C1  UNL     1      19.892  36.280  19.083  1.00  0.00     0.165 C 
ATOM     14  H1  UNL     1      17.783  36.460  19.420  1.00  0.00     0.177 HD
ENDBRANCH   5  12
BRANCH   8  15
HETATM   15  C12 UNL     1      15.590  32.183  20.131  1.00  0.00     0.445 C 
BRANCH  15  16
HETATM   16  N11 UNL     1      14.698  32.913  21.025  1.00  0.00    -0.043 N 
ATOM     17 3H11 UNL     1      15.188  33.245  21.857  1.00  0.00     0.277 HD
ATOM     18 2H11 UNL     1      14.430  33.816  20.633  1.00  0.00     0.277 HD
ATOM     19 1H11 UNL     1      13.883  32.350  21.267  1.00  0.00     0.277 HD
ENDBRANCH  15  16
BRANCH  15  20
HETATM   20  N12 UNL     1      15.638  30.823  20.648  1.00  0.00    -0.043 N 
ATOM     21 3H12 UNL     1      16.504  30.341  20.408  1.00  0.00     0.277 HD
ATOM     22 2H12 UNL     1      15.740  30.791  21.662  1.00  0.00     0.277 HD
ATOM     23 1H12 UNL     1      14.808  30.331  20.319  1.00  0.00     0.277 HD
ENDBRANCH  15  20
ENDBRANCH   8  15
ENDBRANCH   1   3
BRANCH   1  24
HETATM   24  C5  UNL     1      21.273  31.159  20.204  1.00  0.00     0.702 A 
HETATM   25  N4  UNL     1      22.526  31.626  20.073  1.00  0.00    -0.174 N 
HETATM   26  C6  UNL     1      23.400  31.015  19.257  1.00  0.00     0.147 A 
ATOM     27  H4  UNL     1      22.816  32.451  20.599  1.00  0.00     0.186 HD
HETATM   28  C7  UNL     1      22.946  29.907  18.576  1.00  0.00     0.140 A 
HETATM   29  N6  UNL     1      23.533  29.070  17.691  1.00  0.00    -0.279 N 
HETATM   30  C10 UNL     1      21.648  29.428  18.713  1.00  0.00     0.173 A 
HETATM   31  N7  UNL     1      22.666  28.165  17.327  1.00  0.00    -0.236 N 
ATOM     32  H6  UNL     1      24.496  29.134  17.363  1.00  0.00     0.189 HD
HETATM   33  N8  UNL     1      21.483  28.343  17.933  1.00  0.00    -0.230 N 
ATOM     34  H7  UNL     1      22.863  27.415  16.664  1.00  0.00     0.208 HD
HETATM   35  N9  UNL     1      20.824  30.064  19.532  1.00  0.00    -0.172 N 
ATOM     36  H9  UNL     1      19.866  29.738  19.656  1.00  0.00     0.186 HD
BRANCH  26  37
HETATM   37  N5  UNL     1      24.614  31.415  19.097  1.00  0.00    -0.383 N 
ATOM     38  H52 UNL     1      25.353  31.056  19.702  1.00  0.00     0.157 HD
ATOM     39  H51 UNL     1      24.891  32.091  18.384  1.00  0.00     0.157 HD
ENDBRANCH  26  37
BRANCH  33  40
HETATM   40  C8  UNL     1      20.319  27.513  17.736  1.00  0.00     0.240 C 
HETATM   41  C9  UNL     1      20.488  26.500  16.628  1.00  0.00     0.065 C 
BRANCH  40  42
HETATM   42  O1  UNL     1      19.137  28.233  17.634  1.00  0.00    -0.375 OA
ATOM     43  H1  UNL     1      19.025  28.878  18.322  1.00  0.00     0.212 HD
ENDBRANCH  40  42
ENDBRANCH  33  40
ENDBRANCH   1  24
TORSDOF 9
ENDMDL
MODEL 3
REMARK VINA RESULT: -6.704667088      5.404      7.118
REMARK  9 active torsions:
REMARK  status: ('A' for Active; 'I' for Inactive)
REMARK    1  A    between atoms: N1_2  and  C2_4 
REMARK    2  A    between atoms: C3_7  and  N3_8 
REMARK    3  A    between atoms: N3_8  and  C5_10 
REMARK    4  A    between atoms: C6_13  and  N5_14 
REMARK    5  A    between atoms: N8_22  and  C8_23 
REMARK    6  A    between atoms: C8_23  and  O1_25 
REMARK    7  A    between atoms: C11_32  and  C12_33 
REMARK    8  A    between atoms: C12_33  and  N11_34 
REMARK    9  A    between atoms: C12_33  and  N12_38 
ROOT
HETATM    1  N3  UNL     1      18.947  34.473  22.418  1.00  0.00    -0.018 N 
HETATM    2  C4  UNL     1      19.601  33.828  23.557  1.00  0.00     0.195 C 
ENDROOT
BRANCH   1   3
HETATM    3  C3  UNL     1      17.574  34.197  22.208  1.00  0.00     0.714 A 
HETATM    4  N2  UNL     1      16.648  34.884  22.879  1.00  0.00    -0.021 N 
HETATM    5  C2  UNL     1      15.345  34.643  22.711  1.00  0.00     0.693 A 
ATOM      6  H2  UNL     1      16.941  35.608  23.534  1.00  0.00     0.203 HD
HETATM    7  N13 UNL     1      14.983  33.681  21.841  1.00  0.00    -0.176 N 
HETATM    8  C11 UNL     1      15.892  32.967  21.146  1.00  0.00     0.170 A 
ATOM      9  H13 UNL     1      13.991  33.488  21.702  1.00  0.00     0.185 HD
HETATM   10  N10 UNL     1      17.175  33.236  21.340  1.00  0.00    -0.175 N 
ATOM     11  H10 UNL     1      17.878  32.707  20.824  1.00  0.00     0.185 HD
BRANCH   5  12
HETATM   12  N1  UNL     1      14.473  35.324  23.370  1.00  0.00    -0.230 N 
HETATM   13  C1  UNL     1      14.404  35.228  24.810  1.00  0.00     0.165 C 
ATOM     14  H1  UNL     1      13.827  35.936  22.871  1.00  0.00     0.177 HD
ENDBRANCH   5  12
BRANCH   8  15
HETATM   15  C12 UNL     1      15.412  31.913  20.200  1.00  0.00     0.445 C 
BRANCH  15  16
HETATM   16  N11 UNL     1      15.728  30.580  20.700  1.00  0.00    -0.043 N 
ATOM     17 3H11 UNL     1      15.884  29.920  19.938  1.00  0.00     0.277 HD
ATOM     18 2H11 UNL     1      16.655  30.548  21.125  1.00  0.00     0.277 HD
ATOM     19 1H11 UNL     1      15.007  30.251  21.342  1.00  0.00     0.277 HD
ENDBRANCH  15  16
BRANCH  15  20
HETATM   20  N12 UNL     1      16.155  32.053  18.956  1.00  0.00    -0.043 N 
ATOM     21 3H12 UNL     1      17.024  32.574  19.072  1.00  0.00     0.277 HD
ATOM     22 2H12 UNL     1      16.564  31.174  18.640  1.00  0.00     0.277 HD
ATOM     23 1H12 UNL     1      15.534  32.471  18.263  1.00  0.00     0.277 HD
ENDBRANCH  15  20
ENDBRANCH   8  15
ENDBRANCH   1   3
BRANCH   1  24
HETATM   24  C5  UNL     1      19.718  35.338  21.615  1.00  0.00     0.702 A 
HETATM   25  N4  UNL     1      19.265  35.647  20.388  1.00  0.00    -0.174 N 
HETATM   26  C6  UNL     1      19.975  36.454  19.582  1.00  0.00     0.147 A 
ATOM     27  H4  UNL     1      18.376  35.266  20.065  1.00  0.00     0.186 HD
HETATM   28  C7  UNL     1      21.169  36.934  20.077  1.00  0.00     0.140 A 
HETATM   29  N6  UNL     1      22.118  37.744  19.556  1.00  0.00    -0.279 N 
HETATM   30  C10 UNL     1      21.633  36.611  21.347  1.00  0.00     0.173 A 
HETATM   31  N7  UNL     1      23.071  37.896  20.434  1.00  0.00    -0.236 N 
ATOM     32  H6  UNL     1      22.092  38.167  18.629  1.00  0.00     0.189 HD
HETATM   33  N8  UNL     1      22.817  37.215  21.561  1.00  0.00    -0.230 N 
ATOM     34  H7  UNL     1      23.905  38.463  20.283  1.00  0.00     0.208 HD
HETATM   35  N9  UNL     1      20.895  35.813  22.104  1.00  0.00    -0.172 N 
ATOM     36  H9  UNL     1      21.207  35.557  23.041  1.00  0.00     0.186 HD
BRANCH  26  37
HETATM   37  N5  UNL     1      19.589  36.787  18.400  1.00  0.00    -0.383 N 
ATOM     38  H52 UNL     1      19.881  36.234  17.594  1.00  0.00     0.157 HD
ATOM     39  H51 UNL     1      18.995  37.596  18.213  1.00  0.00     0.157 HD
ENDBRANCH  26  37
BRANCH  33  40
HETATM   40  C8  UNL     1      23.681  37.175  22.716  1.00  0.00     0.240 C 
HETATM   41  C9  UNL     1      24.716  36.076  22.651  1.00  0.00     0.065 C 
BRANCH  40  42
HETATM   42  O1  UNL     1      22.994  37.199  23.922  1.00  0.00    -0.375 OA
ATOM     43  H1  UNL     1      22.470  37.982  24.044  1.00  0.00     0.212 HD
ENDBRANCH  40  42
ENDBRANCH  33  40
ENDBRANCH   1  24
TORSDOF 9
ENDMDL
MODEL 4
REMARK VINA RESULT: -6.626789339      3.770      8.129
REMARK  9 active torsions:
REMARK  status: ('A' for Active; 'I' for Inactive)
REMARK    1  A    between atoms: N1_2  and  C2_4 
REMARK    2  A    between atoms: C3_7  and  N3_8 
REMARK    3  A    between atoms: N3_8  and  C5_10 
REMARK    4  A    between atoms: C6_13  and  N5_14 
REMARK    5  A    between atoms: N8_22  and  C8_23 
REMARK    6  A    between atoms: C8_23  and  O1_25 
REMARK    7  A    between atoms: C11_32  and  C12_33 
REMARK    8  A    between atoms: C12_33  and  N11_34 
REMARK    9  A    between atoms: C12_33  and  N12_38 
ROOT
HETATM    1  N3  UNL     1      18.228  32.539  22.000  1.00  0.00    -0.018 N 
HETATM    2  C4  UNL     1      18.254  31.093  22.225  1.00  0.00     0.195 C 
ENDROOT
BRANCH   1   3
HETATM    3  C3  UNL     1      19.292  33.107  21.258  1.00  0.00     0.714 A 
HETATM    4  N2  UNL     1      20.368  32.372  20.970  1.00  0.00    -0.021 N 
HETATM    5  C2  UNL     1      21.393  32.879  20.280  1.00  0.00     0.693 A 
ATOM      6  H2  UNL     1      20.409  31.403  21.285  1.00  0.00     0.203 HD
HETATM    7  N13 UNL     1      21.315  34.161  19.875  1.00  0.00    -0.176 N 
HETATM    8  C11 UNL     1      20.243  34.933  20.149  1.00  0.00     0.170 A 
ATOM      9  H13 UNL     1      22.090  34.560  19.346  1.00  0.00     0.185 HD
HETATM   10  N10 UNL     1      19.247  34.394  20.836  1.00  0.00    -0.175 N 
ATOM     11  H10 UNL     1      18.427  34.961  21.052  1.00  0.00     0.185 HD
BRANCH   5  12
HETATM   12  N1  UNL     1      22.417  32.145  20.014  1.00  0.00    -0.230 N 
HETATM   13  C1  UNL     1      22.244  30.803  19.507  1.00  0.00     0.165 C 
ATOM     14  H1  UNL     1      23.356  32.514  20.162  1.00  0.00     0.177 HD
ENDBRANCH   5  12
BRANCH   8  15
HETATM   15  C12 UNL     1      20.232  36.349  19.668  1.00  0.00     0.445 C 
BRANCH  15  16
HETATM   16  N11 UNL     1      19.562  36.457  18.378  1.00  0.00    -0.043 N 
ATOM     17 3H11 UNL     1      19.900  37.258  17.844  1.00  0.00     0.277 HD
ATOM     18 2H11 UNL     1      19.851  35.714  17.741  1.00  0.00     0.277 HD
ATOM     19 1H11 UNL     1      18.549  36.481  18.493  1.00  0.00     0.277 HD
ENDBRANCH  15  16
BRANCH  15  20
HETATM   20  N12 UNL     1      21.610  36.754  19.432  1.00  0.00    -0.043 N 
ATOM     21 3H12 UNL     1      22.004  36.337  18.589  1.00  0.00     0.277 HD
ATOM     22 2H12 UNL     1      21.691  37.731  19.152  1.00  0.00     0.277 HD
ATOM     23 1H12 UNL     1      22.151  36.537  20.270  1.00  0.00     0.277 HD
ENDBRANCH  15  20
ENDBRANCH   8  15
ENDBRANCH   1   3
BRANCH   1  24
HETATM   24  C5  UNL     1      17.140  33.269  22.520  1.00  0.00     0.702 A 
HETATM   25  N4  UNL     1      16.066  33.466  21.735  1.00  0.00    -0.174 N 
HETATM   26  C6  UNL     1      15.015  34.171  22.184  1.00  0.00     0.147 A 
ATOM     27  H4  UNL     1      16.050  33.077  20.792  1.00  0.00     0.186 HD
HETATM   28  C7  UNL     1      15.100  34.670  23.465  1.00  0.00     0.140 A 
HETATM   29  N6  UNL     1      14.255  35.408  24.220  1.00  0.00    -0.279 N 
HETATM   30  C10 UNL     1      16.214  34.465  24.272  1.00  0.00     0.173 A 
HETATM   31  N7  UNL     1      14.810  35.628  25.381  1.00  0.00    -0.236 N 
ATOM     32  H6  UNL     1      13.335  35.738  23.931  1.00  0.00     0.189 HD
HETATM   33  N8  UNL     1      16.024  35.064  25.463  1.00  0.00    -0.230 N 
ATOM     34  H7  UNL     1      14.375  36.163  26.133  1.00  0.00     0.208 HD
HETATM   35  N9  UNL     1      17.224  33.762  23.785  1.00  0.00    -0.172 N 
ATOM     36  H9  UNL     1      18.056  33.592  24.351  1.00  0.00     0.186 HD
BRANCH  26  37
HETATM   37  N5  UNL     1      13.958  34.387  21.479  1.00  0.00    -0.383 N 
ATOM     38  H52 UNL     1      13.710  33.747  20.724  1.00  0.00     0.157 HD
ATOM     39  H51 UNL     1      13.338  35.183  21.631  1.00  0.00     0.157 HD
ENDBRANCH  26  37
BRANCH  33  40
HETATM   40  C8  UNL     1      16.892  35.132  26.613  1.00  0.00     0.240 C 
HETATM   41  C9  UNL     1      16.648  36.350  27.475  1.00  0.00     0.065 C 
BRANCH  40  42
HETATM   42  O1  UNL     1      18.233  34.948  26.306  1.00  0.00    -0.375 OA
ATOM     43  H1  UNL     1      18.769  35.713  26.474  1.00  0.00     0.212 HD
ENDBRANCH  40  42
ENDBRANCH  33  40
ENDBRANCH   1  24
TORSDOF 9
ENDMDL
MODEL 5
REMARK VINA RESULT: -6.537438906      4.349      7.014
REMARK  9 active torsions:
REMARK  status: ('A' for Active; 'I' for Inactive)
REMARK    1  A    between atoms: N1_2  and  C2_4 
REMARK    2  A    between atoms: C3_7  and  N3_8 
REMARK    3  A    between atoms: N3_8  and  C5_10 
REMARK    4  A    between atoms: C6_13  and  N5_14 
REMARK    5  A    between atoms: N8_22  and  C8_23 
REMARK    6  A    between atoms: C8_23  and  O1_25 
REMARK    7  A    between atoms: C11_32  and  C12_33 
REMARK    8  A    between atoms: C12_33  and  N11_34 
REMARK    9  A    between atoms: C12_33  and  N12_38 
ROOT
HETATM    1  N3  UNL     1      19.123  33.885  21.948  1.00  0.00    -0.018 N 
HETATM    2  C4  UNL     1      19.637  33.463  23.251  1.00  0.00     0.195 C 
ENDROOT
BRANCH   1   3
HETATM    3  C3  UNL     1      17.948  33.254  21.471  1.00  0.00     0.714 A 
HETATM    4  N2  UNL     1      18.025  32.053  20.896  1.00  0.00    -0.021 N 
HETATM    5  C2  UNL     1      16.938  31.434  20.428  1.00  0.00     0.693 A 
ATOM      6  H2  UNL     1      18.934  31.598  20.812  1.00  0.00     0.203 HD
HETATM    7  N13 UNL     1      15.750  32.055  20.551  1.00  0.00    -0.176 N 
HETATM    8  C11 UNL     1      15.634  33.270  21.126  1.00  0.00     0.170 A 
ATOM      9  H13 UNL     1      14.912  31.593  20.199  1.00  0.00     0.185 HD
HETATM   10  N10 UNL     1      16.735  33.851  21.578  1.00  0.00    -0.175 N 
ATOM     11  H10 UNL     1      16.670  34.770  22.017  1.00  0.00     0.185 HD
BRANCH   5  12
HETATM   12  N1  UNL     1      17.043  30.273  19.881  1.00  0.00    -0.230 N 
HETATM   13  C1  UNL     1      18.300  29.562  19.908  1.00  0.00     0.165 C 
ATOM     14  H1  UNL     1      16.233  29.853  19.426  1.00  0.00     0.177 HD
ENDBRANCH   5  12
BRANCH   8  15
HETATM   15  C12 UNL     1      14.281  33.897  21.223  1.00  0.00     0.445 C 
BRANCH  15  16
HETATM   16  N11 UNL     1      14.122  34.603  22.489  1.00  0.00    -0.043 N 
ATOM     17 3H11 UNL     1      13.765  33.988  23.221  1.00  0.00     0.277 HD
ATOM     18 2H11 UNL     1      15.024  34.833  22.907  1.00  0.00     0.277 HD
ATOM     19 1H11 UNL     1      13.537  35.431  22.374  1.00  0.00     0.277 HD
ENDBRANCH  15  16
BRANCH  15  20
HETATM   20  N12 UNL     1      13.291  32.830  21.241  1.00  0.00    -0.043 N 
ATOM     21 3H12 UNL     1      13.648  31.968  21.653  1.00  0.00     0.277 HD
ATOM     22 2H12 UNL     1      12.540  33.000  21.909  1.00  0.00     0.277 HD
ATOM     23 1H12 UNL     1      12.950  32.700  20.288  1.00  0.00     0.277 HD
ENDBRANCH  15  20
ENDBRANCH   8  15
ENDBRANCH   1   3
BRANCH   1  24
HETATM   24  C5  UNL     1      19.817  34.901  21.260  1.00  0.00     0.702 A 
HETATM   25  N4  UNL     1      19.388  35.255  20.036  1.00  0.00    -0.174 N 
HETATM   26  C6  UNL     1      20.030  36.206  19.338  1.00  0.00     0.147 A 
ATOM     27  H4  UNL     1      18.570  34.798  19.635  1.00  0.00     0.186 HD
HETATM   28  C7  UNL     1      21.129  36.783  19.936  1.00  0.00     0.140 A 
HETATM   29  N6  UNL     1      21.993  37.742  19.535  1.00  0.00    -0.279 N 
HETATM   30  C10 UNL     1      21.569  36.413  21.202  1.00  0.00     0.173 A 
HETATM   31  N7  UNL     1      22.877  37.934  20.476  1.00  0.00    -0.236 N 
ATOM     32  H6  UNL     1      21.960  38.236  18.643  1.00  0.00     0.189 HD
HETATM   33  N8  UNL     1      22.657  37.135  21.530  1.00  0.00    -0.230 N 
ATOM     34  H7  UNL     1      23.641  38.608  20.418  1.00  0.00     0.208 HD
HETATM   35  N9  UNL     1      20.901  35.471  21.851  1.00  0.00    -0.172 N 
ATOM     36  H9  UNL     1      21.197  35.177  22.782  1.00  0.00     0.186 HD
BRANCH  26  37
HETATM   37  N5  UNL     1      19.662  36.588  18.164  1.00  0.00    -0.383 N 
ATOM     38  H52 UNL     1      19.125  35.958  17.569  1.00  0.00     0.157 HD
ATOM     39  H51 UNL     1      19.884  37.508  17.781  1.00  0.00     0.157 HD
ENDBRANCH  26  37
BRANCH  33  40
HETATM   40  C8  UNL     1      23.462  37.103  22.727  1.00  0.00     0.240 C 
HETATM   41  C9  UNL     1      24.508  36.012  22.715  1.00  0.00     0.065 C 
BRANCH  40  42
HETATM   42  O1  UNL     1      22.716  37.123  23.897  1.00  0.00    -0.375 OA
ATOM     43  H1  UNL     1      23.020  37.764  24.529  1.00  0.00     0.212 HD
ENDBRANCH  40  42
ENDBRANCH  33  40
ENDBRANCH   1  24
TORSDOF 9
ENDMDL
