MODEL 1
REMARK VINA RESULT: -7.418473779      0.000      0.000
REMARK  8 active torsions:
REMARK  status: ('A' for Active; 'I' for Inactive)
REMARK    1  A    between atoms: N1_1  and  C1_4 
REMARK    2  A    between atoms: C2_7  and  S1_8 
REMARK    3  A    between atoms: S1_8  and  C3_9 
REMARK    4  A    between atoms: C5_18  and  N7_19 
REMARK    5  A    between atoms: C6_24  and  O1_25 
REMARK    6  A    between atoms: O1_25  and  S2_26 
REMARK    7  A    between atoms: S2_26  and  N9_29 
REMARK    8  A    between atoms: N9_29  and  O4_31 
ROOT
HETATM    1  C1  UNL     1      15.316  32.068  20.696  1.00  0.00     0.678 A 
HETATM    2  N2  UNL     1      16.098  31.000  20.904  1.00  0.00    -0.184 N 
ATOM      3  H2  UNL     1      15.692  30.066  20.960  1.00  0.00     0.185 HD
HETATM    4  C2  UNL     1      17.450  31.176  21.041  1.00  0.00     0.111 A 
HETATM    5  C4  UNL     1      17.994  32.435  20.970  1.00  0.00     0.087 A 
HETATM    6  C5  UNL     1      19.337  32.665  21.126  1.00  0.00     0.118 A 
HETATM    7  N8  UNL     1      19.785  33.925  21.057  1.00  0.00    -0.307 N 
ATOM      8  H8  UNL     1      20.784  34.094  21.170  1.00  0.00     0.171 HD
HETATM    9  C6  UNL     1      18.965  34.990  20.841  1.00  0.00     0.244 A 
HETATM   10  N10 UNL     1      17.665  34.772  20.694  1.00  0.00    -0.306 N 
ATOM     11  H10 UNL     1      17.046  35.567  20.534  1.00  0.00     0.171 HD
HETATM   12  C7  UNL     1      17.135  33.524  20.750  1.00  0.00     0.141 A 
HETATM   13  N11 UNL     1      15.818  33.312  20.618  1.00  0.00    -0.176 N 
ATOM     14  H11 UNL     1      15.192  34.100  20.458  1.00  0.00     0.186 HD
ENDROOT
BRANCH   4  15
HETATM   15  S1  UNL     1      18.500  29.760  21.314  1.00  0.00    -0.032 SA
BRANCH  15  16
HETATM   16  C3  UNL     1      19.000  28.972  19.793  1.00  0.00     0.179 A 
HETATM   17  N3  UNL     1      20.169  28.968  19.162  1.00  0.00    -0.261 N 
HETATM   18  N4  UNL     1      20.120  28.257  18.050  1.00  0.00    -0.005 NA
ATOM     19  H3  UNL     1      21.003  29.455  19.494  1.00  0.00     0.186 HD
HETATM   20  N5  UNL     1      18.886  27.777  17.948  1.00  0.00    -0.224 N 
HETATM   21  N6  UNL     1      18.194  28.197  18.989  1.00  0.00    -0.266 N 
ATOM     22  H5  UNL     1      18.534  27.186  17.194  1.00  0.00     0.205 HD
ATOM     23  H6  UNL     1      17.214  27.981  19.170  1.00  0.00     0.190 HD
ENDBRANCH  15  16
ENDBRANCH   4  15
BRANCH   1  24
HETATM   24  N1  UNL     1      14.031  31.857  20.568  1.00  0.00    -0.234 N 
ATOM     25  H12 UNL     1      13.621  31.686  19.649  1.00  0.00     0.174 HD
ATOM     26  H11 UNL     1      13.466  31.870  21.417  1.00  0.00     0.174 HD
ENDBRANCH   1  24
BRANCH   6  27
HETATM   27  N7  UNL     1      20.164  31.689  21.371  1.00  0.00    -0.385 N 
ATOM     28  H72 UNL     1      21.091  31.683  20.946  1.00  0.00     0.157 HD
ATOM     29  H71 UNL     1      19.915  30.933  22.010  1.00  0.00     0.157 HD
ENDBRANCH   6  27
BRANCH   9  30
HETATM   30  O1  UNL     1      19.531  36.207  20.790  1.00  0.00    -0.180 OA
BRANCH  30  31
HETATM   31  S2  UNL     1      20.528  36.943  19.689  1.00  0.00     0.387 S 
HETATM   32  O2  UNL     1      19.798  37.117  18.354  1.00  0.00    -0.173 OA
HETATM   33  O3  UNL     1      21.019  38.303  20.047  1.00  0.00    -0.173 OA
BRANCH  31  34
HETATM   34  N9  UNL     1      21.869  35.858  19.391  1.00  0.00    -0.171 N 
ATOM     35  H9  UNL     1      22.771  35.933  19.860  1.00  0.00     0.209 HD
BRANCH  34  36
HETATM   36  O4  UNL     1      21.581  34.922  18.483  1.00  0.00    -0.278 OA
ATOM     37  H4  UNL     1      22.335  34.674  17.963  1.00  0.00     0.245 HD
ENDBRANCH  34  36
ENDBRANCH  31  34
ENDBRANCH  30  31
ENDBRANCH   9  30
TORSDOF 8
ENDMDL
MODEL 2
REMARK VINA RESULT: -7.083199429      1.760      2.064
REMARK  8 active torsions:
REMARK  status: ('A' for Active; 'I' for Inactive)
REMARK    1  A    between atoms: N1_1  and  C1_4 
REMARK    2  A    between atoms: C2_7  and  S1_8 
REMARK    3  A    between atoms: S1_8  and  C3_9 
REMARK    4  A    between atoms: C5_18  and  N7_19 
REMARK    5  A    between atoms: C6_24  and  O1_25 
REMARK    6  A    between atoms: O1_25  and  S2_26 
REMARK    7  A    between atoms: S2_26  and  N9_29 
REMARK    8  A    between atoms: N9_29  and  O4_31 
ROOT
HETATM    1  C1  UNL     1      15.311  31.902  20.601  1.00  0.00     0.678 A 
HETATM    2  N2  UNL     1      16.102  30.822  20.533  1.00  0.00    -0.184 N 
ATOM      3  H2  UNL     1      15.697  29.887  20.497  1.00  0.00     0.185 HD
HETATM    4  C2  UNL     1      17.462  30.989  20.512  1.00  0.00     0.111 A 
HETATM    5  C4  UNL     1      18.006  32.249  20.565  1.00  0.00     0.087 A 
HETATM    6  C5  UNL     1      19.360  32.465  20.573  1.00  0.00     0.118 A 
HETATM    7  N8  UNL     1      19.808  33.724  20.641  1.00  0.00    -0.307 N 
ATOM      8  H8  UNL     1      20.816  33.883  20.644  1.00  0.00     0.171 HD
HETATM    9  C6  UNL     1      18.979  34.802  20.706  1.00  0.00     0.244 A 
HETATM   10  N10 UNL     1      17.669  34.597  20.704  1.00  0.00    -0.306 N 
ATOM     11  H10 UNL     1      17.042  35.400  20.754  1.00  0.00     0.171 HD
HETATM   12  C7  UNL     1      17.137  33.350  20.636  1.00  0.00     0.141 A 
HETATM   13  N11 UNL     1      15.812  33.147  20.651  1.00  0.00    -0.176 N 
ATOM     14  H11 UNL     1      15.179  33.945  20.701  1.00  0.00     0.186 HD
ENDROOT
BRANCH   4  15
HETATM   15  S1  UNL     1      18.523  29.558  20.418  1.00  0.00    -0.032 SA
BRANCH  15  16
HETATM   16  C3  UNL     1      18.512  28.594  21.920  1.00  0.00     0.179 A 
HETATM   17  N3  UNL     1      19.041  28.842  23.113  1.00  0.00    -0.261 N 
HETATM   18  N4  UNL     1      18.807  27.858  23.963  1.00  0.00    -0.005 NA
ATOM     19  H3  UNL     1      19.564  29.687  23.345  1.00  0.00     0.186 HD
HETATM   20  N5  UNL     1      18.103  26.939  23.312  1.00  0.00    -0.224 N 
HETATM   21  N6  UNL     1      17.914  27.363  22.078  1.00  0.00    -0.266 N 
ATOM     22  H5  UNL     1      17.765  26.057  23.700  1.00  0.00     0.205 HD
ATOM     23  H6  UNL     1      17.405  26.858  21.353  1.00  0.00     0.190 HD
ENDBRANCH  15  16
ENDBRANCH   4  15
BRANCH   1  24
HETATM   24  N1  UNL     1      14.019  31.701  20.616  1.00  0.00    -0.234 N 
ATOM     25  H12 UNL     1      13.630  30.838  20.998  1.00  0.00     0.174 HD
ATOM     26  H11 UNL     1      13.425  32.437  20.235  1.00  0.00     0.174 HD
ENDBRANCH   1  24
BRANCH   6  27
HETATM   27  N7  UNL     1      20.201  31.470  20.550  1.00  0.00    -0.385 N 
ATOM     28  H72 UNL     1      21.181  31.622  20.789  1.00  0.00     0.157 HD
ATOM     29  H71 UNL     1      19.895  30.524  20.322  1.00  0.00     0.157 HD
ENDBRANCH   6  27
BRANCH   9  30
HETATM   30  O1  UNL     1      19.546  36.018  20.770  1.00  0.00    -0.180 OA
BRANCH  30  31
HETATM   31  S2  UNL     1      20.573  36.838  19.759  1.00  0.00     0.387 S 
HETATM   32  O2  UNL     1      19.867  37.155  18.438  1.00  0.00    -0.173 OA
HETATM   33  O3  UNL     1      21.081  38.148  20.255  1.00  0.00    -0.173 OA
BRANCH  31  34
HETATM   34  N9  UNL     1      21.899  35.763  19.376  1.00  0.00    -0.171 N 
ATOM     35  H9  UNL     1      22.800  35.784  19.854  1.00  0.00     0.209 HD
BRANCH  34  36
HETATM   36  O4  UNL     1      21.603  34.912  18.391  1.00  0.00    -0.278 OA
ATOM     37  H4  UNL     1      21.117  34.155  18.696  1.00  0.00     0.245 HD
ENDBRANCH  34  36
ENDBRANCH  31  34
ENDBRANCH  30  31
ENDBRANCH   9  30
TORSDOF 8
ENDMDL
MODEL 3
REMARK VINA RESULT: -6.951094676      4.400      6.691
REMARK  8 active torsions:
REMARK  status: ('A' for Active; 'I' for Inactive)
REMARK    1  A    between atoms: N1_1  and  C1_4 
REMARK    2  A    between atoms: C2_7  and  S1_8 
REMARK    3  A    between atoms: S1_8  and  C3_9 
REMARK    4  A    between atoms: C5_18  and  N7_19 
REMARK    5  A    between atoms: C6_24  and  O1_25 
REMARK    6  A    between atoms: O1_25  and  S2_26 
REMARK    7  A    between atoms: S2_26  and  N9_29 
REMARK    8  A    between atoms: N9_29  and  O4_31 
ROOT
HETATM    1  C1  UNL     1      16.333  32.518  19.793  1.00  0.00     0.678 A 
HETATM    2  N2  UNL     1      17.632  32.835  19.878  1.00  0.00    -0.184 N 
ATOM      3  H2  UNL     1      18.291  32.507  19.172  1.00  0.00     0.185 HD
HETATM    4  C2  UNL     1      18.067  33.605  20.925  1.00  0.00     0.111 A 
HETATM    5  C4  UNL     1      17.179  34.042  21.877  1.00  0.00     0.087 A 
HETATM    6  C5  UNL     1      17.570  34.792  22.956  1.00  0.00     0.118 A 
HETATM    7  N8  UNL     1      16.643  35.166  23.847  1.00  0.00    -0.307 N 
ATOM      8  H8  UNL     1      16.935  35.727  24.648  1.00  0.00     0.171 HD
HETATM    9  C6  UNL     1      15.329  34.831  23.732  1.00  0.00     0.244 A 
HETATM   10  N10 UNL     1      14.948  34.101  22.693  1.00  0.00    -0.306 N 
ATOM     11  H10 UNL     1      13.965  33.845  22.602  1.00  0.00     0.171 HD
HETATM   12  C7  UNL     1      15.827  33.685  21.746  1.00  0.00     0.141 A 
HETATM   13  N11 UNL     1      15.440  32.933  20.707  1.00  0.00    -0.176 N 
ATOM     14  H11 UNL     1      14.458  32.673  20.608  1.00  0.00     0.186 HD
ENDROOT
BRANCH   4  15
HETATM   15  S1  UNL     1      19.794  34.036  21.045  1.00  0.00    -0.032 SA
BRANCH  15  16
HETATM   16  C3  UNL     1      20.225  35.436  20.025  1.00  0.00     0.179 A 
HETATM   17  N3  UNL     1      19.506  36.119  19.140  1.00  0.00    -0.261 N 
HETATM   18  N4  UNL     1      20.207  37.094  18.592  1.00  0.00    -0.005 NA
ATOM     19  H3  UNL     1      18.532  35.915  18.913  1.00  0.00     0.186 HD
HETATM   20  N5  UNL     1      21.420  37.054  19.132  1.00  0.00    -0.224 N 
HETATM   21  N6  UNL     1      21.452  36.061  19.998  1.00  0.00    -0.266 N 
ATOM     22  H5  UNL     1      22.194  37.683  18.914  1.00  0.00     0.205 HD
ATOM     23  H6  UNL     1      22.260  35.796  20.562  1.00  0.00     0.190 HD
ENDBRANCH  15  16
ENDBRANCH   4  15
BRANCH   1  24
HETATM   24  N1  UNL     1      15.958  31.784  18.777  1.00  0.00    -0.234 N 
ATOM     25  H12 UNL     1      16.618  31.158  18.315  1.00  0.00     0.174 HD
ATOM     26  H11 UNL     1      14.988  31.863  18.474  1.00  0.00     0.174 HD
ENDBRANCH   1  24
BRANCH   6  27
HETATM   27  N7  UNL     1      18.819  35.112  23.138  1.00  0.00    -0.385 N 
ATOM     28  H72 UNL     1      19.550  34.660  22.589  1.00  0.00     0.157 HD
ATOM     29  H71 UNL     1      19.088  35.834  23.807  1.00  0.00     0.157 HD
ENDBRANCH   6  27
BRANCH   9  30
HETATM   30  O1  UNL     1      14.492  35.265  24.689  1.00  0.00    -0.180 OA
BRANCH  30  31
HETATM   31  S2  UNL     1      14.454  35.058  26.333  1.00  0.00     0.387 S 
HETATM   32  O2  UNL     1      15.124  33.735  26.711  1.00  0.00    -0.173 OA
HETATM   33  O3  UNL     1      15.150  36.095  27.146  1.00  0.00    -0.173 OA
BRANCH  31  34
HETATM   34  N9  UNL     1      12.774  34.925  26.805  1.00  0.00    -0.171 N 
ATOM     35  H9  UNL     1      12.469  34.654  27.740  1.00  0.00     0.209 HD
BRANCH  34  36
HETATM   36  O4  UNL     1      11.935  35.216  25.808  1.00  0.00    -0.278 OA
ATOM     37  H4  UNL     1      12.004  34.608  25.082  1.00  0.00     0.245 HD
ENDBRANCH  34  36
ENDBRANCH  31  34
ENDBRANCH  30  31
ENDBRANCH   9  30
TORSDOF 8
ENDMDL
MODEL 4
REMARK VINA RESULT: -6.801924392      3.573      6.157
REMARK  8 active torsions:
REMARK  status: ('A' for Active; 'I' for Inactive)
REMARK    1  A    between atoms: N1_1  and  C1_4 
REMARK    2  A    between atoms: C2_7  and  S1_8 
REMARK    3  A    between atoms: S1_8  and  C3_9 
REMARK    4  A    between atoms: C5_18  and  N7_19 
REMARK    5  A    between atoms: C6_24  and  O1_25 
REMARK    6  A    between atoms: O1_25  and  S2_26 
REMARK    7  A    between atoms: S2_26  and  N9_29 
REMARK    8  A    between atoms: N9_29  and  O4_31 
ROOT
HETATM    1  C1  UNL     1      15.151  33.377  21.200  1.00  0.00     0.678 A 
HETATM    2  N2  UNL     1      16.131  34.234  21.516  1.00  0.00    -0.184 N 
ATOM      3  H2  UNL     1      15.908  35.173  21.848  1.00  0.00     0.185 HD
HETATM    4  C2  UNL     1      17.436  33.836  21.389  1.00  0.00     0.111 A 
HETATM    5  C4  UNL     1      17.733  32.574  20.937  1.00  0.00     0.087 A 
HETATM    6  C5  UNL     1      19.023  32.139  20.768  1.00  0.00     0.118 A 
HETATM    7  N8  UNL     1      19.226  30.898  20.310  1.00  0.00    -0.307 N 
ATOM      8  H8  UNL     1      20.186  30.575  20.187  1.00  0.00     0.171 HD
HETATM    9  C6  UNL     1      18.209  30.048  20.000  1.00  0.00     0.244 A 
HETATM   10  N10 UNL     1      16.961  30.467  20.157  1.00  0.00    -0.306 N 
ATOM     11  H10 UNL     1      16.194  29.835  19.925  1.00  0.00     0.171 HD
HETATM   12  C7  UNL     1      16.673  31.710  20.618  1.00  0.00     0.141 A 
HETATM   13  N11 UNL     1      15.409  32.135  20.759  1.00  0.00    -0.176 N 
ATOM     14  H11 UNL     1      14.637  31.509  20.529  1.00  0.00     0.186 HD
ENDROOT
BRANCH   4  15
HETATM   15  S1  UNL     1      18.748  34.969  21.811  1.00  0.00    -0.032 SA
BRANCH  15  16
HETATM   16  C3  UNL     1      19.375  35.853  20.393  1.00  0.00     0.179 A 
HETATM   17  N3  UNL     1      20.373  36.725  20.286  1.00  0.00    -0.261 N 
HETATM   18  N4  UNL     1      20.512  37.156  19.046  1.00  0.00    -0.005 NA
ATOM     19  H3  UNL     1      20.958  37.025  21.067  1.00  0.00     0.186 HD
HETATM   20  N5  UNL     1      19.583  36.549  18.315  1.00  0.00    -0.224 N 
HETATM   21  N6  UNL     1      18.887  35.760  19.109  1.00  0.00    -0.266 N 
ATOM     22  H5  UNL     1      19.434  36.673  17.313  1.00  0.00     0.205 HD
ATOM     23  H6  UNL     1      18.107  35.171  18.817  1.00  0.00     0.190 HD
ENDBRANCH  15  16
ENDBRANCH   4  15
BRANCH   1  24
HETATM   24  N1  UNL     1      13.919  33.794  21.339  1.00  0.00    -0.234 N 
ATOM     25  H12 UNL     1      13.404  34.172  20.543  1.00  0.00     0.174 HD
ATOM     26  H11 UNL     1      13.501  33.723  22.266  1.00  0.00     0.174 HD
ENDBRANCH   1  24
BRANCH   6  27
HETATM   27  N7  UNL     1      20.036  32.921  21.014  1.00  0.00    -0.385 N 
ATOM     28  H72 UNL     1      19.962  33.646  21.727  1.00  0.00     0.157 HD
ATOM     29  H71 UNL     1      20.922  32.806  20.523  1.00  0.00     0.157 HD
ENDBRANCH   6  27
BRANCH   9  30
HETATM   30  O1  UNL     1      18.537  28.826  19.549  1.00  0.00    -0.180 OA
BRANCH  30  31
HETATM   31  S2  UNL     1      19.859  28.241  18.737  1.00  0.00     0.387 S 
HETATM   32  O2  UNL     1      19.464  27.836  17.314  1.00  0.00    -0.173 OA
HETATM   33  O3  UNL     1      21.004  29.181  18.574  1.00  0.00    -0.173 OA
BRANCH  31  34
HETATM   34  N9  UNL     1      20.369  26.779  19.553  1.00  0.00    -0.171 N 
ATOM     35  H9  UNL     1      21.146  26.198  19.239  1.00  0.00     0.209 HD
BRANCH  34  36
HETATM   36  O4  UNL     1      19.629  26.508  20.631  1.00  0.00    -0.278 OA
ATOM     37  H4  UNL     1      20.134  26.533  21.436  1.00  0.00     0.245 HD
ENDBRANCH  34  36
ENDBRANCH  31  34
ENDBRANCH  30  31
ENDBRANCH   9  30
TORSDOF 8
ENDMDL
MODEL 5
REMARK VINA RESULT: -6.770470319      6.158      8.051
REMARK  8 active torsions:
REMARK  status: ('A' for Active; 'I' for Inactive)
REMARK    1  A    between atoms: N1_1  and  C1_4 
REMARK    2  A    between atoms: C2_7  and  S1_8 
REMARK    3  A    between atoms: S1_8  and  C3_9 
REMARK    4  A    between atoms: C5_18  and  N7_19 
REMARK    5  A    between atoms: C6_24  and  O1_25 
REMARK    6  A    between atoms: O1_25  and  S2_26 
REMARK    7  A    between atoms: S2_26  and  N9_29 
REMARK    8  A    between atoms: N9_29  and  O4_31 
ROOT
HETATM    1  C1  UNL     1      18.337  33.412  24.904  1.00  0.00     0.678 A 
HETATM    2  N2  UNL     1      18.023  33.719  23.637  1.00  0.00    -0.184 N 
ATOM      3  H2  UNL     1      18.693  33.553  22.886  1.00  0.00     0.185 HD
HETATM    4  C2  UNL     1      16.794  34.259  23.363  1.00  0.00     0.111 A 
HETATM    5  C4  UNL     1      15.896  34.485  24.378  1.00  0.00     0.087 A 
HETATM    6  C5  UNL     1      14.665  35.046  24.157  1.00  0.00     0.118 A 
HETATM    7  N8  UNL     1      13.854  35.246  25.203  1.00  0.00    -0.307 N 
ATOM      8  H8  UNL     1      12.937  35.661  25.037  1.00  0.00     0.171 HD
HETATM    9  C6  UNL     1      14.199  34.920  26.479  1.00  0.00     0.244 A 
HETATM   10  N10 UNL     1      15.391  34.382  26.697  1.00  0.00    -0.306 N 
ATOM     11  H10 UNL     1      15.656  34.137  27.651  1.00  0.00     0.171 HD
HETATM   12  C7  UNL     1      16.269  34.146  25.689  1.00  0.00     0.141 A 
HETATM   13  N11 UNL     1      17.479  33.618  25.917  1.00  0.00    -0.176 N 
ATOM     14  H11 UNL     1      17.752  33.370  26.868  1.00  0.00     0.186 HD
ENDROOT
BRANCH   4  15
HETATM   15  S1  UNL     1      16.367  34.667  21.680  1.00  0.00    -0.032 SA
BRANCH  15  16
HETATM   16  C3  UNL     1      16.012  33.224  20.692  1.00  0.00     0.179 A 
HETATM   17  N3  UNL     1      15.070  32.295  20.820  1.00  0.00    -0.261 N 
HETATM   18  N4  UNL     1      15.155  31.382  19.870  1.00  0.00    -0.005 NA
ATOM     19  H3  UNL     1      14.369  32.288  21.561  1.00  0.00     0.186 HD
HETATM   20  N5  UNL     1      16.178  31.720  19.093  1.00  0.00    -0.224 N 
HETATM   21  N6  UNL     1      16.708  32.828  19.572  1.00  0.00    -0.266 N 
ATOM     22  H5  UNL     1      16.498  31.211  18.268  1.00  0.00     0.205 HD
ATOM     23  H6  UNL     1      17.511  33.316  19.174  1.00  0.00     0.190 HD
ENDBRANCH  15  16
ENDBRANCH   4  15
BRANCH   1  24
HETATM   24  N1  UNL     1      19.519  32.896  25.123  1.00  0.00    -0.234 N 
ATOM     25  H12 UNL     1      20.261  33.454  25.546  1.00  0.00     0.174 HD
ATOM     26  H11 UNL     1      19.662  31.922  24.858  1.00  0.00     0.174 HD
ENDBRANCH   1  24
BRANCH   6  27
HETATM   27  N7  UNL     1      14.295  35.412  22.962  1.00  0.00    -0.385 N 
ATOM     28  H72 UNL     1      14.826  36.119  22.455  1.00  0.00     0.157 HD
ATOM     29  H71 UNL     1      13.491  34.982  22.504  1.00  0.00     0.157 HD
ENDBRANCH   6  27
BRANCH   9  30
HETATM   30  O1  UNL     1      13.301  35.167  27.447  1.00  0.00    -0.180 OA
BRANCH  30  31
HETATM   31  S2  UNL     1      11.962  34.349  27.979  1.00  0.00     0.387 S 
HETATM   32  O2  UNL     1      12.056  32.873  27.582  1.00  0.00    -0.173 OA
HETATM   33  O3  UNL     1      11.731  34.345  29.451  1.00  0.00    -0.173 OA
BRANCH  31  34
HETATM   34  N9  UNL     1      10.577  35.009  27.136  1.00  0.00    -0.171 N 
ATOM     35  H9  UNL     1       9.679  35.196  27.583  1.00  0.00     0.209 HD
BRANCH  34  36
HETATM   36  O4  UNL     1      10.824  35.240  25.844  1.00  0.00    -0.278 OA
ATOM     37  H4  UNL     1      11.163  36.113  25.688  1.00  0.00     0.245 HD
ENDBRANCH  34  36
ENDBRANCH  31  34
ENDBRANCH  30  31
ENDBRANCH   9  30
TORSDOF 8
ENDMDL
