MODEL 1
REMARK VINA RESULT: -6.201745889      0.000      0.000
REMARK  5 active torsions:
REMARK  status: ('A' for Active; 'I' for Inactive)
REMARK    1  A    between atoms: C2_2  and  C3_3 
REMARK    2  A    between atoms: C3_3  and  C4_4 
REMARK    3  A    between atoms: C9_14  and  C10_15 
REMARK    4  A    between atoms: C10_15  and  O2_17 
REMARK    5  A    between atoms: O2_17  and  C11_18 
ROOT
HETATM    1  C4  UNL     1      31.840  77.142  20.406  1.00  0.00     0.005 C 
HETATM    2  N1  UNL     1      31.869  78.336  20.863  1.00  0.00    -0.340 N 
ATOM      3  H1  UNL     1      32.080  79.094  20.214  1.00  0.00     0.167 HD
HETATM    4  C5  UNL     1      31.625  78.662  22.209  1.00  0.00     0.172 C 
HETATM    5  S1  UNL     1      31.665  80.181  22.740  1.00  0.00    -0.041 SA
HETATM    6  N2  UNL     1      31.333  77.569  23.082  1.00  0.00    -0.357 N 
ATOM      7  H2  UNL     1      30.776  77.684  23.929  1.00  0.00     0.162 HD
HETATM    8  C6  UNL     1      31.889  76.267  22.683  1.00  0.00     0.043 C 
HETATM    9  C7  UNL     1      31.294  75.242  23.632  1.00  0.00     0.039 C 
HETATM   10  C8  UNL     1      33.365  76.327  22.908  1.00  0.00     0.039 C 
HETATM   11  C9  UNL     1      31.516  76.017  21.262  1.00  0.00     0.158 C 
ENDROOT
BRANCH  11  12
HETATM   12  C10 UNL     1      32.028  74.720  20.754  1.00  0.00     0.271 C 
HETATM   13  O1  UNL     1      31.239  73.895  20.267  1.00  0.00    -0.264 OA
BRANCH  12  14
HETATM   14  O2  UNL     1      33.368  74.385  20.799  1.00  0.00    -0.316 OA
BRANCH  14  15
HETATM   15  C11 UNL     1      33.852  73.080  20.971  1.00  0.00     0.123 C 
HETATM   16  C12 UNL     1      33.801  72.703  22.458  1.00  0.00     0.040 C 
HETATM   17  C13 UNL     1      35.258  72.881  20.510  1.00  0.00     0.040 C 
ENDBRANCH  14  15
ENDBRANCH  12  14
ENDBRANCH  11  12
BRANCH   1  18
HETATM   18  C3  UNL     1      32.125  76.960  18.949  1.00  0.00     0.053 C 
BRANCH  18  19
HETATM   19  C2  UNL     1      30.987  77.485  18.099  1.00  0.00     0.001 C 
HETATM   20  C1  UNL     1      30.644  76.378  17.110  1.00  0.00     0.005 C 
ENDBRANCH  18  19
ENDBRANCH   1  18
TORSDOF 5
ENDMDL
MODEL 2
REMARK VINA RESULT: -5.994392578      2.397      4.706
REMARK  5 active torsions:
REMARK  status: ('A' for Active; 'I' for Inactive)
REMARK    1  A    between atoms: C2_2  and  C3_3 
REMARK    2  A    between atoms: C3_3  and  C4_4 
REMARK    3  A    between atoms: C9_14  and  C10_15 
REMARK    4  A    between atoms: C10_15  and  O2_17 
REMARK    5  A    between atoms: O2_17  and  C11_18 
ROOT
HETATM    1  C4  UNL     1      32.219  76.429  22.289  1.00  0.00     0.005 C 
HETATM    2  N1  UNL     1      32.484  75.777  23.357  1.00  0.00    -0.340 N 
ATOM      3  H1  UNL     1      32.822  76.297  24.167  1.00  0.00     0.167 HD
HETATM    4  C5  UNL     1      32.335  74.383  23.477  1.00  0.00     0.172 C 
HETATM    5  S1  UNL     1      32.675  73.603  24.843  1.00  0.00    -0.041 SA
HETATM    6  N2  UNL     1      31.859  73.696  22.318  1.00  0.00    -0.357 N 
ATOM      7  H2  UNL     1      31.352  72.813  22.380  1.00  0.00     0.162 HD
HETATM    8  C6  UNL     1      32.149  74.342  21.028  1.00  0.00     0.043 C 
HETATM    9  C7  UNL     1      31.389  73.551  19.978  1.00  0.00     0.039 C 
HETATM   10  C8  UNL     1      33.613  74.190  20.776  1.00  0.00     0.039 C 
HETATM   11  C9  UNL     1      31.705  75.762  21.109  1.00  0.00     0.158 C 
ENDROOT
BRANCH  11  12
HETATM   12  C10 UNL     1      31.950  76.512  19.852  1.00  0.00     0.271 C 
HETATM   13  O1  UNL     1      33.105  76.861  19.559  1.00  0.00    -0.264 OA
BRANCH  12  14
HETATM   14  O2  UNL     1      30.932  76.845  18.978  1.00  0.00    -0.316 OA
BRANCH  14  15
HETATM   15  C11 UNL     1      31.057  76.846  17.581  1.00  0.00     0.123 C 
HETATM   16  C12 UNL     1      30.409  78.113  17.007  1.00  0.00     0.040 C 
HETATM   17  C13 UNL     1      30.420  75.677  16.907  1.00  0.00     0.040 C 
ENDBRANCH  14  15
ENDBRANCH  12  14
ENDBRANCH  11  12
BRANCH   1  18
HETATM   18  C3  UNL     1      32.434  77.909  22.321  1.00  0.00     0.053 C 
BRANCH  18  19
HETATM   19  C2  UNL     1      31.228  78.624  22.892  1.00  0.00     0.001 C 
HETATM   20  C1  UNL     1      31.535  80.116  22.809  1.00  0.00     0.005 C 
ENDBRANCH  18  19
ENDBRANCH   1  18
TORSDOF 5
ENDMDL
MODEL 3
REMARK VINA RESULT: -5.785808233      3.163      4.726
REMARK  5 active torsions:
REMARK  status: ('A' for Active; 'I' for Inactive)
REMARK    1  A    between atoms: C2_2  and  C3_3 
REMARK    2  A    between atoms: C3_3  and  C4_4 
REMARK    3  A    between atoms: C9_14  and  C10_15 
REMARK    4  A    between atoms: C10_15  and  O2_17 
REMARK    5  A    between atoms: O2_17  and  C11_18 
ROOT
HETATM    1  C4  UNL     1      32.792  75.361  21.014  1.00  0.00     0.005 C 
HETATM    2  N1  UNL     1      33.277  74.456  20.251  1.00  0.00    -0.340 N 
ATOM      3  H1  UNL     1      33.168  74.567  19.243  1.00  0.00     0.167 HD
HETATM    4  C5  UNL     1      33.951  73.316  20.724  1.00  0.00     0.172 C 
HETATM    5  S1  UNL     1      34.551  72.204  19.727  1.00  0.00    -0.041 SA
HETATM    6  N2  UNL     1      34.080  73.200  22.143  1.00  0.00    -0.357 N 
ATOM      7  H2  UNL     1      34.842  72.680  22.578  1.00  0.00     0.162 HD
HETATM    8  C6  UNL     1      33.044  73.879  22.936  1.00  0.00     0.043 C 
HETATM    9  C7  UNL     1      33.491  73.790  24.384  1.00  0.00     0.039 C 
HETATM   10  C8  UNL     1      31.781  73.098  22.775  1.00  0.00     0.039 C 
HETATM   11  C9  UNL     1      32.936  75.285  22.455  1.00  0.00     0.158 C 
ENDROOT
BRANCH  11  12
HETATM   12  C10 UNL     1      31.913  76.067  23.193  1.00  0.00     0.271 C 
HETATM   13  O1  UNL     1      30.811  75.554  23.446  1.00  0.00    -0.264 OA
BRANCH  12  14
HETATM   14  O2  UNL     1      32.136  77.364  23.618  1.00  0.00    -0.316 OA
BRANCH  14  15
HETATM   15  C11 UNL     1      31.726  78.507  22.918  1.00  0.00     0.123 C 
HETATM   16  C12 UNL     1      32.685  79.667  23.219  1.00  0.00     0.040 C 
HETATM   17  C13 UNL     1      30.348  78.972  23.255  1.00  0.00     0.040 C 
ENDBRANCH  14  15
ENDBRANCH  12  14
ENDBRANCH  11  12
BRANCH   1  18
HETATM   18  C3  UNL     1      32.099  76.511  20.355  1.00  0.00     0.053 C 
BRANCH  18  19
HETATM   19  C2  UNL     1      31.430  76.081  19.067  1.00  0.00     0.001 C 
HETATM   20  C1  UNL     1      31.061  77.362  18.327  1.00  0.00     0.005 C 
ENDBRANCH  18  19
ENDBRANCH   1  18
TORSDOF 5
ENDMDL
MODEL 4
REMARK VINA RESULT: -5.785524919      1.189      1.776
REMARK  5 active torsions:
REMARK  status: ('A' for Active; 'I' for Inactive)
REMARK    1  A    between atoms: C2_2  and  C3_3 
REMARK    2  A    between atoms: C3_3  and  C4_4 
REMARK    3  A    between atoms: C9_14  and  C10_15 
REMARK    4  A    between atoms: C10_15  and  O2_17 
REMARK    5  A    between atoms: O2_17  and  C11_18 
ROOT
HETATM    1  C4  UNL     1      31.837  77.108  20.488  1.00  0.00     0.005 C 
HETATM    2  N1  UNL     1      31.778  78.319  20.895  1.00  0.00    -0.340 N 
ATOM      3  H1  UNL     1      31.959  79.062  20.220  1.00  0.00     0.167 HD
HETATM    4  C5  UNL     1      31.477  78.683  22.220  1.00  0.00     0.172 C 
HETATM    5  S1  UNL     1      31.407  80.222  22.687  1.00  0.00    -0.041 SA
HETATM    6  N2  UNL     1      31.231  77.610  23.131  1.00  0.00    -0.357 N 
ATOM      7  H2  UNL     1      30.644  77.723  23.957  1.00  0.00     0.162 HD
HETATM    8  C6  UNL     1      31.878  76.331  22.800  1.00  0.00     0.043 C 
HETATM    9  C7  UNL     1      31.322  75.309  23.777  1.00  0.00     0.039 C 
HETATM   10  C8  UNL     1      33.340  76.494  23.060  1.00  0.00     0.039 C 
HETATM   11  C9  UNL     1      31.560  76.000  21.383  1.00  0.00     0.158 C 
ENDROOT
BRANCH  11  12
HETATM   12  C10 UNL     1      32.167  74.719  20.942  1.00  0.00     0.271 C 
HETATM   13  O1  UNL     1      33.394  74.554  21.040  1.00  0.00    -0.264 OA
BRANCH  12  14
HETATM   14  O2  UNL     1      31.414  73.685  20.420  1.00  0.00    -0.316 OA
BRANCH  14  15
HETATM   15  C11 UNL     1      31.617  73.120  19.152  1.00  0.00     0.123 C 
HETATM   16  C12 UNL     1      30.270  72.682  18.562  1.00  0.00     0.040 C 
HETATM   17  C13 UNL     1      32.513  71.926  19.148  1.00  0.00     0.040 C 
ENDBRANCH  14  15
ENDBRANCH  12  14
ENDBRANCH  11  12
BRANCH   1  18
HETATM   18  C3  UNL     1      32.173  76.886  19.048  1.00  0.00     0.053 C 
BRANCH  18  19
HETATM   19  C2  UNL     1      31.034  77.315  18.148  1.00  0.00     0.001 C 
HETATM   20  C1  UNL     1      30.783  76.156  17.190  1.00  0.00     0.005 C 
ENDBRANCH  18  19
ENDBRANCH   1  18
TORSDOF 5
ENDMDL
MODEL 5
REMARK VINA RESULT: -5.674305679      2.254      3.825
REMARK  5 active torsions:
REMARK  status: ('A' for Active; 'I' for Inactive)
REMARK    1  A    between atoms: C2_2  and  C3_3 
REMARK    2  A    between atoms: C3_3  and  C4_4 
REMARK    3  A    between atoms: C9_14  and  C10_15 
REMARK    4  A    between atoms: C10_15  and  O2_17 
REMARK    5  A    between atoms: O2_17  and  C11_18 
ROOT
HETATM    1  C4  UNL     1      32.025  77.312  21.570  1.00  0.00     0.005 C 
HETATM    2  N1  UNL     1      31.689  77.712  20.403  1.00  0.00    -0.340 N 
ATOM      3  H1  UNL     1      31.130  78.561  20.328  1.00  0.00     0.167 HD
HETATM    4  C5  UNL     1      32.049  77.046  19.217  1.00  0.00     0.172 C 
HETATM    5  S1  UNL     1      31.610  77.590  17.767  1.00  0.00    -0.041 SA
HETATM    6  N2  UNL     1      32.833  75.861  19.369  1.00  0.00    -0.357 N 
ATOM      7  H2  UNL     1      33.464  75.530  18.639  1.00  0.00     0.162 HD
HETATM    8  C6  UNL     1      32.671  75.149  20.646  1.00  0.00     0.043 C 
HETATM    9  C7  UNL     1      33.727  74.058  20.660  1.00  0.00     0.039 C 
HETATM   10  C8  UNL     1      31.321  74.507  20.627  1.00  0.00     0.039 C 
HETATM   11  C9  UNL     1      32.846  76.130  21.753  1.00  0.00     0.158 C 
ENDROOT
BRANCH  11  12
HETATM   12  C10 UNL     1      32.703  75.513  23.095  1.00  0.00     0.271 C 
HETATM   13  O1  UNL     1      32.010  76.074  23.960  1.00  0.00    -0.264 OA
BRANCH  12  14
HETATM   14  O2  UNL     1      33.319  74.322  23.431  1.00  0.00    -0.316 OA
BRANCH  14  15
HETATM   15  C11 UNL     1      32.738  73.330  24.234  1.00  0.00     0.123 C 
HETATM   16  C12 UNL     1      33.797  72.745  25.178  1.00  0.00     0.040 C 
HETATM   17  C13 UNL     1      32.146  72.192  23.471  1.00  0.00     0.040 C 
ENDBRANCH  14  15
ENDBRANCH  12  14
ENDBRANCH  11  12
BRANCH   1  18
HETATM   18  C3  UNL     1      31.559  78.130  22.733  1.00  0.00     0.053 C 
BRANCH  18  19
HETATM   19  C2  UNL     1      31.007  79.463  22.277  1.00  0.00     0.001 C 
HETATM   20  C1  UNL     1      31.739  80.530  23.084  1.00  0.00     0.005 C 
ENDBRANCH  18  19
ENDBRANCH   1  18
TORSDOF 5
ENDMDL
