MODEL 1
REMARK VINA RESULT: -7.194901104      0.000      0.000
REMARK  5 active torsions:
REMARK  status: ('A' for Active; 'I' for Inactive)
REMARK    1  A    between atoms: C2_2  and  N1_3 
REMARK    2  A    between atoms: N1_3  and  C3_4 
REMARK    3  A    between atoms: N1_3  and  C5_6 
REMARK    4  A    between atoms: C5_6  and  C6_7 
REMARK    5  A    between atoms: C6_7  and  N2_8 
ROOT
HETATM    1  N2  UNL     1      32.528  75.223  22.653  1.00  0.00    -0.353 N 
ATOM      2  H2  UNL     1      32.418  74.628  21.832  1.00  0.00     0.166 HD
HETATM    3  C7  UNL     1      32.283  76.415  22.388  1.00  0.00     0.119 A 
HETATM    4  N3  UNL     1      32.284  77.608  23.139  1.00  0.00    -0.330 N 
ATOM      5  H3  UNL     1      32.519  77.684  24.128  1.00  0.00     0.168 HD
HETATM    6  C8  UNL     1      31.899  78.703  22.286  1.00  0.00     0.137 A 
HETATM    7  S1  UNL     1      31.777  80.270  22.789  1.00  0.00    -0.057 SA
HETATM    8  C9  UNL     1      31.649  78.166  20.954  1.00  0.00     0.128 A 
HETATM    9  O1  UNL     1      31.290  78.489  19.719  1.00  0.00    -0.311 OA
HETATM   10  C10 UNL     1      31.257  77.447  18.934  1.00  0.00     0.057 A 
HETATM   11  C11 UNL     1      30.914  77.337  17.488  1.00  0.00     0.077 C 
HETATM   12  C12 UNL     1      31.628  76.358  19.731  1.00  0.00    -0.016 A 
HETATM   13  C13 UNL     1      31.744  74.946  19.294  1.00  0.00     0.052 C 
HETATM   14  C14 UNL     1      31.874  76.818  21.009  1.00  0.00     0.053 A 
ENDROOT
BRANCH   1  15
HETATM   15  C6  UNL     1      32.915  74.482  23.776  1.00  0.00     0.092 C 
BRANCH  15  16
HETATM   16  C5  UNL     1      33.673  73.269  23.291  1.00  0.00     0.317 C 
BRANCH  16  17
HETATM   17  N1  UNL     1      32.930  72.466  22.298  1.00  0.00     0.092 N 
BRANCH  17  18
HETATM   18  C2  UNL     1      32.490  71.297  23.115  1.00  0.00     0.268 C 
HETATM   19  C1  UNL     1      33.710  70.713  23.764  1.00  0.00     0.037 C 
ENDBRANCH  17  18
BRANCH  17  20
HETATM   20  C3  UNL     1      33.974  71.995  21.391  1.00  0.00     0.268 C 
HETATM   21  C4  UNL     1      34.748  73.098  20.731  1.00  0.00     0.037 C 
ENDBRANCH  17  20
ENDBRANCH  16  17
ENDBRANCH  15  16
ENDBRANCH   1  15
TORSDOF 5
ENDMDL
MODEL 2
REMARK VINA RESULT: -7.035252544      0.511      1.523
REMARK  5 active torsions:
REMARK  status: ('A' for Active; 'I' for Inactive)
REMARK    1  A    between atoms: C2_2  and  N1_3 
REMARK    2  A    between atoms: N1_3  and  C3_4 
REMARK    3  A    between atoms: N1_3  and  C5_6 
REMARK    4  A    between atoms: C5_6  and  C6_7 
REMARK    5  A    between atoms: C6_7  and  N2_8 
ROOT
HETATM    1  N2  UNL     1      32.533  75.173  22.589  1.00  0.00    -0.353 N 
ATOM      2  H2  UNL     1      32.422  74.593  21.756  1.00  0.00     0.166 HD
HETATM    3  C7  UNL     1      32.290  76.369  22.346  1.00  0.00     0.119 A 
HETATM    4  N3  UNL     1      32.292  77.549  23.119  1.00  0.00    -0.330 N 
ATOM      5  H3  UNL     1      32.528  77.606  24.109  1.00  0.00     0.168 HD
HETATM    6  C8  UNL     1      31.909  78.660  22.286  1.00  0.00     0.137 A 
HETATM    7  S1  UNL     1      31.790  80.218  22.819  1.00  0.00    -0.057 SA
HETATM    8  C9  UNL     1      31.658  78.149  20.945  1.00  0.00     0.128 A 
HETATM    9  O1  UNL     1      31.299  78.495  19.716  1.00  0.00    -0.311 OA
HETATM   10  C10 UNL     1      31.265  77.468  18.912  1.00  0.00     0.057 A 
HETATM   11  C11 UNL     1      30.921  77.385  17.464  1.00  0.00     0.077 C 
HETATM   12  C12 UNL     1      31.633  76.363  19.688  1.00  0.00    -0.016 A 
HETATM   13  C13 UNL     1      31.747  74.960  19.225  1.00  0.00     0.052 C 
HETATM   14  C14 UNL     1      31.881  76.799  20.975  1.00  0.00     0.053 A 
ENDROOT
BRANCH   1  15
HETATM   15  C6  UNL     1      32.918  74.410  23.697  1.00  0.00     0.092 C 
BRANCH  15  16
HETATM   16  C5  UNL     1      32.613  72.963  23.391  1.00  0.00     0.317 C 
BRANCH  16  17
HETATM   17  N1  UNL     1      33.802  72.179  22.997  1.00  0.00     0.092 N 
BRANCH  17  18
HETATM   18  C2  UNL     1      33.528  71.907  21.555  1.00  0.00     0.268 C 
HETATM   19  C1  UNL     1      34.492  72.728  20.749  1.00  0.00     0.037 C 
ENDBRANCH  17  18
BRANCH  17  20
HETATM   20  C3  UNL     1      33.635  70.920  23.719  1.00  0.00     0.268 C 
HETATM   21  C4  UNL     1      33.675  69.705  22.838  1.00  0.00     0.037 C 
ENDBRANCH  17  20
ENDBRANCH  16  17
ENDBRANCH  15  16
ENDBRANCH   1  15
TORSDOF 5
ENDMDL
MODEL 3
REMARK VINA RESULT: -6.882055398      2.124      3.353
REMARK  5 active torsions:
REMARK  status: ('A' for Active; 'I' for Inactive)
REMARK    1  A    between atoms: C2_2  and  N1_3 
REMARK    2  A    between atoms: N1_3  and  C3_4 
REMARK    3  A    between atoms: N1_3  and  C5_6 
REMARK    4  A    between atoms: C5_6  and  C6_7 
REMARK    5  A    between atoms: C6_7  and  N2_8 
ROOT
HETATM    1  N2  UNL     1      32.369  74.316  20.840  1.00  0.00    -0.353 N 
ATOM      2  H2  UNL     1      32.576  74.630  21.789  1.00  0.00     0.166 HD
HETATM    3  C7  UNL     1      31.971  75.255  20.126  1.00  0.00     0.119 A 
HETATM    4  N3  UNL     1      31.564  75.361  18.780  1.00  0.00    -0.330 N 
ATOM      5  H3  UNL     1      31.526  74.593  18.111  1.00  0.00     0.168 HD
HETATM    6  C8  UNL     1      31.212  76.730  18.500  1.00  0.00     0.137 A 
HETATM    7  S1  UNL     1      30.687  77.269  17.032  1.00  0.00    -0.057 SA
HETATM    8  C9  UNL     1      31.409  77.501  19.721  1.00  0.00     0.128 A 
HETATM    9  O1  UNL     1      31.318  78.715  20.248  1.00  0.00    -0.311 OA
HETATM   10  C10 UNL     1      31.674  78.728  21.503  1.00  0.00     0.057 A 
HETATM   11  C11 UNL     1      31.728  79.852  22.481  1.00  0.00     0.077 C 
HETATM   12  C12 UNL     1      32.024  77.409  21.814  1.00  0.00    -0.016 A 
HETATM   13  C13 UNL     1      32.495  76.909  23.127  1.00  0.00     0.052 C 
HETATM   14  C14 UNL     1      31.856  76.636  20.682  1.00  0.00     0.053 A 
ENDROOT
BRANCH   1  15
HETATM   15  C6  UNL     1      32.610  72.945  20.689  1.00  0.00     0.092 C 
BRANCH  15  16
HETATM   16  C5  UNL     1      32.442  72.295  22.042  1.00  0.00     0.317 C 
BRANCH  16  17
HETATM   17  N1  UNL     1      33.713  72.120  22.776  1.00  0.00     0.092 N 
BRANCH  17  18
HETATM   18  C2  UNL     1      34.065  70.707  22.450  1.00  0.00     0.268 C 
HETATM   19  C1  UNL     1      33.299  69.822  23.389  1.00  0.00     0.037 C 
ENDBRANCH  17  18
BRANCH  17  20
HETATM   20  C3  UNL     1      33.306  72.156  24.178  1.00  0.00     0.268 C 
HETATM   21  C4  UNL     1      32.754  73.481  24.617  1.00  0.00     0.037 C 
ENDBRANCH  17  20
ENDBRANCH  16  17
ENDBRANCH  15  16
ENDBRANCH   1  15
TORSDOF 5
ENDMDL
MODEL 4
REMARK VINA RESULT: -6.863888248      0.886      1.162
REMARK  5 active torsions:
REMARK  status: ('A' for Active; 'I' for Inactive)
REMARK    1  A    between atoms: C2_2  and  N1_3 
REMARK    2  A    between atoms: N1_3  and  C3_4 
REMARK    3  A    between atoms: N1_3  and  C5_6 
REMARK    4  A    between atoms: C5_6  and  C6_7 
REMARK    5  A    between atoms: C6_7  and  N2_8 
ROOT
HETATM    1  N2  UNL     1      33.016  75.348  22.326  1.00  0.00    -0.353 N 
ATOM      2  H2  UNL     1      32.963  74.787  21.475  1.00  0.00     0.166 HD
HETATM    3  C7  UNL     1      32.564  76.493  22.144  1.00  0.00     0.119 A 
HETATM    4  N3  UNL     1      32.407  77.629  22.965  1.00  0.00    -0.330 N 
ATOM      5  H3  UNL     1      32.678  77.692  23.946  1.00  0.00     0.168 HD
HETATM    6  C8  UNL     1      31.802  78.687  22.197  1.00  0.00     0.137 A 
HETATM    7  S1  UNL     1      31.450  80.183  22.798  1.00  0.00    -0.057 SA
HETATM    8  C9  UNL     1      31.575  78.186  20.847  1.00  0.00     0.128 A 
HETATM    9  O1  UNL     1      31.103  78.509  19.650  1.00  0.00    -0.311 OA
HETATM   10  C10 UNL     1      31.202  77.519  18.806  1.00  0.00     0.057 A 
HETATM   11  C11 UNL     1      30.807  77.428  17.372  1.00  0.00     0.077 C 
HETATM   12  C12 UNL     1      31.789  76.467  19.519  1.00  0.00    -0.016 A 
HETATM   13  C13 UNL     1      32.113  75.119  18.993  1.00  0.00     0.052 C 
HETATM   14  C14 UNL     1      32.022  76.894  20.811  1.00  0.00     0.053 A 
ENDROOT
BRANCH   1  15
HETATM   15  C6  UNL     1      33.578  74.624  23.384  1.00  0.00     0.092 C 
BRANCH  15  16
HETATM   16  C5  UNL     1      33.746  73.194  22.928  1.00  0.00     0.317 C 
BRANCH  16  17
HETATM   17  N1  UNL     1      33.147  72.921  21.605  1.00  0.00     0.092 N 
BRANCH  17  18
HETATM   18  C2  UNL     1      31.894  72.200  21.977  1.00  0.00     0.268 C 
HETATM   19  C1  UNL     1      30.755  72.886  21.282  1.00  0.00     0.037 C 
ENDBRANCH  17  18
BRANCH  17  20
HETATM   20  C3  UNL     1      34.056  71.942  21.015  1.00  0.00     0.268 C 
HETATM   21  C4  UNL     1      35.244  72.551  20.330  1.00  0.00     0.037 C 
ENDBRANCH  17  20
ENDBRANCH  16  17
ENDBRANCH  15  16
ENDBRANCH   1  15
TORSDOF 5
ENDMDL
MODEL 5
REMARK VINA RESULT: -6.837833386      2.031      3.406
REMARK  5 active torsions:
REMARK  status: ('A' for Active; 'I' for Inactive)
REMARK    1  A    between atoms: C2_2  and  N1_3 
REMARK    2  A    between atoms: N1_3  and  C3_4 
REMARK    3  A    between atoms: N1_3  and  C5_6 
REMARK    4  A    between atoms: C5_6  and  C6_7 
REMARK    5  A    between atoms: C6_7  and  N2_8 
ROOT
HETATM    1  N2  UNL     1      33.138  74.575  20.552  1.00  0.00    -0.353 N 
ATOM      2  H2  UNL     1      33.280  74.869  21.518  1.00  0.00     0.166 HD
HETATM    3  C7  UNL     1      32.538  75.444  19.894  1.00  0.00     0.119 A 
HETATM    4  N3  UNL     1      32.106  75.539  18.555  1.00  0.00    -0.330 N 
ATOM      5  H3  UNL     1      32.230  74.822  17.842  1.00  0.00     0.168 HD
HETATM    6  C8  UNL     1      31.461  76.812  18.356  1.00  0.00     0.137 A 
HETATM    7  S1  UNL     1      30.818  77.309  16.920  1.00  0.00    -0.057 SA
HETATM    8  C9  UNL     1      31.496  77.534  19.621  1.00  0.00     0.128 A 
HETATM    9  O1  UNL     1      31.148  78.665  20.219  1.00  0.00    -0.311 OA
HETATM   10  C10 UNL     1      31.504  78.682  21.474  1.00  0.00     0.057 A 
HETATM   11  C11 UNL     1      31.321  79.731  22.517  1.00  0.00     0.077 C 
HETATM   12  C12 UNL     1      32.136  77.456  21.707  1.00  0.00    -0.016 A 
HETATM   13  C13 UNL     1      32.717  76.994  22.990  1.00  0.00     0.052 C 
HETATM   14  C14 UNL     1      32.130  76.732  20.531  1.00  0.00     0.053 A 
ENDROOT
BRANCH   1  15
HETATM   15  C6  UNL     1      33.670  73.300  20.321  1.00  0.00     0.092 C 
BRANCH  15  16
HETATM   16  C5  UNL     1      33.988  72.683  21.662  1.00  0.00     0.317 C 
BRANCH  16  17
HETATM   17  N1  UNL     1      32.909  72.842  22.658  1.00  0.00     0.092 N 
BRANCH  17  18
HETATM   18  C2  UNL     1      33.656  73.357  23.843  1.00  0.00     0.268 C 
HETATM   19  C1  UNL     1      32.649  73.681  24.907  1.00  0.00     0.037 C 
ENDBRANCH  17  18
BRANCH  17  20
HETATM   20  C3  UNL     1      32.512  71.468  22.955  1.00  0.00     0.268 C 
HETATM   21  C4  UNL     1      33.668  70.533  23.161  1.00  0.00     0.037 C 
ENDBRANCH  17  20
ENDBRANCH  16  17
ENDBRANCH  15  16
ENDBRANCH   1  15
TORSDOF 5
ENDMDL
