MODEL 1
REMARK VINA RESULT: -7.058076171      0.000      0.000
REMARK  11 active torsions:
REMARK  status: ('A' for Active; 'I' for Inactive)
REMARK    1  A    between atoms: C2_5  and  N3_6 
REMARK    2  A    between atoms: C2_5  and  C6_19 
REMARK    3  A    between atoms: N3_6  and  C3_8 
REMARK    4  A    between atoms: C4_11  and  N5_12 
REMARK    5  A    between atoms: N5_12  and  C5_14 
REMARK    6  A    between atoms: C6_19  and  O2_20 
REMARK    7  A    between atoms: C6_19  and  C7_22 
REMARK    8  A    between atoms: C7_22  and  S2_23 
REMARK    9  A    between atoms: S2_23  and  C8_24 
REMARK   10  A    between atoms: C10_26  and  N7_27 
REMARK   11  A    between atoms: C13_33  and  N9_34 
ROOT
HETATM    1  N1  UNL     1      26.408 -30.371  14.552  1.00  0.00    -0.172 NA
HETATM    2  C1  UNL     1      26.136 -30.918  13.569  1.00  0.00     0.183 C 
HETATM    3  N2  UNL     1      25.826 -31.587  12.407  1.00  0.00    -0.281 N 
ATOM      4  H2  UNL     1      26.549 -31.595  11.689  1.00  0.00     0.179 HD
HETATM    5  C2  UNL     1      24.750 -32.196  12.121  1.00  0.00     0.118 C 
ENDROOT
BRANCH   5   6
HETATM    6  N3  UNL     1      23.660 -32.267  13.022  1.00  0.00    -0.336 N 
ATOM      7  H3  UNL     1      22.742 -31.953  12.706  1.00  0.00     0.164 HD
BRANCH   6   8
HETATM    8  C3  UNL     1      23.795 -32.766  14.373  1.00  0.00     0.394 C 
HETATM    9  N4  UNL     1      23.552 -34.163  14.521  1.00  0.00    -0.122 NA
HETATM   10  S1  UNL     1      21.833 -34.165  15.011  1.00  0.00    -0.007 SA
HETATM   11  C4  UNL     1      21.707 -32.366  15.367  1.00  0.00     0.370 C 
HETATM   12  N6  UNL     1      23.093 -32.013  15.348  1.00  0.00    -0.008 N 
ATOM     13  H62 UNL     1      23.517 -32.103  16.271  1.00  0.00     0.284 HD
ATOM     14  H61 UNL     1      23.225 -31.010  15.215  1.00  0.00     0.284 HD
BRANCH  11  15
HETATM   15  N5  UNL     1      21.225 -32.149  16.710  1.00  0.00    -0.331 N 
ATOM     16  H5  UNL     1      20.224 -32.224  16.891  1.00  0.00     0.164 HD
BRANCH  15  17
HETATM   17  C5  UNL     1      22.092 -31.836  17.783  1.00  0.00     0.350 C 
HETATM   18  O1  UNL     1      23.076 -32.592  18.092  1.00  0.00    -0.284 OA
ENDBRANCH  15  17
ENDBRANCH  11  15
ENDBRANCH   6   8
ENDBRANCH   5   6
BRANCH   5  19
HETATM   19  C6  UNL     1      24.614 -32.866  10.797  1.00  0.00     0.195 C 
BRANCH  19  20
HETATM   20  O2  UNL     1      25.367 -34.058  10.771  1.00  0.00    -0.387 OA
ATOM     21  H2  UNL     1      25.020 -34.655  10.119  1.00  0.00     0.210 HD
ENDBRANCH  19  20
BRANCH  19  22
HETATM   22  C7  UNL     1      25.240 -31.950   9.778  1.00  0.00     0.119 C 
BRANCH  22  23
HETATM   23  S2  UNL     1      26.825 -32.552   9.163  1.00  0.00    -0.124 SA
BRANCH  23  24
HETATM   24  C8  UNL     1      28.188 -31.928  10.108  1.00  0.00     0.038 A 
HETATM   25  C9  UNL     1      28.449 -30.558  10.102  1.00  0.00     0.057 A 
HETATM   26  C10 UNL     1      29.467 -29.985  10.826  1.00  0.00     0.106 A 
HETATM   27  C11 UNL     1      30.254 -30.800  11.584  1.00  0.00     0.065 A 
HETATM   28  C12 UNL     1      30.014 -32.156  11.607  1.00  0.00     0.083 A 
HETATM   29  N8  UNL     1      30.875 -32.956  12.423  1.00  0.00    -0.100 NA
HETATM   30  C13 UNL     1      28.986 -32.733  10.875  1.00  0.00     0.143 A 
BRANCH  26  31
HETATM   31  N7  UNL     1      29.692 -28.581  10.785  1.00  0.00    -0.116 N 
HETATM   32  O3  UNL     1      30.773 -28.102  10.400  1.00  0.00    -0.532 OA
HETATM   33  O4  UNL     1      28.709 -27.710  11.173  1.00  0.00    -0.532 OA
ENDBRANCH  26  31
BRANCH  30  34
HETATM   34  N9  UNL     1      28.784 -34.128  10.967  1.00  0.00    -0.112 N 
HETATM   35  O5  UNL     1      28.061 -34.640  11.853  1.00  0.00    -0.532 OA
HETATM   36  O6  UNL     1      29.385 -34.955  10.075  1.00  0.00    -0.532 OA
ENDBRANCH  30  34
ENDBRANCH  23  24
ENDBRANCH  22  23
ENDBRANCH  19  22
ENDBRANCH   5  19
TORSDOF 11
ENDMDL
MODEL 2
REMARK VINA RESULT: -7.005246658      3.209      6.940
REMARK  11 active torsions:
REMARK  status: ('A' for Active; 'I' for Inactive)
REMARK    1  A    between atoms: C2_5  and  N3_6 
REMARK    2  A    between atoms: C2_5  and  C6_19 
REMARK    3  A    between atoms: N3_6  and  C3_8 
REMARK    4  A    between atoms: C4_11  and  N5_12 
REMARK    5  A    between atoms: N5_12  and  C5_14 
REMARK    6  A    between atoms: C6_19  and  O2_20 
REMARK    7  A    between atoms: C6_19  and  C7_22 
REMARK    8  A    between atoms: C7_22  and  S2_23 
REMARK    9  A    between atoms: S2_23  and  C8_24 
REMARK   10  A    between atoms: C10_26  and  N7_27 
REMARK   11  A    between atoms: C13_33  and  N9_34 
ROOT
HETATM    1  N1  UNL     1      28.990 -34.758  14.469  1.00  0.00    -0.172 NA
HETATM    2  C1  UNL     1      29.194 -33.949  13.668  1.00  0.00     0.183 C 
HETATM    3  N2  UNL     1      29.459 -32.994  12.713  1.00  0.00    -0.281 N 
ATOM      4  H2  UNL     1      29.979 -32.176  13.031  1.00  0.00     0.179 HD
HETATM    5  C2  UNL     1      29.137 -33.006  11.486  1.00  0.00     0.118 C 
ENDROOT
BRANCH   5   6
HETATM    6  N3  UNL     1      28.413 -34.077  10.907  1.00  0.00    -0.336 N 
ATOM      7  H3  UNL     1      27.483 -34.291  11.267  1.00  0.00     0.164 HD
BRANCH   6   8
HETATM    8  C3  UNL     1      28.940 -34.880   9.825  1.00  0.00     0.394 C 
HETATM    9  N4  UNL     1      29.078 -34.194   8.583  1.00  0.00    -0.122 NA
HETATM   10  S1  UNL     1      27.549 -34.639   7.771  1.00  0.00    -0.007 SA
HETATM   11  C4  UNL     1      27.068 -35.980   8.934  1.00  0.00     0.370 C 
HETATM   12  N6  UNL     1      28.294 -36.131   9.657  1.00  0.00    -0.008 N 
ATOM     13  H62 UNL     1      28.908 -36.816   9.217  1.00  0.00     0.284 HD
ATOM     14  H61 UNL     1      28.149 -36.603  10.549  1.00  0.00     0.284 HD
BRANCH  11  15
HETATM   15  N5  UNL     1      26.835 -37.211   8.218  1.00  0.00    -0.331 N 
ATOM     16  H5  UNL     1      25.967 -37.317   7.692  1.00  0.00     0.164 HD
BRANCH  15  17
HETATM   17  C5  UNL     1      27.769 -38.275   8.219  1.00  0.00     0.350 C 
HETATM   18  O1  UNL     1      27.589 -39.322   8.929  1.00  0.00    -0.284 OA
ENDBRANCH  15  17
ENDBRANCH  11  15
ENDBRANCH   6   8
ENDBRANCH   5   6
BRANCH   5  19
HETATM   19  C6  UNL     1      29.526 -31.865  10.611  1.00  0.00     0.195 C 
BRANCH  19  20
HETATM   20  O2  UNL     1      30.892 -31.953  10.269  1.00  0.00    -0.387 OA
ATOM     21  H2  UNL     1      30.990 -32.076   9.332  1.00  0.00     0.210 HD
ENDBRANCH  19  20
BRANCH  19  22
HETATM   22  C7  UNL     1      29.380 -30.612  11.437  1.00  0.00     0.119 C 
BRANCH  22  23
HETATM   23  S2  UNL     1      27.746 -29.860  11.298  1.00  0.00    -0.124 SA
BRANCH  23  24
HETATM   24  C8  UNL     1      26.458 -31.074  11.223  1.00  0.00     0.038 A 
HETATM   25  C9  UNL     1      26.019 -31.525   9.979  1.00  0.00     0.057 A 
HETATM   26  C10 UNL     1      25.045 -32.483   9.829  1.00  0.00     0.106 A 
HETATM   27  C11 UNL     1      24.485 -33.012  10.954  1.00  0.00     0.065 A 
HETATM   28  C12 UNL     1      24.903 -32.583  12.193  1.00  0.00     0.083 A 
HETATM   29  N8  UNL     1      24.277 -33.178  13.334  1.00  0.00    -0.100 NA
HETATM   30  C13 UNL     1      25.886 -31.616  12.343  1.00  0.00     0.143 A 
BRANCH  26  31
HETATM   31  N7  UNL     1      24.633 -32.909   8.535  1.00  0.00    -0.116 N 
HETATM   32  O3  UNL     1      24.117 -34.025   8.347  1.00  0.00    -0.532 OA
HETATM   33  O4  UNL     1      24.796 -32.089   7.451  1.00  0.00    -0.532 OA
ENDBRANCH  26  31
BRANCH  30  34
HETATM   34  N9  UNL     1      26.282 -31.242  13.647  1.00  0.00    -0.112 N 
HETATM   35  O5  UNL     1      27.347 -31.652  14.163  1.00  0.00    -0.532 OA
HETATM   36  O6  UNL     1      25.494 -30.415  14.378  1.00  0.00    -0.532 OA
ENDBRANCH  30  34
ENDBRANCH  23  24
ENDBRANCH  22  23
ENDBRANCH  19  22
ENDBRANCH   5  19
TORSDOF 11
ENDMDL
MODEL 3
REMARK VINA RESULT: -6.982134010      3.815      9.149
REMARK  11 active torsions:
REMARK  status: ('A' for Active; 'I' for Inactive)
REMARK    1  A    between atoms: C2_5  and  N3_6 
REMARK    2  A    between atoms: C2_5  and  C6_19 
REMARK    3  A    between atoms: N3_6  and  C3_8 
REMARK    4  A    between atoms: C4_11  and  N5_12 
REMARK    5  A    between atoms: N5_12  and  C5_14 
REMARK    6  A    between atoms: C6_19  and  O2_20 
REMARK    7  A    between atoms: C6_19  and  C7_22 
REMARK    8  A    between atoms: C7_22  and  S2_23 
REMARK    9  A    between atoms: S2_23  and  C8_24 
REMARK   10  A    between atoms: C10_26  and  N7_27 
REMARK   11  A    between atoms: C13_33  and  N9_34 
ROOT
HETATM    1  N1  UNL     1      27.895 -25.102   9.885  1.00  0.00    -0.172 NA
HETATM    2  C1  UNL     1      28.335 -26.066  10.351  1.00  0.00     0.183 C 
HETATM    3  N2  UNL     1      28.841 -27.225  10.892  1.00  0.00    -0.281 N 
ATOM      4  H2  UNL     1      28.314 -27.624  11.669  1.00  0.00     0.179 HD
HETATM    5  C2  UNL     1      29.884 -27.859  10.543  1.00  0.00     0.118 C 
ENDROOT
BRANCH   5   6
HETATM    6  N3  UNL     1      30.713 -27.422   9.482  1.00  0.00    -0.336 N 
ATOM      7  H3  UNL     1      30.610 -27.862   8.568  1.00  0.00     0.164 HD
BRANCH   6   8
HETATM    8  C3  UNL     1      31.700 -26.378   9.642  1.00  0.00     0.394 C 
HETATM    9  N4  UNL     1      31.759 -25.441   8.570  1.00  0.00    -0.122 NA
HETATM   10  S1  UNL     1      33.081 -26.128   7.582  1.00  0.00    -0.007 SA
HETATM   11  C4  UNL     1      33.696 -27.318   8.842  1.00  0.00     0.370 C 
HETATM   12  N6  UNL     1      32.993 -26.844   9.993  1.00  0.00    -0.008 N 
ATOM     13  H62 UNL     1      33.526 -26.133  10.494  1.00  0.00     0.284 HD
ATOM     14  H61 UNL     1      32.952 -27.551  10.727  1.00  0.00     0.284 HD
BRANCH  11  15
HETATM   15  N5  UNL     1      35.105 -27.116   9.083  1.00  0.00    -0.331 N 
ATOM     16  H5  UNL     1      35.717 -27.931   9.131  1.00  0.00     0.164 HD
BRANCH  15  17
HETATM   17  C5  UNL     1      35.665 -25.828   9.254  1.00  0.00     0.350 C 
HETATM   18  O1  UNL     1      35.361 -25.092  10.254  1.00  0.00    -0.284 OA
ENDBRANCH  15  17
ENDBRANCH  11  15
ENDBRANCH   6   8
ENDBRANCH   5   6
BRANCH   5  19
HETATM   19  C6  UNL     1      30.261 -29.108  11.264  1.00  0.00     0.195 C 
BRANCH  19  20
HETATM   20  O2  UNL     1      31.612 -29.055  11.663  1.00  0.00    -0.387 OA
ATOM     21  H2  UNL     1      31.683 -28.716  12.547  1.00  0.00     0.210 HD
ENDBRANCH  19  20
BRANCH  19  22
HETATM   22  C7  UNL     1      30.160 -30.234  10.267  1.00  0.00     0.119 C 
BRANCH  22  23
HETATM   23  S2  UNL     1      29.831 -31.832  11.035  1.00  0.00    -0.124 SA
BRANCH  23  24
HETATM   24  C8  UNL     1      28.219 -32.448  10.631  1.00  0.00     0.038 A 
HETATM   25  C9  UNL     1      28.004 -33.017   9.377  1.00  0.00     0.057 A 
HETATM   26  C10 UNL     1      26.794 -33.544   8.990  1.00  0.00     0.106 A 
HETATM   27  C11 UNL     1      25.762 -33.503   9.878  1.00  0.00     0.065 A 
HETATM   28  C12 UNL     1      25.951 -32.946  11.123  1.00  0.00     0.083 A 
HETATM   29  N8  UNL     1      24.828 -32.935  12.009  1.00  0.00    -0.100 NA
HETATM   30  C13 UNL     1      27.173 -32.415  11.512  1.00  0.00     0.143 A 
BRANCH  26  31
HETATM   31  N7  UNL     1      26.627 -34.115   7.697  1.00  0.00    -0.116 N 
HETATM   32  O3  UNL     1      27.498 -34.838   7.183  1.00  0.00    -0.532 OA
HETATM   33  O4  UNL     1      25.485 -33.879   6.978  1.00  0.00    -0.532 OA
ENDBRANCH  26  31
BRANCH  30  34
HETATM   34  N9  UNL     1      27.300 -31.882  12.815  1.00  0.00    -0.112 N 
HETATM   35  O5  UNL     1      26.992 -30.697  13.082  1.00  0.00    -0.532 OA
HETATM   36  O6  UNL     1      27.769 -32.664  13.819  1.00  0.00    -0.532 OA
ENDBRANCH  30  34
ENDBRANCH  23  24
ENDBRANCH  22  23
ENDBRANCH  19  22
ENDBRANCH   5  19
TORSDOF 11
ENDMDL
MODEL 4
REMARK VINA RESULT: -6.881318997      3.497      8.699
REMARK  11 active torsions:
REMARK  status: ('A' for Active; 'I' for Inactive)
REMARK    1  A    between atoms: C2_5  and  N3_6 
REMARK    2  A    between atoms: C2_5  and  C6_19 
REMARK    3  A    between atoms: N3_6  and  C3_8 
REMARK    4  A    between atoms: C4_11  and  N5_12 
REMARK    5  A    between atoms: N5_12  and  C5_14 
REMARK    6  A    between atoms: C6_19  and  O2_20 
REMARK    7  A    between atoms: C6_19  and  C7_22 
REMARK    8  A    between atoms: C7_22  and  S2_23 
REMARK    9  A    between atoms: S2_23  and  C8_24 
REMARK   10  A    between atoms: C10_26  and  N7_27 
REMARK   11  A    between atoms: C13_33  and  N9_34 
ROOT
HETATM    1  N1  UNL     1      28.267 -26.728  11.192  1.00  0.00    -0.172 NA
HETATM    2  C1  UNL     1      28.693 -27.803  11.240  1.00  0.00     0.183 C 
HETATM    3  N2  UNL     1      29.179 -29.089  11.285  1.00  0.00    -0.281 N 
ATOM      4  H2  UNL     1      28.743 -29.709  11.967  1.00  0.00     0.179 HD
HETATM    5  C2  UNL     1      30.104 -29.599  10.582  1.00  0.00     0.118 C 
ENDROOT
BRANCH   5   6
HETATM    6  N3  UNL     1      30.799 -28.856   9.596  1.00  0.00    -0.336 N 
ATOM      7  H3  UNL     1      30.406 -28.802   8.657  1.00  0.00     0.164 HD
BRANCH   6   8
HETATM    8  C3  UNL     1      32.044 -28.172   9.868  1.00  0.00     0.394 C 
HETATM    9  N4  UNL     1      31.916 -26.982  10.641  1.00  0.00    -0.122 NA
HETATM   10  S1  UNL     1      31.858 -25.739   9.357  1.00  0.00    -0.007 SA
HETATM   11  C4  UNL     1      32.407 -26.826   7.980  1.00  0.00     0.370 C 
HETATM   12  N6  UNL     1      32.857 -27.961   8.725  1.00  0.00    -0.008 N 
ATOM     13  H62 UNL     1      33.843 -27.882   8.974  1.00  0.00     0.284 HD
ATOM     14  H61 UNL     1      32.911 -28.797   8.143  1.00  0.00     0.284 HD
BRANCH  11  15
HETATM   15  N5  UNL     1      33.559 -26.261   7.318  1.00  0.00    -0.331 N 
ATOM     16  H5  UNL     1      33.552 -26.183   6.301  1.00  0.00     0.164 HD
BRANCH  15  17
HETATM   17  C5  UNL     1      34.696 -25.812   8.031  1.00  0.00     0.350 C 
HETATM   18  O1  UNL     1      35.390 -26.606   8.753  1.00  0.00    -0.284 OA
ENDBRANCH  15  17
ENDBRANCH  11  15
ENDBRANCH   6   8
ENDBRANCH   5   6
BRANCH   5  19
HETATM   19  C6  UNL     1      30.483 -31.025  10.786  1.00  0.00     0.195 C 
BRANCH  19  20
HETATM   20  O2  UNL     1      29.980 -31.821   9.735  1.00  0.00    -0.387 OA
ATOM     21  H2  UNL     1      30.320 -32.706   9.799  1.00  0.00     0.210 HD
ENDBRANCH  19  20
BRANCH  19  22
HETATM   22  C7  UNL     1      29.782 -31.488  12.037  1.00  0.00     0.119 C 
BRANCH  22  23
HETATM   23  S2  UNL     1      28.966 -33.085  11.842  1.00  0.00    -0.124 SA
BRANCH  23  24
HETATM   24  C8  UNL     1      27.222 -32.914  11.579  1.00  0.00     0.038 A 
HETATM   25  C9  UNL     1      26.447 -32.280  12.549  1.00  0.00     0.057 A 
HETATM   26  C10 UNL     1      25.093 -32.080  12.416  1.00  0.00     0.106 A 
HETATM   27  C11 UNL     1      24.487 -32.527  11.279  1.00  0.00     0.065 A 
HETATM   28  C12 UNL     1      25.232 -33.156  10.308  1.00  0.00     0.083 A 
HETATM   29  N8  UNL     1      24.537 -33.600   9.139  1.00  0.00    -0.100 NA
HETATM   30  C13 UNL     1      26.598 -33.356  10.444  1.00  0.00     0.143 A 
BRANCH  26  31
HETATM   31  N7  UNL     1      24.347 -31.426  13.436  1.00  0.00    -0.116 N 
HETATM   32  O3  UNL     1      23.115 -31.277  13.352  1.00  0.00    -0.532 OA
HETATM   33  O4  UNL     1      24.976 -30.939  14.550  1.00  0.00    -0.532 OA
ENDBRANCH  26  31
BRANCH  30  34
HETATM   34  N9  UNL     1      27.302 -33.987   9.394  1.00  0.00    -0.112 N 
HETATM   35  O5  UNL     1      27.827 -33.338   8.459  1.00  0.00    -0.532 OA
HETATM   36  O6  UNL     1      27.423 -35.338   9.381  1.00  0.00    -0.532 OA
ENDBRANCH  30  34
ENDBRANCH  23  24
ENDBRANCH  22  23
ENDBRANCH  19  22
ENDBRANCH   5  19
TORSDOF 11
ENDMDL
MODEL 5
REMARK VINA RESULT: -6.838179982      4.753      7.110
REMARK  11 active torsions:
REMARK  status: ('A' for Active; 'I' for Inactive)
REMARK    1  A    between atoms: C2_5  and  N3_6 
REMARK    2  A    between atoms: C2_5  and  C6_19 
REMARK    3  A    between atoms: N3_6  and  C3_8 
REMARK    4  A    between atoms: C4_11  and  N5_12 
REMARK    5  A    between atoms: N5_12  and  C5_14 
REMARK    6  A    between atoms: C6_19  and  O2_20 
REMARK    7  A    between atoms: C6_19  and  C7_22 
REMARK    8  A    between atoms: C7_22  and  S2_23 
REMARK    9  A    between atoms: S2_23  and  C8_24 
REMARK   10  A    between atoms: C10_26  and  N7_27 
REMARK   11  A    between atoms: C13_33  and  N9_34 
ROOT
HETATM    1  N1  UNL     1      28.646 -34.242  13.954  1.00  0.00    -0.172 NA
HETATM    2  C1  UNL     1      29.041 -33.437  13.222  1.00  0.00     0.183 C 
HETATM    3  N2  UNL     1      29.529 -32.495  12.346  1.00  0.00    -0.281 N 
ATOM      4  H2  UNL     1      30.347 -31.974  12.659  1.00  0.00     0.179 HD
HETATM    5  C2  UNL     1      29.086 -32.196  11.195  1.00  0.00     0.118 C 
ENDROOT
BRANCH   5   6
HETATM    6  N3  UNL     1      27.956 -32.838  10.631  1.00  0.00    -0.336 N 
ATOM      7  H3  UNL     1      27.165 -33.056  11.236  1.00  0.00     0.164 HD
BRANCH   6   8
HETATM    8  C3  UNL     1      27.880 -33.196   9.232  1.00  0.00     0.394 C 
HETATM    9  N4  UNL     1      26.816 -32.576   8.514  1.00  0.00    -0.122 NA
HETATM   10  S1  UNL     1      25.557 -33.842   8.599  1.00  0.00    -0.007 SA
HETATM   11  C4  UNL     1      26.650 -35.195   9.196  1.00  0.00     0.370 C 
HETATM   12  N6  UNL     1      27.929 -34.591   8.982  1.00  0.00    -0.008 N 
ATOM     13  H62 UNL     1      28.290 -34.794   8.050  1.00  0.00     0.284 HD
ATOM     14  H61 UNL     1      28.657 -35.046   9.532  1.00  0.00     0.284 HD
BRANCH  11  15
HETATM   15  N5  UNL     1      26.561 -36.339   8.322  1.00  0.00    -0.331 N 
ATOM     16  H5  UNL     1      25.793 -36.388   7.652  1.00  0.00     0.164 HD
BRANCH  15  17
HETATM   17  C5  UNL     1      27.503 -37.396   8.361  1.00  0.00     0.350 C 
HETATM   18  O1  UNL     1      28.161 -37.667   9.422  1.00  0.00    -0.284 OA
ENDBRANCH  15  17
ENDBRANCH  11  15
ENDBRANCH   6   8
ENDBRANCH   5   6
BRANCH   5  19
HETATM   19  C6  UNL     1      29.767 -31.139  10.397  1.00  0.00     0.195 C 
BRANCH  19  20
HETATM   20  O2  UNL     1      30.934 -31.653   9.795  1.00  0.00    -0.387 OA
ATOM     21  H2  UNL     1      31.470 -30.946   9.454  1.00  0.00     0.210 HD
ENDBRANCH  19  20
BRANCH  19  22
HETATM   22  C7  UNL     1      30.226 -30.084  11.371  1.00  0.00     0.119 C 
BRANCH  22  23
HETATM   23  S2  UNL     1      29.833 -28.407  10.836  1.00  0.00    -0.124 SA
BRANCH  23  24
HETATM   24  C8  UNL     1      31.262 -27.543  10.245  1.00  0.00     0.038 A 
HETATM   25  C9  UNL     1      31.624 -27.663   8.904  1.00  0.00     0.057 A 
HETATM   26  C10 UNL     1      32.700 -27.007   8.355  1.00  0.00     0.106 A 
HETATM   27  C11 UNL     1      33.444 -26.203   9.167  1.00  0.00     0.065 A 
HETATM   28  C12 UNL     1      33.106 -26.069  10.494  1.00  0.00     0.083 A 
HETATM   29  N8  UNL     1      33.926 -25.210  11.292  1.00  0.00    -0.100 NA
HETATM   30  C13 UNL     1      32.019 -26.731  11.046  1.00  0.00     0.143 A 
BRANCH  26  31
HETATM   31  N7  UNL     1      33.027 -27.163   6.979  1.00  0.00    -0.116 N 
HETATM   32  O3  UNL     1      32.783 -28.216   6.364  1.00  0.00    -0.532 OA
HETATM   33  O4  UNL     1      33.625 -26.143   6.289  1.00  0.00    -0.532 OA
ENDBRANCH  26  31
BRANCH  30  34
HETATM   34  N9  UNL     1      31.717 -26.526  12.412  1.00  0.00    -0.112 N 
HETATM   35  O5  UNL     1      32.243 -27.210  13.320  1.00  0.00    -0.532 OA
HETATM   36  O6  UNL     1      30.832 -25.561  12.767  1.00  0.00    -0.532 OA
ENDBRANCH  30  34
ENDBRANCH  23  24
ENDBRANCH  22  23
ENDBRANCH  19  22
ENDBRANCH   5  19
TORSDOF 11
ENDMDL
