MODEL 1
REMARK VINA RESULT: -8.184806960      0.000      0.000
REMARK  10 active torsions:
REMARK  status: ('A' for Active; 'I' for Inactive)
REMARK    1  A    between atoms: C1_2  and  C2_4 
REMARK    2  A    between atoms: C4_6  and  C5_7 
REMARK    3  A    between atoms: N2_8  and  N3_10 
REMARK       I    between atoms: N3_10  and  C6_12 
REMARK       I    between atoms: C6_12  and  N4_14 
REMARK    4  A    between atoms: N4_14  and  N5_16 
REMARK    5  A    between atoms: C7_18  and  C8_19 
REMARK    6  A    between atoms: C10_21  and  N6_22 
REMARK    7  A    between atoms: C11_26  and  N7_27 
REMARK    8  A    between atoms: C12_30  and  O8_31 
REMARK    9  A    between atoms: C13_33  and  O9_34 
REMARK   10  A    between atoms: C14_36  and  O10_37 
ROOT
HETATM    1  N3  UNL     1      27.834 -32.502  11.399  1.00  0.00    -0.251 N 
ATOM      2  H3  UNL     1      28.293 -33.394  11.213  1.00  0.00     0.191 HD
HETATM    3  C6  UNL     1      28.518 -31.307  11.010  1.00  0.00     0.353 C 
HETATM    4  O2  UNL     1      27.951 -30.218  11.256  1.00  0.00    -0.244 OA
HETATM    5  N4  UNL     1      29.777 -31.393  10.376  1.00  0.00    -0.251 N 
ATOM      6  H4  UNL     1      30.213 -32.295  10.189  1.00  0.00     0.191 HD
ENDROOT
BRANCH   1   7
HETATM    7  N2  UNL     1      26.659 -32.533  11.976  1.00  0.00    -0.307 N 
HETATM    8  C5  UNL     1      25.492 -32.834  11.944  1.00  0.00     0.121 C 
ATOM      9  H2  UNL     1      26.797 -32.093  12.886  1.00  0.00     0.186 HD
BRANCH   8  10
HETATM   10  C4  UNL     1      24.645 -32.525  13.114  1.00  0.00     0.018 A 
HETATM   11  C3  UNL     1      23.626 -33.348  13.470  1.00  0.00     0.035 A 
HETATM   12  C2  UNL     1      22.877 -33.047  14.594  1.00  0.00     0.066 A 
HETATM   13  C14 UNL     1      23.179 -31.930  15.318  1.00  0.00     0.117 A 
HETATM   14  C13 UNL     1      24.214 -31.095  14.955  1.00  0.00     0.134 A 
HETATM   15  C12 UNL     1      24.952 -31.379  13.857  1.00  0.00     0.113 A 
BRANCH  12  16
HETATM   16  C1  UNL     1      21.798 -33.950  14.974  1.00  0.00     0.267 C 
HETATM   17  N1  UNL     1      20.553 -33.394  15.318  1.00  0.00    -0.057 NA
HETATM   18  O1  UNL     1      21.988 -35.186  14.988  1.00  0.00    -0.271 OA
ENDBRANCH  12  16
BRANCH  13  19
HETATM   19  O10 UNL     1      22.415 -31.643  16.449  1.00  0.00    -0.357 OA
ATOM     20  H10 UNL     1      22.855 -31.578  17.289  1.00  0.00     0.217 HD
ENDBRANCH  13  19
BRANCH  14  21
HETATM   21  O9  UNL     1      24.472 -29.959  15.741  1.00  0.00    -0.356 OA
ATOM     22  H9  UNL     1      25.343 -29.767  16.068  1.00  0.00     0.218 HD
ENDBRANCH  14  21
BRANCH  15  23
HETATM   23  O8  UNL     1      26.013 -30.562  13.449  1.00  0.00    -0.357 OA
ATOM     24  H8  UNL     1      25.918 -29.618  13.498  1.00  0.00     0.217 HD
ENDBRANCH  15  23
ENDBRANCH   8  10
ENDBRANCH   1   7
BRANCH   5  25
HETATM   25  N5  UNL     1      30.401 -30.204  10.015  1.00  0.00    -0.307 N 
HETATM   26  C7  UNL     1      30.866 -29.405  10.909  1.00  0.00     0.123 C 
ATOM     27  H5  UNL     1      30.492 -29.963   9.029  1.00  0.00     0.186 HD
BRANCH  26  28
HETATM   28  C8  UNL     1      31.513 -28.174  10.498  1.00  0.00     0.043 A 
HETATM   29  C9  UNL     1      31.831 -27.841   9.162  1.00  0.00     0.080 A 
HETATM   30  C10 UNL     1      32.436 -26.606   9.166  1.00  0.00     0.217 A 
HETATM   31  O5  UNL     1      32.491 -26.200  10.401  1.00  0.00    -0.265 OA
HETATM   32  C11 UNL     1      31.957 -27.093  11.232  1.00  0.00     0.228 A 
BRANCH  30  33
HETATM   33  N6  UNL     1      32.903 -25.931   7.988  1.00  0.00    -0.090 N 
HETATM   34  O3  UNL     1      32.163 -25.092   7.464  1.00  0.00    -0.530 OA
HETATM   35  O4  UNL     1      34.134 -26.203   7.452  1.00  0.00    -0.530 OA
ENDBRANCH  30  33
BRANCH  32  36
HETATM   36  N7  UNL     1      31.864 -26.954  12.643  1.00  0.00    -0.089 N 
HETATM   37  O6  UNL     1      30.987 -26.217  13.182  1.00  0.00    -0.530 OA
HETATM   38  O7  UNL     1      32.701 -27.591  13.516  1.00  0.00    -0.530 OA
ENDBRANCH  32  36
ENDBRANCH  26  28
ENDBRANCH   5  25
TORSDOF 10
ENDMDL
MODEL 2
REMARK VINA RESULT: -7.886752117      1.414      1.655
REMARK  10 active torsions:
REMARK  status: ('A' for Active; 'I' for Inactive)
REMARK    1  A    between atoms: C1_2  and  C2_4 
REMARK    2  A    between atoms: C4_6  and  C5_7 
REMARK    3  A    between atoms: N2_8  and  N3_10 
REMARK       I    between atoms: N3_10  and  C6_12 
REMARK       I    between atoms: C6_12  and  N4_14 
REMARK    4  A    between atoms: N4_14  and  N5_16 
REMARK    5  A    between atoms: C7_18  and  C8_19 
REMARK    6  A    between atoms: C10_21  and  N6_22 
REMARK    7  A    between atoms: C11_26  and  N7_27 
REMARK    8  A    between atoms: C12_30  and  O8_31 
REMARK    9  A    between atoms: C13_33  and  O9_34 
REMARK   10  A    between atoms: C14_36  and  O10_37 
ROOT
HETATM    1  N3  UNL     1      28.737 -32.179  11.914  1.00  0.00    -0.251 N 
ATOM      2  H3  UNL     1      29.431 -32.871  12.195  1.00  0.00     0.191 HD
HETATM    3  C6  UNL     1      29.175 -31.096  11.086  1.00  0.00     0.353 C 
HETATM    4  O2  UNL     1      28.318 -30.244  10.758  1.00  0.00    -0.244 OA
HETATM    5  N4  UNL     1      30.525 -31.026  10.676  1.00  0.00    -0.251 N 
ATOM      6  H4  UNL     1      31.200 -31.736  10.960  1.00  0.00     0.191 HD
ENDROOT
BRANCH   1   7
HETATM    7  N2  UNL     1      27.508 -32.344  12.334  1.00  0.00    -0.307 N 
HETATM    8  C5  UNL     1      26.432 -32.875  12.218  1.00  0.00     0.121 C 
ATOM      9  H2  UNL     1      27.419 -31.732  13.146  1.00  0.00     0.186 HD
BRANCH   8  10
HETATM   10  C4  UNL     1      25.367 -32.543  13.186  1.00  0.00     0.018 A 
HETATM   11  C3  UNL     1      24.369 -33.424  13.449  1.00  0.00     0.035 A 
HETATM   12  C2  UNL     1      23.408 -33.095  14.389  1.00  0.00     0.066 A 
HETATM   13  C14 UNL     1      23.486 -31.892  15.030  1.00  0.00     0.117 A 
HETATM   14  C13 UNL     1      24.500 -30.998  14.762  1.00  0.00     0.134 A 
HETATM   15  C12 UNL     1      25.444 -31.309  13.843  1.00  0.00     0.113 A 
BRANCH  12  16
HETATM   16  C1  UNL     1      22.353 -34.060  14.674  1.00  0.00     0.267 C 
HETATM   17  N1  UNL     1      21.028 -33.596  14.747  1.00  0.00    -0.057 NA
HETATM   18  O1  UNL     1      22.634 -35.266  14.847  1.00  0.00    -0.271 OA
ENDBRANCH  12  16
BRANCH  13  19
HETATM   19  O10 UNL     1      22.511 -31.578  15.976  1.00  0.00    -0.357 OA
ATOM     20  H10 UNL     1      21.615 -31.462  15.683  1.00  0.00     0.217 HD
ENDBRANCH  13  19
BRANCH  14  21
HETATM   21  O9  UNL     1      24.522 -29.775  15.453  1.00  0.00    -0.356 OA
ATOM     22  H9  UNL     1      25.328 -29.286  15.573  1.00  0.00     0.218 HD
ENDBRANCH  14  21
BRANCH  15  23
HETATM   23  O8  UNL     1      26.493 -30.435  13.536  1.00  0.00    -0.357 OA
ATOM     24  H8  UNL     1      26.470 -29.951  12.719  1.00  0.00     0.217 HD
ENDBRANCH  15  23
ENDBRANCH   8  10
ENDBRANCH   1   7
BRANCH   5  25
HETATM   25  N5  UNL     1      30.901 -29.957   9.872  1.00  0.00    -0.307 N 
HETATM   26  C7  UNL     1      31.248 -28.832  10.389  1.00  0.00     0.123 C 
ATOM     27  H5  UNL     1      30.903 -30.066   8.858  1.00  0.00     0.186 HD
BRANCH  26  28
HETATM   28  C8  UNL     1      31.638 -27.738   9.520  1.00  0.00     0.043 A 
HETATM   29  C9  UNL     1      32.818 -27.709   8.743  1.00  0.00     0.080 A 
HETATM   30  C10 UNL     1      32.845 -26.519   8.058  1.00  0.00     0.217 A 
HETATM   31  O5  UNL     1      31.771 -25.857   8.377  1.00  0.00    -0.265 OA
HETATM   32  C11 UNL     1      31.020 -26.536   9.243  1.00  0.00     0.228 A 
BRANCH  30  33
HETATM   33  N6  UNL     1      33.894 -26.126   7.160  1.00  0.00    -0.090 N 
HETATM   34  O3  UNL     1      33.630 -26.038   5.956  1.00  0.00    -0.530 OA
HETATM   35  O4  UNL     1      35.157 -25.854   7.616  1.00  0.00    -0.530 OA
ENDBRANCH  30  33
BRANCH  32  36
HETATM   36  N7  UNL     1      29.787 -26.091   9.791  1.00  0.00    -0.089 N 
HETATM   37  O6  UNL     1      28.813 -25.759   9.054  1.00  0.00    -0.530 OA
HETATM   38  O7  UNL     1      29.559 -25.983  11.135  1.00  0.00    -0.530 OA
ENDBRANCH  32  36
ENDBRANCH  26  28
ENDBRANCH   5  25
TORSDOF 10
ENDMDL
MODEL 3
REMARK VINA RESULT: -7.521518204      4.377      5.383
REMARK  10 active torsions:
REMARK  status: ('A' for Active; 'I' for Inactive)
REMARK    1  A    between atoms: C1_2  and  C2_4 
REMARK    2  A    between atoms: C4_6  and  C5_7 
REMARK    3  A    between atoms: N2_8  and  N3_10 
REMARK       I    between atoms: N3_10  and  C6_12 
REMARK       I    between atoms: C6_12  and  N4_14 
REMARK    4  A    between atoms: N4_14  and  N5_16 
REMARK    5  A    between atoms: C7_18  and  C8_19 
REMARK    6  A    between atoms: C10_21  and  N6_22 
REMARK    7  A    between atoms: C11_26  and  N7_27 
REMARK    8  A    between atoms: C12_30  and  O8_31 
REMARK    9  A    between atoms: C13_33  and  O9_34 
REMARK   10  A    between atoms: C14_36  and  O10_37 
ROOT
HETATM    1  N3  UNL     1      29.916 -31.879  11.819  1.00  0.00    -0.251 N 
ATOM      2  H3  UNL     1      30.070 -31.875  12.827  1.00  0.00     0.191 HD
HETATM    3  C6  UNL     1      30.435 -30.780  11.062  1.00  0.00     0.353 C 
HETATM    4  O2  UNL     1      30.228 -30.788   9.827  1.00  0.00    -0.244 OA
HETATM    5  N4  UNL     1      31.149 -29.752  11.716  1.00  0.00    -0.251 N 
ATOM      6  H4  UNL     1      31.302 -29.775  12.724  1.00  0.00     0.191 HD
ENDROOT
BRANCH   1   7
HETATM    7  N2  UNL     1      29.256 -32.888  11.308  1.00  0.00    -0.307 N 
HETATM    8  C5  UNL     1      29.014 -34.069  11.289  1.00  0.00     0.121 C 
ATOM      9  H2  UNL     1      28.668 -32.482  10.580  1.00  0.00     0.186 HD
BRANCH   8  10
HETATM   10  C4  UNL     1      28.023 -34.576  10.319  1.00  0.00     0.018 A 
HETATM   11  C3  UNL     1      26.967 -33.812   9.940  1.00  0.00     0.035 A 
HETATM   12  C2  UNL     1      26.079 -34.305   9.000  1.00  0.00     0.066 A 
HETATM   13  C14 UNL     1      26.284 -35.549   8.477  1.00  0.00     0.117 A 
HETATM   14  C13 UNL     1      27.356 -36.325   8.863  1.00  0.00     0.134 A 
HETATM   15  C12 UNL     1      28.230 -35.853   9.782  1.00  0.00     0.113 A 
BRANCH  12  16
HETATM   16  C1  UNL     1      24.961 -33.465   8.590  1.00  0.00     0.267 C 
HETATM   17  N1  UNL     1      24.930 -32.997   7.264  1.00  0.00    -0.057 NA
HETATM   18  O1  UNL     1      24.060 -33.174   9.406  1.00  0.00    -0.271 OA
ENDBRANCH  12  16
BRANCH  13  19
HETATM   19  O10 UNL     1      25.381 -36.030   7.529  1.00  0.00    -0.357 OA
ATOM     20  H10 UNL     1      25.319 -35.582   6.693  1.00  0.00     0.217 HD
ENDBRANCH  13  19
BRANCH  14  21
HETATM   21  O9  UNL     1      27.509 -37.598   8.289  1.00  0.00    -0.356 OA
ATOM     22  H9  UNL     1      27.834 -38.335   8.793  1.00  0.00     0.218 HD
ENDBRANCH  14  21
BRANCH  15  23
HETATM   23  O8  UNL     1      29.334 -36.602  10.205  1.00  0.00    -0.357 OA
ATOM     24  H8  UNL     1      29.744 -37.208   9.599  1.00  0.00     0.217 HD
ENDBRANCH  15  23
ENDBRANCH   8  10
ENDBRANCH   1   7
BRANCH   5  25
HETATM   25  N5  UNL     1      31.635 -28.708  10.939  1.00  0.00    -0.307 N 
HETATM   26  C7  UNL     1      30.914 -28.182  10.013  1.00  0.00     0.123 C 
ATOM     27  H5  UNL     1      32.578 -28.354  11.104  1.00  0.00     0.186 HD
BRANCH  26  28
HETATM   28  C8  UNL     1      31.452 -27.092   9.222  1.00  0.00     0.043 A 
HETATM   29  C9  UNL     1      32.707 -27.114   8.572  1.00  0.00     0.080 A 
HETATM   30  C10 UNL     1      32.871 -25.911   7.928  1.00  0.00     0.217 A 
HETATM   31  O5  UNL     1      31.808 -25.195   8.155  1.00  0.00    -0.265 OA
HETATM   32  C11 UNL     1      30.934 -25.850   8.918  1.00  0.00     0.228 A 
BRANCH  30  33
HETATM   33  N6  UNL     1      34.029 -25.559   7.156  1.00  0.00    -0.090 N 
HETATM   34  O3  UNL     1      33.869 -25.259   5.968  1.00  0.00    -0.530 OA
HETATM   35  O4  UNL     1      35.282 -25.552   7.711  1.00  0.00    -0.530 OA
ENDBRANCH  30  33
BRANCH  32  36
HETATM   36  N7  UNL     1      29.678 -25.347   9.349  1.00  0.00    -0.089 N 
HETATM   37  O6  UNL     1      28.746 -25.094   8.530  1.00  0.00    -0.530 OA
HETATM   38  O7  UNL     1      29.379 -25.097  10.659  1.00  0.00    -0.530 OA
ENDBRANCH  32  36
ENDBRANCH  26  28
ENDBRANCH   5  25
TORSDOF 10
ENDMDL
MODEL 4
REMARK VINA RESULT: -7.432221195      3.826      5.237
REMARK  10 active torsions:
REMARK  status: ('A' for Active; 'I' for Inactive)
REMARK    1  A    between atoms: C1_2  and  C2_4 
REMARK    2  A    between atoms: C4_6  and  C5_7 
REMARK    3  A    between atoms: N2_8  and  N3_10 
REMARK       I    between atoms: N3_10  and  C6_12 
REMARK       I    between atoms: C6_12  and  N4_14 
REMARK    4  A    between atoms: N4_14  and  N5_16 
REMARK    5  A    between atoms: C7_18  and  C8_19 
REMARK    6  A    between atoms: C10_21  and  N6_22 
REMARK    7  A    between atoms: C11_26  and  N7_27 
REMARK    8  A    between atoms: C12_30  and  O8_31 
REMARK    9  A    between atoms: C13_33  and  O9_34 
REMARK   10  A    between atoms: C14_36  and  O10_37 
ROOT
HETATM    1  N3  UNL     1      27.001 -29.972  11.188  1.00  0.00    -0.251 N 
ATOM      2  H3  UNL     1      26.307 -29.486  11.756  1.00  0.00     0.191 HD
HETATM    3  C6  UNL     1      28.214 -29.277  10.880  1.00  0.00     0.353 C 
HETATM    4  O2  UNL     1      29.052 -29.879  10.170  1.00  0.00    -0.244 OA
HETATM    5  N4  UNL     1      28.421 -27.971  11.375  1.00  0.00    -0.251 N 
ATOM      6  H4  UNL     1      27.718 -27.508  11.951  1.00  0.00     0.191 HD
ENDROOT
BRANCH   1   7
HETATM    7  N2  UNL     1      26.719 -31.188  10.793  1.00  0.00    -0.307 N 
HETATM    8  C5  UNL     1      26.033 -32.176  10.877  1.00  0.00     0.121 C 
ATOM      9  H2  UNL     1      27.407 -31.401  10.070  1.00  0.00     0.186 HD
BRANCH   8  10
HETATM   10  C4  UNL     1      26.329 -33.325   9.997  1.00  0.00     0.018 A 
HETATM   11  C3  UNL     1      27.309 -34.208  10.315  1.00  0.00     0.035 A 
HETATM   12  C2  UNL     1      27.534 -35.293   9.486  1.00  0.00     0.066 A 
HETATM   13  C14 UNL     1      26.766 -35.451   8.370  1.00  0.00     0.117 A 
HETATM   14  C13 UNL     1      25.771 -34.554   8.048  1.00  0.00     0.134 A 
HETATM   15  C12 UNL     1      25.543 -33.488   8.850  1.00  0.00     0.113 A 
BRANCH  12  16
HETATM   16  C1  UNL     1      28.578 -36.243   9.851  1.00  0.00     0.267 C 
HETATM   17  N1  UNL     1      29.743 -35.750  10.466  1.00  0.00    -0.057 NA
HETATM   18  O1  UNL     1      28.429 -37.462   9.617  1.00  0.00    -0.271 OA
ENDBRANCH  12  16
BRANCH  13  19
HETATM   19  O10 UNL     1      27.004 -36.552   7.548  1.00  0.00    -0.357 OA
ATOM     20  H10 UNL     1      27.845 -36.619   7.110  1.00  0.00     0.217 HD
ENDBRANCH  13  19
BRANCH  14  21
HETATM   21  O9  UNL     1      25.016 -34.771   6.882  1.00  0.00    -0.356 OA
ATOM     22  H9  UNL     1      24.640 -34.049   6.391  1.00  0.00     0.218 HD
ENDBRANCH  14  21
BRANCH  15  23
HETATM   23  O8  UNL     1      24.544 -32.549   8.566  1.00  0.00    -0.357 OA
ATOM     24  H8  UNL     1      24.220 -32.471   7.677  1.00  0.00     0.217 HD
ENDBRANCH  15  23
ENDBRANCH   8  10
ENDBRANCH   1   7
BRANCH   5  25
HETATM   25  N5  UNL     1      29.615 -27.339  11.051  1.00  0.00    -0.307 N 
HETATM   26  C7  UNL     1      30.632 -28.015  10.648  1.00  0.00     0.123 C 
ATOM     27  H5  UNL     1      29.686 -26.325  11.133  1.00  0.00     0.186 HD
BRANCH  26  28
HETATM   28  C8  UNL     1      31.862 -27.323  10.315  1.00  0.00     0.043 A 
HETATM   29  C9  UNL     1      32.429 -27.267   9.022  1.00  0.00     0.080 A 
HETATM   30  C10 UNL     1      33.586 -26.529   9.098  1.00  0.00     0.217 A 
HETATM   31  O5  UNL     1      33.732 -26.154  10.336  1.00  0.00    -0.265 OA
HETATM   32  C11 UNL     1      32.736 -26.599  11.100  1.00  0.00     0.228 A 
BRANCH  30  33
HETATM   33  N6  UNL     1      34.443 -26.252   7.980  1.00  0.00    -0.090 N 
HETATM   34  O3  UNL     1      35.663 -26.229   8.171  1.00  0.00    -0.530 OA
HETATM   35  O4  UNL     1      33.931 -26.018   6.731  1.00  0.00    -0.530 OA
ENDBRANCH  30  33
BRANCH  32  36
HETATM   36  N7  UNL     1      32.601 -26.367  12.495  1.00  0.00    -0.089 N 
HETATM   37  O6  UNL     1      32.344 -25.216  12.956  1.00  0.00    -0.530 OA
HETATM   38  O7  UNL     1      32.738 -27.349  13.436  1.00  0.00    -0.530 OA
ENDBRANCH  32  36
ENDBRANCH  26  28
ENDBRANCH   5  25
TORSDOF 10
ENDMDL
MODEL 5
REMARK VINA RESULT: -7.408948993      2.302     10.725
REMARK  10 active torsions:
REMARK  status: ('A' for Active; 'I' for Inactive)
REMARK    1  A    between atoms: C1_2  and  C2_4 
REMARK    2  A    between atoms: C4_6  and  C5_7 
REMARK    3  A    between atoms: N2_8  and  N3_10 
REMARK       I    between atoms: N3_10  and  C6_12 
REMARK       I    between atoms: C6_12  and  N4_14 
REMARK    4  A    between atoms: N4_14  and  N5_16 
REMARK    5  A    between atoms: C7_18  and  C8_19 
REMARK    6  A    between atoms: C10_21  and  N6_22 
REMARK    7  A    between atoms: C11_26  and  N7_27 
REMARK    8  A    between atoms: C12_30  and  O8_31 
REMARK    9  A    between atoms: C13_33  and  O9_34 
REMARK   10  A    between atoms: C14_36  and  O10_37 
ROOT
HETATM    1  N3  UNL     1      26.899 -31.215  11.048  1.00  0.00    -0.251 N 
ATOM      2  H3  UNL     1      26.459 -31.575  10.202  1.00  0.00     0.191 HD
HETATM    3  C6  UNL     1      26.324 -31.587  12.306  1.00  0.00     0.353 C 
HETATM    4  O2  UNL     1      26.864 -31.128  13.338  1.00  0.00    -0.244 OA
HETATM    5  N4  UNL     1      25.199 -32.439  12.340  1.00  0.00    -0.251 N 
ATOM      6  H4  UNL     1      24.782 -32.797  11.481  1.00  0.00     0.191 HD
ENDROOT
BRANCH   1   7
HETATM    7  N2  UNL     1      27.949 -30.445  10.908  1.00  0.00    -0.307 N 
HETATM    8  C5  UNL     1      29.095 -30.304  10.563  1.00  0.00     0.121 C 
ATOM      9  H2  UNL     1      27.659 -29.531  11.256  1.00  0.00     0.186 HD
BRANCH   8  10
HETATM   10  C4  UNL     1      29.724 -28.976  10.712  1.00  0.00     0.018 A 
HETATM   11  C3  UNL     1      29.089 -27.977  11.377  1.00  0.00     0.035 A 
HETATM   12  C2  UNL     1      29.724 -26.757  11.529  1.00  0.00     0.066 A 
HETATM   13  C14 UNL     1      30.973 -26.585  11.007  1.00  0.00     0.117 A 
HETATM   14  C13 UNL     1      31.617 -27.600  10.331  1.00  0.00     0.134 A 
HETATM   15  C12 UNL     1      31.004 -28.797  10.175  1.00  0.00     0.113 A 
BRANCH  12  16
HETATM   16  C1  UNL     1      29.037 -25.701  12.262  1.00  0.00     0.267 C 
HETATM   17  N1  UNL     1      29.481 -25.393  13.560  1.00  0.00    -0.057 NA
HETATM   18  O1  UNL     1      28.079 -25.092  11.737  1.00  0.00    -0.271 OA
ENDBRANCH  12  16
BRANCH  13  19
HETATM   19  O10 UNL     1      31.600 -25.351  11.172  1.00  0.00    -0.357 OA
ATOM     20  H10 UNL     1      32.240 -25.076  10.525  1.00  0.00     0.217 HD
ENDBRANCH  13  19
BRANCH  14  21
HETATM   21  O9  UNL     1      32.902 -27.359   9.815  1.00  0.00    -0.356 OA
ATOM     22  H9  UNL     1      33.568 -28.035   9.804  1.00  0.00     0.218 HD
ENDBRANCH  14  21
BRANCH  15  23
HETATM   23  O8  UNL     1      31.617 -29.858   9.498  1.00  0.00    -0.357 OA
ATOM     24  H8  UNL     1      32.139 -29.676   8.725  1.00  0.00     0.217 HD
ENDBRANCH  15  23
ENDBRANCH   8  10
ENDBRANCH   1   7
BRANCH   5  25
HETATM   25  N5  UNL     1      24.680 -32.773  13.585  1.00  0.00    -0.307 N 
HETATM   26  C7  UNL     1      23.589 -32.240  14.010  1.00  0.00     0.123 C 
ATOM     27  H5  UNL     1      25.169 -33.451  14.169  1.00  0.00     0.186 HD
BRANCH  26  28
HETATM   28  C8  UNL     1      23.074 -32.614  15.314  1.00  0.00     0.043 A 
HETATM   29  C9  UNL     1      22.757 -31.701  16.345  1.00  0.00     0.080 A 
HETATM   30  C10 UNL     1      22.303 -32.422  17.423  1.00  0.00     0.217 A 
HETATM   31  O5  UNL     1      22.332 -33.681  17.095  1.00  0.00    -0.265 OA
HETATM   32  C11 UNL     1      22.782 -33.850  15.853  1.00  0.00     0.228 A 
BRANCH  30  33
HETATM   33  N6  UNL     1      21.883 -31.839  18.666  1.00  0.00    -0.090 N 
HETATM   34  O3  UNL     1      22.118 -30.641  18.858  1.00  0.00    -0.530 OA
HETATM   35  O4  UNL     1      21.239 -32.582  19.620  1.00  0.00    -0.530 OA
ENDBRANCH  30  33
BRANCH  32  36
HETATM   36  N7  UNL     1      22.938 -35.099  15.195  1.00  0.00    -0.089 N 
HETATM   37  O6  UNL     1      22.633 -35.251  13.976  1.00  0.00    -0.530 OA
HETATM   38  O7  UNL     1      23.416 -36.219  15.815  1.00  0.00    -0.530 OA
ENDBRANCH  32  36
ENDBRANCH  26  28
ENDBRANCH   5  25
TORSDOF 10
ENDMDL
