MODEL 1
REMARK VINA RESULT: -7.878278683      0.000      0.000
REMARK  14 active torsions:
REMARK  status: ('A' for Active; 'I' for Inactive)
REMARK    1  A    between atoms: C1_4  and  O1_5 
REMARK    2  A    between atoms: O1_5  and  C2_6 
REMARK    3  A    between atoms: C5_10  and  C6_11 
REMARK    4  A    between atoms: C6_11  and  O3_12 
REMARK    5  A    between atoms: O3_12  and  N2_13 
REMARK    6  A    between atoms: N3_15  and  C7_17 
REMARK    7  A    between atoms: C10_20  and  O4_21 
REMARK    8  A    between atoms: O4_21  and  C11_22 
REMARK    9  A    between atoms: C12_24  and  C13_25 
REMARK   10  A    between atoms: C13_25  and  O6_26 
REMARK   11  A    between atoms: C14_28  and  O7_29 
REMARK   12  A    between atoms: C15_31  and  O8_32 
REMARK   13  A    between atoms: C16_34  and  O9_35 
REMARK   14  A    between atoms: C17_37  and  O10_38 
ROOT
HETATM    1  C7  UNL     1      30.228 -31.833  11.367  1.00  0.00     0.052 A 
HETATM    2  C8  UNL     1      29.931 -31.969  10.025  1.00  0.00     0.034 A 
HETATM    3  C9  UNL     1      29.204 -33.116   9.626  1.00  0.00     0.042 A 
HETATM    4  C10 UNL     1      28.833 -34.029  10.554  1.00  0.00     0.105 A 
HETATM    5  C17 UNL     1      29.114 -33.889  11.882  1.00  0.00     0.101 A 
HETATM    6  C18 UNL     1      29.833 -32.752  12.295  1.00  0.00     0.070 A 
ENDROOT
BRANCH   1   7
HETATM    7  N3  UNL     1      31.088 -30.703  11.623  1.00  0.00    -0.281 N 
HETATM    8  N2  UNL     1      30.840 -29.567  11.275  1.00  0.00    -0.207 N 
ATOM      9  H2  UNL     1      31.519 -28.833  11.473  1.00  0.00     0.216 HD
ATOM     10  H3  UNL     1      31.959 -30.869  12.127  1.00  0.00     0.189 HD
BRANCH   8  11
HETATM   11  O3  UNL     1      29.637 -29.221  10.600  1.00  0.00    -0.262 OA
BRANCH  11  12
HETATM   12  C6  UNL     1      29.652 -27.769  10.249  1.00  0.00     0.238 C 
BRANCH  12  13
HETATM   13  C5  UNL     1      30.903 -27.525   9.529  1.00  0.00     0.187 C 
HETATM   14  C2  UNL     1      31.916 -26.650  10.171  1.00  0.00     0.185 C 
HETATM   15  C3  UNL     1      32.996 -26.690   9.185  1.00  0.00     0.032 C 
HETATM   16  C4  UNL     1      32.750 -27.658   8.335  1.00  0.00     0.134 C 
HETATM   17  O2  UNL     1      31.532 -28.316   8.653  1.00  0.00    -0.353 OA
BRANCH  14  18
HETATM   18  O1  UNL     1      32.211 -26.848  11.492  1.00  0.00    -0.335 OA
BRANCH  18  19
HETATM   19  C1  UNL     1      31.949 -25.798  12.421  1.00  0.00     0.220 C 
HETATM   20  N1  UNL     1      31.221 -26.009  13.350  1.00  0.00    -0.390 N 
ATOM     21  H12 UNL     1      30.804 -26.933  13.461  1.00  0.00     0.157 HD
ATOM     22  H11 UNL     1      31.034 -25.257  14.015  1.00  0.00     0.157 HD
ENDBRANCH  18  19
ENDBRANCH  14  18
ENDBRANCH  12  13
ENDBRANCH  11  12
ENDBRANCH   8  11
ENDBRANCH   1   7
BRANCH   5  23
HETATM   23  O10 UNL     1      28.694 -34.857  12.785  1.00  0.00    -0.358 OA
ATOM     24  H10 UNL     1      28.369 -34.600  13.640  1.00  0.00     0.217 HD
ENDBRANCH   5  23
BRANCH   4  25
HETATM   25  O4  UNL     1      28.151 -35.207  10.074  1.00  0.00    -0.315 OA
BRANCH  25  26
HETATM   26  C11 UNL     1      27.001 -34.715   9.304  1.00  0.00     0.298 C 
HETATM   27  O5  UNL     1      26.343 -33.692   9.944  1.00  0.00    -0.348 OA
HETATM   28  C12 UNL     1      25.023 -33.578   9.582  1.00  0.00     0.179 C 
HETATM   29  C14 UNL     1      24.719 -33.806   8.143  1.00  0.00     0.180 C 
HETATM   30  C15 UNL     1      25.482 -34.899   7.469  1.00  0.00     0.183 C 
HETATM   31  C16 UNL     1      26.222 -35.695   8.562  1.00  0.00     0.205 C 
BRANCH  28  32
HETATM   32  C13 UNL     1      24.616 -32.144   9.923  1.00  0.00     0.198 C 
BRANCH  32  33
HETATM   33  O6  UNL     1      25.805 -31.385  10.008  1.00  0.00    -0.398 OA
ATOM     34  H6  UNL     1      25.886 -31.094  10.908  1.00  0.00     0.209 HD
ENDBRANCH  32  33
ENDBRANCH  28  32
BRANCH  29  35
HETATM   35  O7  UNL     1      24.826 -32.566   7.475  1.00  0.00    -0.390 OA
ATOM     36  H7  UNL     1      25.369 -32.695   6.706  1.00  0.00     0.210 HD
ENDBRANCH  29  35
BRANCH  30  37
HETATM   37  O8  UNL     1      26.461 -34.293   6.653  1.00  0.00    -0.390 OA
ATOM     38  H8  UNL     1      26.013 -33.706   6.056  1.00  0.00     0.210 HD
ENDBRANCH  30  37
BRANCH  31  39
HETATM   39  O9  UNL     1      27.039 -36.630   7.972  1.00  0.00    -0.388 OA
ATOM     40  H9  UNL     1      26.540 -37.214   7.412  1.00  0.00     0.210 HD
ENDBRANCH  31  39
ENDBRANCH  25  26
ENDBRANCH   4  25
TORSDOF 14
ENDMDL
MODEL 2
REMARK VINA RESULT: -7.752767613      2.008      2.908
REMARK  14 active torsions:
REMARK  status: ('A' for Active; 'I' for Inactive)
REMARK    1  A    between atoms: C1_4  and  O1_5 
REMARK    2  A    between atoms: O1_5  and  C2_6 
REMARK    3  A    between atoms: C5_10  and  C6_11 
REMARK    4  A    between atoms: C6_11  and  O3_12 
REMARK    5  A    between atoms: O3_12  and  N2_13 
REMARK    6  A    between atoms: N3_15  and  C7_17 
REMARK    7  A    between atoms: C10_20  and  O4_21 
REMARK    8  A    between atoms: O4_21  and  C11_22 
REMARK    9  A    between atoms: C12_24  and  C13_25 
REMARK   10  A    between atoms: C13_25  and  O6_26 
REMARK   11  A    between atoms: C14_28  and  O7_29 
REMARK   12  A    between atoms: C15_31  and  O8_32 
REMARK   13  A    between atoms: C16_34  and  O9_35 
REMARK   14  A    between atoms: C17_37  and  O10_38 
ROOT
HETATM    1  C7  UNL     1      29.246 -28.968  10.750  1.00  0.00     0.052 A 
HETATM    2  C8  UNL     1      27.945 -29.231  11.135  1.00  0.00     0.034 A 
HETATM    3  C9  UNL     1      27.655 -30.526  11.628  1.00  0.00     0.042 A 
HETATM    4  C10 UNL     1      28.641 -31.449  11.703  1.00  0.00     0.105 A 
HETATM    5  C17 UNL     1      29.929 -31.187  11.337  1.00  0.00     0.101 A 
HETATM    6  C18 UNL     1      30.235 -29.904  10.847  1.00  0.00     0.070 A 
ENDROOT
BRANCH   1   7
HETATM    7  N3  UNL     1      29.381 -27.669  10.138  1.00  0.00    -0.281 N 
HETATM    8  N2  UNL     1      30.053 -26.768  10.595  1.00  0.00    -0.207 N 
ATOM      9  H2  UNL     1      30.068 -25.871  10.108  1.00  0.00     0.216 HD
ATOM     10  H3  UNL     1      28.880 -27.498   9.266  1.00  0.00     0.189 HD
BRANCH   8  11
HETATM   11  O3  UNL     1      30.819 -26.914  11.782  1.00  0.00    -0.262 OA
BRANCH  11  12
HETATM   12  C6  UNL     1      32.255 -26.615  11.500  1.00  0.00     0.238 C 
BRANCH  12  13
HETATM   13  C5  UNL     1      32.418 -26.678  10.046  1.00  0.00     0.187 C 
HETATM   14  C2  UNL     1      33.157 -25.576   9.380  1.00  0.00     0.185 C 
HETATM   15  C3  UNL     1      33.135 -26.017   7.985  1.00  0.00     0.032 C 
HETATM   16  C4  UNL     1      32.748 -27.269   7.949  1.00  0.00     0.134 C 
HETATM   17  O2  UNL     1      32.479 -27.755   9.257  1.00  0.00    -0.353 OA
BRANCH  14  18
HETATM   18  O1  UNL     1      34.338 -25.154   9.928  1.00  0.00    -0.335 OA
BRANCH  18  19
HETATM   19  C1  UNL     1      35.479 -26.005   9.842  1.00  0.00     0.220 C 
HETATM   20  N1  UNL     1      35.760 -26.702  10.776  1.00  0.00    -0.390 N 
ATOM     21  H12 UNL     1      35.179 -26.675  11.614  1.00  0.00     0.157 HD
ATOM     22  H11 UNL     1      36.577 -27.310  10.714  1.00  0.00     0.157 HD
ENDBRANCH  18  19
ENDBRANCH  14  18
ENDBRANCH  12  13
ENDBRANCH  11  12
ENDBRANCH   8  11
ENDBRANCH   1   7
BRANCH   5  23
HETATM   23  O10 UNL     1      30.898 -32.177  11.449  1.00  0.00    -0.358 OA
ATOM     24  H10 UNL     1      30.694 -32.991  11.893  1.00  0.00     0.217 HD
ENDBRANCH   5  23
BRANCH   4  25
HETATM   25  O4  UNL     1      28.267 -32.769  12.153  1.00  0.00    -0.315 OA
BRANCH  25  26
HETATM   26  C11 UNL     1      27.771 -33.470  10.961  1.00  0.00     0.298 C 
HETATM   27  O5  UNL     1      26.465 -33.156  10.677  1.00  0.00    -0.348 OA
HETATM   28  C12 UNL     1      25.807 -34.133   9.971  1.00  0.00     0.179 C 
HETATM   29  C14 UNL     1      26.600 -34.823   8.917  1.00  0.00     0.180 C 
HETATM   30  C15 UNL     1      28.029 -35.112   9.245  1.00  0.00     0.183 C 
HETATM   31  C16 UNL     1      28.228 -34.835  10.748  1.00  0.00     0.205 C 
BRANCH  28  32
HETATM   32  C13 UNL     1      24.628 -33.439   9.288  1.00  0.00     0.198 C 
BRANCH  32  33
HETATM   33  O6  UNL     1      24.849 -32.047   9.397  1.00  0.00    -0.398 OA
ATOM     34  H6  UNL     1      24.282 -31.729  10.090  1.00  0.00     0.209 HD
ENDBRANCH  32  33
ENDBRANCH  28  32
BRANCH  29  35
HETATM   35  O7  UNL     1      26.446 -34.099   7.714  1.00  0.00    -0.390 OA
ATOM     36  H7  UNL     1      26.539 -33.175   7.916  1.00  0.00     0.210 HD
ENDBRANCH  29  35
BRANCH  30  37
HETATM   37  O8  UNL     1      28.823 -34.185   8.536  1.00  0.00    -0.390 OA
ATOM     38  H8  UNL     1      28.360 -33.965   7.737  1.00  0.00     0.210 HD
ENDBRANCH  30  37
BRANCH  31  39
HETATM   39  O9  UNL     1      29.560 -34.965  11.063  1.00  0.00    -0.388 OA
ATOM     40  H9  UNL     1      29.837 -34.280  11.659  1.00  0.00     0.210 HD
ENDBRANCH  31  39
ENDBRANCH  25  26
ENDBRANCH   4  25
TORSDOF 14
ENDMDL
MODEL 3
REMARK VINA RESULT: -7.697451329      2.745      8.486
REMARK  14 active torsions:
REMARK  status: ('A' for Active; 'I' for Inactive)
REMARK    1  A    between atoms: C1_4  and  O1_5 
REMARK    2  A    between atoms: O1_5  and  C2_6 
REMARK    3  A    between atoms: C5_10  and  C6_11 
REMARK    4  A    between atoms: C6_11  and  O3_12 
REMARK    5  A    between atoms: O3_12  and  N2_13 
REMARK    6  A    between atoms: N3_15  and  C7_17 
REMARK    7  A    between atoms: C10_20  and  O4_21 
REMARK    8  A    between atoms: O4_21  and  C11_22 
REMARK    9  A    between atoms: C12_24  and  C13_25 
REMARK   10  A    between atoms: C13_25  and  O6_26 
REMARK   11  A    between atoms: C14_28  and  O7_29 
REMARK   12  A    between atoms: C15_31  and  O8_32 
REMARK   13  A    between atoms: C16_34  and  O9_35 
REMARK   14  A    between atoms: C17_37  and  O10_38 
ROOT
HETATM    1  C7  UNL     1      29.040 -32.356  12.244  1.00  0.00     0.052 A 
HETATM    2  C8  UNL     1      30.343 -32.078  11.876  1.00  0.00     0.034 A 
HETATM    3  C9  UNL     1      30.575 -30.904  11.121  1.00  0.00     0.042 A 
HETATM    4  C10 UNL     1      29.534 -30.106  10.787  1.00  0.00     0.105 A 
HETATM    5  C17 UNL     1      28.249 -30.372  11.161  1.00  0.00     0.101 A 
HETATM    6  C18 UNL     1      28.002 -31.535  11.915  1.00  0.00     0.070 A 
ENDROOT
BRANCH   1   7
HETATM    7  N3  UNL     1      28.919 -33.644  12.883  1.00  0.00    -0.281 N 
HETATM    8  N2  UNL     1      29.132 -34.702  12.327  1.00  0.00    -0.207 N 
ATOM      9  H2  UNL     1      28.994 -35.567  12.849  1.00  0.00     0.216 HD
ATOM     10  H3  UNL     1      28.635 -33.667  13.863  1.00  0.00     0.189 HD
BRANCH   8  11
HETATM   11  O3  UNL     1      29.568 -34.780  10.977  1.00  0.00    -0.262 OA
BRANCH  11  12
HETATM   12  C6  UNL     1      28.741 -35.778  10.234  1.00  0.00     0.238 C 
BRANCH  12  13
HETATM   13  C5  UNL     1      27.799 -35.014   9.415  1.00  0.00     0.187 C 
HETATM   14  C2  UNL     1      27.124 -35.715   8.293  1.00  0.00     0.185 C 
HETATM   15  C3  UNL     1      26.265 -34.654   7.767  1.00  0.00     0.032 C 
HETATM   16  C4  UNL     1      26.236 -33.671   8.634  1.00  0.00     0.134 C 
HETATM   17  O2  UNL     1      27.044 -33.967   9.764  1.00  0.00    -0.353 OA
BRANCH  14  18
HETATM   18  O1  UNL     1      26.591 -36.954   8.521  1.00  0.00    -0.335 OA
BRANCH  18  19
HETATM   19  C1  UNL     1      27.409 -38.104   8.315  1.00  0.00     0.220 C 
HETATM   20  N1  UNL     1      26.928 -39.194   8.448  1.00  0.00    -0.390 N 
ATOM     21  H12 UNL     1      25.945 -39.281   8.705  1.00  0.00     0.157 HD
ATOM     22  H11 UNL     1      27.514 -40.017   8.300  1.00  0.00     0.157 HD
ENDBRANCH  18  19
ENDBRANCH  14  18
ENDBRANCH  12  13
ENDBRANCH  11  12
ENDBRANCH   8  11
ENDBRANCH   1   7
BRANCH   5  23
HETATM   23  O10 UNL     1      27.226 -29.507  10.795  1.00  0.00    -0.358 OA
ATOM     24  H10 UNL     1      26.425 -29.476  11.304  1.00  0.00     0.217 HD
ENDBRANCH   5  23
BRANCH   4  25
HETATM   25  O4  UNL     1      29.829 -28.959   9.962  1.00  0.00    -0.315 OA
BRANCH  25  26
HETATM   26  C11 UNL     1      30.304 -27.919  10.884  1.00  0.00     0.298 C 
HETATM   27  O5  UNL     1      29.277 -27.152  11.380  1.00  0.00    -0.348 OA
HETATM   28  C12 UNL     1      29.669 -25.894  11.768  1.00  0.00     0.179 C 
HETATM   29  C14 UNL     1      30.993 -25.803  12.443  1.00  0.00     0.180 C 
HETATM   30  C15 UNL     1      32.075 -26.681  11.904  1.00  0.00     0.183 C 
HETATM   31  C16 UNL     1      31.573 -27.276  10.574  1.00  0.00     0.205 C 
BRANCH  28  32
HETATM   32  C13 UNL     1      28.608 -25.408  12.755  1.00  0.00     0.198 C 
BRANCH  32  33
HETATM   33  O6  UNL     1      27.784 -26.516  13.056  1.00  0.00    -0.398 OA
ATOM     34  H6  UNL     1      27.034 -26.471  12.475  1.00  0.00     0.209 HD
ENDBRANCH  32  33
ENDBRANCH  28  32
BRANCH  29  35
HETATM   35  O7  UNL     1      30.785 -25.973  13.830  1.00  0.00    -0.390 OA
ATOM     36  H7  UNL     1      30.710 -26.905  14.002  1.00  0.00     0.210 HD
ENDBRANCH  29  35
BRANCH  30  37
HETATM   37  O8  UNL     1      32.244 -27.751  12.809  1.00  0.00    -0.390 OA
ATOM     38  H8  UNL     1      32.322 -27.379  13.679  1.00  0.00     0.210 HD
ENDBRANCH  30  37
BRANCH  31  39
HETATM   39  O9  UNL     1      32.488 -28.192  10.110  1.00  0.00    -0.388 OA
ATOM     40  H9  UNL     1      33.132 -27.776   9.549  1.00  0.00     0.210 HD
ENDBRANCH  31  39
ENDBRANCH  25  26
ENDBRANCH   4  25
TORSDOF 14
ENDMDL
MODEL 4
REMARK VINA RESULT: -7.654221399      5.276      7.900
REMARK  14 active torsions:
REMARK  status: ('A' for Active; 'I' for Inactive)
REMARK    1  A    between atoms: C1_4  and  O1_5 
REMARK    2  A    between atoms: O1_5  and  C2_6 
REMARK    3  A    between atoms: C5_10  and  C6_11 
REMARK    4  A    between atoms: C6_11  and  O3_12 
REMARK    5  A    between atoms: O3_12  and  N2_13 
REMARK    6  A    between atoms: N3_15  and  C7_17 
REMARK    7  A    between atoms: C10_20  and  O4_21 
REMARK    8  A    between atoms: O4_21  and  C11_22 
REMARK    9  A    between atoms: C12_24  and  C13_25 
REMARK   10  A    between atoms: C13_25  and  O6_26 
REMARK   11  A    between atoms: C14_28  and  O7_29 
REMARK   12  A    between atoms: C15_31  and  O8_32 
REMARK   13  A    between atoms: C16_34  and  O9_35 
REMARK   14  A    between atoms: C17_37  and  O10_38 
ROOT
HETATM    1  C7  UNL     1      26.448 -32.471  13.129  1.00  0.00     0.052 A 
HETATM    2  C8  UNL     1      25.386 -33.017  12.433  1.00  0.00     0.034 A 
HETATM    3  C9  UNL     1      24.095 -32.497  12.689  1.00  0.00     0.042 A 
HETATM    4  C10 UNL     1      23.943 -31.501  13.593  1.00  0.00     0.105 A 
HETATM    5  C17 UNL     1      24.992 -30.951  14.270  1.00  0.00     0.101 A 
HETATM    6  C18 UNL     1      26.283 -31.455  14.025  1.00  0.00     0.070 A 
ENDROOT
BRANCH   1   7
HETATM    7  N3  UNL     1      27.681 -33.178  12.884  1.00  0.00    -0.281 N 
HETATM    8  N2  UNL     1      28.508 -32.841  12.062  1.00  0.00    -0.207 N 
ATOM      9  H2  UNL     1      29.339 -33.418  11.937  1.00  0.00     0.216 HD
ATOM     10  H3  UNL     1      27.870 -34.014  13.437  1.00  0.00     0.189 HD
BRANCH   8  11
HETATM   11  O3  UNL     1      28.360 -31.673  11.267  1.00  0.00    -0.262 OA
BRANCH  11  12
HETATM   12  C6  UNL     1      28.540 -32.014   9.824  1.00  0.00     0.238 C 
BRANCH  12  13
HETATM   13  C5  UNL     1      27.217 -32.376   9.311  1.00  0.00     0.187 C 
HETATM   14  C2  UNL     1      26.932 -33.814   9.073  1.00  0.00     0.185 C 
HETATM   15  C3  UNL     1      25.543 -33.760   8.618  1.00  0.00     0.032 C 
HETATM   16  C4  UNL     1      25.066 -32.566   8.873  1.00  0.00     0.134 C 
HETATM   17  O2  UNL     1      26.051 -31.745   9.485  1.00  0.00    -0.353 OA
BRANCH  14  18
HETATM   18  O1  UNL     1      27.285 -34.720  10.036  1.00  0.00    -0.335 OA
BRANCH  18  19
HETATM   19  C1  UNL     1      28.263 -35.710   9.725  1.00  0.00     0.220 C 
HETATM   20  N1  UNL     1      29.197 -35.860  10.460  1.00  0.00    -0.390 N 
ATOM     21  H12 UNL     1      29.277 -35.277  11.294  1.00  0.00     0.157 HD
ATOM     22  H11 UNL     1      29.897 -36.568  10.237  1.00  0.00     0.157 HD
ENDBRANCH  18  19
ENDBRANCH  14  18
ENDBRANCH  12  13
ENDBRANCH  11  12
ENDBRANCH   8  11
ENDBRANCH   1   7
BRANCH   5  23
HETATM   23  O10 UNL     1      24.769 -29.923  15.177  1.00  0.00    -0.358 OA
ATOM     24  H10 UNL     1      24.906 -29.020  14.915  1.00  0.00     0.217 HD
ENDBRANCH   5  23
BRANCH   4  25
HETATM   25  O4  UNL     1      22.594 -31.059  13.856  1.00  0.00    -0.315 OA
BRANCH  25  26
HETATM   26  C11 UNL     1      22.111 -31.896  14.962  1.00  0.00     0.298 C 
HETATM   27  O5  UNL     1      22.517 -31.427  16.188  1.00  0.00    -0.348 OA
HETATM   28  C12 UNL     1      22.582 -32.401  17.154  1.00  0.00     0.179 C 
HETATM   29  C14 UNL     1      21.499 -33.421  17.126  1.00  0.00     0.180 C 
HETATM   30  C15 UNL     1      21.053 -33.878  15.775  1.00  0.00     0.183 C 
HETATM   31  C16 UNL     1      22.060 -33.334  14.743  1.00  0.00     0.205 C 
BRANCH  28  32
HETATM   32  C13 UNL     1      22.499 -31.670  18.495  1.00  0.00     0.198 C 
BRANCH  32  33
HETATM   33  O6  UNL     1      22.610 -32.650  19.508  1.00  0.00    -0.398 OA
ATOM     34  H6  UNL     1      22.484 -33.495  19.092  1.00  0.00     0.209 HD
ENDBRANCH  32  33
ENDBRANCH  28  32
BRANCH  29  35
HETATM   35  O7  UNL     1      20.435 -32.948  17.926  1.00  0.00    -0.390 OA
ATOM     36  H7  UNL     1      20.577 -32.021  18.083  1.00  0.00     0.210 HD
ENDBRANCH  29  35
BRANCH  30  37
HETATM   37  O8  UNL     1      19.807 -33.271  15.510  1.00  0.00    -0.390 OA
ATOM     38  H8  UNL     1      19.976 -32.372  15.256  1.00  0.00     0.210 HD
ENDBRANCH  30  37
BRANCH  31  39
HETATM   39  O9  UNL     1      21.615 -33.624  13.475  1.00  0.00    -0.388 OA
ATOM     40  H9  UNL     1      22.338 -33.660  12.859  1.00  0.00     0.210 HD
ENDBRANCH  31  39
ENDBRANCH  25  26
ENDBRANCH   4  25
TORSDOF 14
ENDMDL
MODEL 5
REMARK VINA RESULT: -7.636435088      2.569      8.106
REMARK  14 active torsions:
REMARK  status: ('A' for Active; 'I' for Inactive)
REMARK    1  A    between atoms: C1_4  and  O1_5 
REMARK    2  A    between atoms: O1_5  and  C2_6 
REMARK    3  A    between atoms: C5_10  and  C6_11 
REMARK    4  A    between atoms: C6_11  and  O3_12 
REMARK    5  A    between atoms: O3_12  and  N2_13 
REMARK    6  A    between atoms: N3_15  and  C7_17 
REMARK    7  A    between atoms: C10_20  and  O4_21 
REMARK    8  A    between atoms: O4_21  and  C11_22 
REMARK    9  A    between atoms: C12_24  and  C13_25 
REMARK   10  A    between atoms: C13_25  and  O6_26 
REMARK   11  A    between atoms: C14_28  and  O7_29 
REMARK   12  A    between atoms: C15_31  and  O8_32 
REMARK   13  A    between atoms: C16_34  and  O9_35 
REMARK   14  A    between atoms: C17_37  and  O10_38 
ROOT
HETATM    1  C7  UNL     1      29.258 -32.399  12.080  1.00  0.00     0.052 A 
HETATM    2  C8  UNL     1      30.521 -32.044  11.647  1.00  0.00     0.034 A 
HETATM    3  C9  UNL     1      30.655 -30.823  10.944  1.00  0.00     0.042 A 
HETATM    4  C10 UNL     1      29.562 -30.058  10.719  1.00  0.00     0.105 A 
HETATM    5  C17 UNL     1      28.317 -30.401  11.157  1.00  0.00     0.101 A 
HETATM    6  C18 UNL     1      28.167 -31.610  11.861  1.00  0.00     0.070 A 
ENDROOT
BRANCH   1   7
HETATM    7  N3  UNL     1      29.232 -33.723  12.655  1.00  0.00    -0.281 N 
HETATM    8  N2  UNL     1      29.216 -34.747  12.004  1.00  0.00    -0.207 N 
ATOM      9  H2  UNL     1      29.169 -35.640  12.495  1.00  0.00     0.216 HD
ATOM     10  H3  UNL     1      29.227 -33.802  13.672  1.00  0.00     0.189 HD
BRANCH   8  11
HETATM   11  O3  UNL     1      29.258 -34.749  10.583  1.00  0.00    -0.262 OA
BRANCH  11  12
HETATM   12  C6  UNL     1      28.007 -35.355  10.039  1.00  0.00     0.238 C 
BRANCH  12  13
HETATM   13  C5  UNL     1      27.020 -34.277   9.958  1.00  0.00     0.187 C 
HETATM   14  C2  UNL     1      26.955 -33.485   8.703  1.00  0.00     0.185 C 
HETATM   15  C3  UNL     1      25.855 -32.567   8.999  1.00  0.00     0.032 C 
HETATM   16  C4  UNL     1      25.232 -32.994  10.072  1.00  0.00     0.134 C 
HETATM   17  O2  UNL     1      25.837 -34.177  10.574  1.00  0.00    -0.353 OA
BRANCH  14  18
HETATM   18  O1  UNL     1      26.965 -34.151   7.507  1.00  0.00    -0.335 OA
BRANCH  18  19
HETATM   19  C1  UNL     1      25.875 -33.966   6.606  1.00  0.00     0.220 C 
HETATM   20  N1  UNL     1      24.974 -34.755   6.610  1.00  0.00    -0.390 N 
ATOM     21  H12 UNL     1      25.001 -35.545   7.255  1.00  0.00     0.157 HD
ATOM     22  H11 UNL     1      24.194 -34.622   5.965  1.00  0.00     0.157 HD
ENDBRANCH  18  19
ENDBRANCH  14  18
ENDBRANCH  12  13
ENDBRANCH  11  12
ENDBRANCH   8  11
ENDBRANCH   1   7
BRANCH   5  23
HETATM   23  O10 UNL     1      27.237 -29.565  10.903  1.00  0.00    -0.358 OA
ATOM     24  H10 UNL     1      27.291 -28.918  10.210  1.00  0.00     0.217 HD
ENDBRANCH   5  23
BRANCH   4  25
HETATM   25  O4  UNL     1      29.755 -28.857   9.940  1.00  0.00    -0.315 OA
BRANCH  25  26
HETATM   26  C11 UNL     1      30.245 -27.846  10.885  1.00  0.00     0.298 C 
HETATM   27  O5  UNL     1      29.225 -27.116  11.444  1.00  0.00    -0.348 OA
HETATM   28  C12 UNL     1      29.611 -25.867  11.867  1.00  0.00     0.179 C 
HETATM   29  C14 UNL     1      30.955 -25.780  12.501  1.00  0.00     0.180 C 
HETATM   30  C15 UNL     1      32.031 -26.619  11.893  1.00  0.00     0.183 C 
HETATM   31  C16 UNL     1      31.493 -27.171  10.558  1.00  0.00     0.205 C 
BRANCH  28  32
HETATM   32  C13 UNL     1      28.576 -25.436  12.908  1.00  0.00     0.198 C 
BRANCH  32  33
HETATM   33  O6  UNL     1      27.761 -26.561  13.171  1.00  0.00    -0.398 OA
ATOM     34  H6  UNL     1      26.879 -26.238  13.315  1.00  0.00     0.209 HD
ENDBRANCH  32  33
ENDBRANCH  28  32
BRANCH  29  35
HETATM   35  O7  UNL     1      30.797 -26.007  13.887  1.00  0.00    -0.390 OA
ATOM     36  H7  UNL     1      30.264 -25.303  14.239  1.00  0.00     0.210 HD
ENDBRANCH  29  35
BRANCH  30  37
HETATM   37  O8  UNL     1      32.247 -27.719  12.749  1.00  0.00    -0.390 OA
ATOM     38  H8  UNL     1      32.915 -28.265  12.350  1.00  0.00     0.210 HD
ENDBRANCH  30  37
BRANCH  31  39
HETATM   39  O9  UNL     1      32.406 -28.053  10.029  1.00  0.00    -0.388 OA
ATOM     40  H9  UNL     1      32.959 -27.625   9.386  1.00  0.00     0.210 HD
ENDBRANCH  31  39
ENDBRANCH  25  26
ENDBRANCH   4  25
TORSDOF 14
ENDMDL
