MODEL 1
REMARK VINA RESULT: -5.348935470      0.000      0.000
REMARK  1 active torsions:
REMARK  status: ('A' for Active; 'I' for Inactive)
REMARK       I    between atoms: N5_10  and  C3_11 
REMARK       I    between atoms: C3_11  and  N6_13 
REMARK    1  A    between atoms: N6_13  and  N7_15 
ROOT
HETATM    1  C1  UNL     1      -3.691   8.775  20.048  1.00  0.00     0.180 C 
HETATM    2  N1  UNL     1      -4.294   8.163  18.883  1.00  0.00    -0.135 N 
HETATM    3  C2  UNL     1      -5.558   7.529  18.972  1.00  0.00     0.694 C 
HETATM    4  N2  UNL     1      -6.238   7.455  20.065  1.00  0.00    -0.233 N 
ATOM      5  H21 UNL     1      -7.148   6.998  20.129  1.00  0.00     0.174 HD
ATOM      6  H22 UNL     1      -5.870   7.864  20.923  1.00  0.00     0.174 HD
HETATM    7  N3  UNL     1      -6.078   6.951  17.761  1.00  0.00    -0.115 N 
ATOM      8  H3  UNL     1      -6.696   6.140  17.774  1.00  0.00     0.203 HD
HETATM    9  N4  UNL     1      -5.683   7.571  16.545  1.00  0.00     0.008 NA
HETATM   10  N5  UNL     1      -4.247   7.570  16.496  1.00  0.00    -0.135 N 
HETATM   11  C3  UNL     1      -3.611   6.998  15.388  1.00  0.00     0.362 C 
HETATM   12  O1  UNL     1      -4.342   6.522  14.463  1.00  0.00    -0.243 OA
HETATM   13  N6  UNL     1      -2.234   6.895  15.196  1.00  0.00    -0.257 N 
ATOM     14  H6  UNL     1      -1.618   7.265  15.920  1.00  0.00     0.191 HD
HETATM   15  C4  UNL     1      -3.642   8.175  17.618  1.00  0.00     0.364 C 
HETATM   16  O2  UNL     1      -2.516   8.720  17.448  1.00  0.00    -0.244 OA
ENDROOT
BRANCH  13  17
HETATM   17  N7  UNL     1      -1.645   6.311  14.062  1.00  0.00    -0.341 N 
ATOM     18  H72 UNL     1      -2.241   6.185  13.243  1.00  0.00     0.177 HD
ATOM     19  H71 UNL     1      -0.671   6.013  14.019  1.00  0.00     0.177 HD
ENDBRANCH  13  17
TORSDOF 1
ENDMDL
MODEL 2
REMARK VINA RESULT: -4.887980593      2.593      3.125
REMARK  1 active torsions:
REMARK  status: ('A' for Active; 'I' for Inactive)
REMARK       I    between atoms: N5_10  and  C3_11 
REMARK       I    between atoms: C3_11  and  N6_13 
REMARK    1  A    between atoms: N6_13  and  N7_15 
ROOT
HETATM    1  C1  UNL     1      -5.719   6.217  19.957  1.00  0.00     0.180 C 
HETATM    2  N1  UNL     1      -5.649   6.567  18.554  1.00  0.00    -0.135 N 
HETATM    3  C2  UNL     1      -5.880   7.900  18.129  1.00  0.00     0.694 C 
HETATM    4  N2  UNL     1      -6.159   8.863  18.939  1.00  0.00    -0.233 N 
ATOM      5  H21 UNL     1      -6.325   9.822  18.634  1.00  0.00     0.174 HD
ATOM      6  H22 UNL     1      -6.224   8.684  19.941  1.00  0.00     0.174 HD
HETATM    7  N3  UNL     1      -5.788   8.152  16.715  1.00  0.00    -0.115 N 
ATOM      8  H3  UNL     1      -6.331   8.887  16.264  1.00  0.00     0.203 HD
HETATM    9  N4  UNL     1      -4.899   7.320  15.982  1.00  0.00     0.008 NA
HETATM   10  N5  UNL     1      -5.293   5.956  16.198  1.00  0.00    -0.135 N 
HETATM   11  C3  UNL     1      -5.565   5.149  15.087  1.00  0.00     0.362 C 
HETATM   12  O1  UNL     1      -5.430   5.663  13.932  1.00  0.00    -0.243 OA
HETATM   13  N6  UNL     1      -5.979   3.818  15.121  1.00  0.00    -0.257 N 
ATOM     14  H6  UNL     1      -6.100   3.376  16.033  1.00  0.00     0.191 HD
HETATM   15  C4  UNL     1      -5.352   5.593  17.561  1.00  0.00     0.364 C 
HETATM   16  O2  UNL     1      -5.131   4.385  17.850  1.00  0.00    -0.244 OA
ENDROOT
BRANCH  13  17
HETATM   17  N7  UNL     1      -6.238   3.051  13.974  1.00  0.00    -0.341 N 
ATOM     18  H72 UNL     1      -5.615   2.265  13.792  1.00  0.00     0.177 HD
ATOM     19  H71 UNL     1      -7.005   3.238  13.327  1.00  0.00     0.177 HD
ENDBRANCH  13  17
TORSDOF 1
ENDMDL
MODEL 3
REMARK VINA RESULT: -4.861208835      1.993      2.768
REMARK  1 active torsions:
REMARK  status: ('A' for Active; 'I' for Inactive)
REMARK       I    between atoms: N5_10  and  C3_11 
REMARK       I    between atoms: C3_11  and  N6_13 
REMARK    1  A    between atoms: N6_13  and  N7_15 
ROOT
HETATM    1  C1  UNL     1      -5.777   7.120  20.469  1.00  0.00     0.180 C 
HETATM    2  N1  UNL     1      -5.063   7.609  19.308  1.00  0.00    -0.135 N 
HETATM    3  C2  UNL     1      -4.271   8.782  19.388  1.00  0.00     0.694 C 
HETATM    4  N2  UNL     1      -4.135   9.473  20.468  1.00  0.00    -0.233 N 
ATOM      5  H21 UNL     1      -3.565  10.318  20.525  1.00  0.00     0.174 HD
ATOM      6  H22 UNL     1      -4.612   9.185  21.322  1.00  0.00     0.174 HD
HETATM    7  N3  UNL     1      -3.598   9.190  18.183  1.00  0.00    -0.115 N 
ATOM      8  H3  UNL     1      -3.390  10.169  17.988  1.00  0.00     0.203 HD
HETATM    9  N4  UNL     1      -3.238   8.153  17.279  1.00  0.00     0.008 NA
HETATM   10  N5  UNL     1      -4.433   7.433  16.937  1.00  0.00    -0.135 N 
HETATM   11  C3  UNL     1      -4.772   7.293  15.587  1.00  0.00     0.362 C 
HETATM   12  O1  UNL     1      -3.989   7.799  14.721  1.00  0.00    -0.243 OA
HETATM   13  N6  UNL     1      -5.902   6.647  15.088  1.00  0.00    -0.257 N 
ATOM     14  H6  UNL     1      -6.553   6.233  15.755  1.00  0.00     0.191 HD
HETATM   15  C4  UNL     1      -5.134   6.936  18.057  1.00  0.00     0.364 C 
HETATM   16  O2  UNL     1      -5.813   5.885  17.897  1.00  0.00    -0.244 OA
ENDROOT
BRANCH  13  17
HETATM   17  N7  UNL     1      -6.196   6.533  13.719  1.00  0.00    -0.341 N 
ATOM     18  H72 UNL     1      -6.838   5.790  13.443  1.00  0.00     0.177 HD
ATOM     19  H71 UNL     1      -5.807   7.146  13.002  1.00  0.00     0.177 HD
ENDBRANCH  13  17
TORSDOF 1
ENDMDL
MODEL 4
REMARK VINA RESULT: -4.477006145      2.207      2.508
REMARK  1 active torsions:
REMARK  status: ('A' for Active; 'I' for Inactive)
REMARK       I    between atoms: N5_10  and  C3_11 
REMARK       I    between atoms: C3_11  and  N6_13 
REMARK    1  A    between atoms: N6_13  and  N7_15 
ROOT
HETATM    1  C1  UNL     1      -2.864   9.258  17.920  1.00  0.00     0.180 C 
HETATM    2  N1  UNL     1      -3.809   8.178  18.117  1.00  0.00    -0.135 N 
HETATM    3  C2  UNL     1      -4.305   7.879  19.410  1.00  0.00     0.694 C 
HETATM    4  N2  UNL     1      -3.959   8.528  20.469  1.00  0.00    -0.233 N 
ATOM      5  H21 UNL     1      -4.316   8.312  21.400  1.00  0.00     0.174 HD
ATOM      6  H22 UNL     1      -3.296   9.299  20.401  1.00  0.00     0.174 HD
HETATM    7  N3  UNL     1      -5.241   6.790  19.507  1.00  0.00    -0.115 N 
ATOM      8  H3  UNL     1      -5.317   6.219  20.348  1.00  0.00     0.203 HD
HETATM    9  N4  UNL     1      -6.054   6.553  18.365  1.00  0.00     0.008 NA
HETATM   10  N5  UNL     1      -5.185   6.336  17.243  1.00  0.00    -0.135 N 
HETATM   11  C3  UNL     1      -5.326   5.160  16.498  1.00  0.00     0.362 C 
HETATM   12  O1  UNL     1      -6.238   4.343  16.844  1.00  0.00    -0.243 OA
HETATM   13  N6  UNL     1      -4.554   4.786  15.400  1.00  0.00    -0.257 N 
ATOM     14  H6  UNL     1      -3.811   5.417  15.097  1.00  0.00     0.191 HD
HETATM   15  C4  UNL     1      -4.266   7.386  17.027  1.00  0.00     0.364 C 
HETATM   16  O2  UNL     1      -3.879   7.584  15.843  1.00  0.00    -0.244 OA
ENDROOT
BRANCH  13  17
HETATM   17  N7  UNL     1      -4.738   3.591  14.685  1.00  0.00    -0.341 N 
ATOM     18  H72 UNL     1      -4.135   2.806  14.931  1.00  0.00     0.177 HD
ATOM     19  H71 UNL     1      -5.432   3.473  13.946  1.00  0.00     0.177 HD
ENDBRANCH  13  17
TORSDOF 1
ENDMDL
MODEL 5
REMARK VINA RESULT: -4.363092183      1.955      4.360
REMARK  1 active torsions:
REMARK  status: ('A' for Active; 'I' for Inactive)
REMARK       I    between atoms: N5_10  and  C3_11 
REMARK       I    between atoms: C3_11  and  N6_13 
REMARK    1  A    between atoms: N6_13  and  N7_15 
ROOT
HETATM    1  C1  UNL     1      -3.395   7.087  14.127  1.00  0.00     0.180 C 
HETATM    2  N1  UNL     1      -4.251   6.916  15.282  1.00  0.00    -0.135 N 
HETATM    3  C2  UNL     1      -5.454   6.173  15.186  1.00  0.00     0.694 C 
HETATM    4  N2  UNL     1      -5.858   5.615  14.096  1.00  0.00    -0.233 N 
ATOM      5  H21 UNL     1      -6.724   5.081  14.026  1.00  0.00     0.174 HD
ATOM      6  H22 UNL     1      -5.302   5.699  13.244  1.00  0.00     0.174 HD
HETATM    7  N3  UNL     1      -6.238   6.055  16.387  1.00  0.00    -0.115 N 
ATOM      8  H3  UNL     1      -7.253   5.956  16.360  1.00  0.00     0.203 HD
HETATM    9  N4  UNL     1      -5.522   6.085  17.614  1.00  0.00     0.008 NA
HETATM   10  N5  UNL     1      -4.769   7.307  17.655  1.00  0.00    -0.135 N 
HETATM   11  C3  UNL     1      -4.938   8.167  18.745  1.00  0.00     0.362 C 
HETATM   12  O1  UNL     1      -5.743   7.811  19.664  1.00  0.00    -0.243 OA
HETATM   13  N6  UNL     1      -4.304   9.396  18.928  1.00  0.00    -0.257 N 
ATOM     14  H6  UNL     1      -3.654   9.712  18.208  1.00  0.00     0.191 HD
HETATM   15  C4  UNL     1      -3.918   7.485  16.543  1.00  0.00     0.364 C 
HETATM   16  O2  UNL     1      -2.865   8.158  16.718  1.00  0.00    -0.244 OA
ENDROOT
BRANCH  13  17
HETATM   17  N7  UNL     1      -4.509  10.222  20.045  1.00  0.00    -0.341 N 
ATOM     18  H72 UNL     1      -3.985  11.097  20.076  1.00  0.00     0.177 HD
ATOM     19  H71 UNL     1      -5.142   9.995  20.811  1.00  0.00     0.177 HD
ENDBRANCH  13  17
TORSDOF 1
ENDMDL
