MODEL 1
REMARK VINA RESULT: -4.943232311      0.000      0.000
REMARK  2 active torsions:
REMARK  status: ('A' for Active; 'I' for Inactive)
REMARK    1  A    between atoms: N3_6  and  N4_8 
REMARK       I    between atoms: N4_8  and  C3_10 
REMARK    2  A    between atoms: N7_17  and  N8_18 
ROOT
HETATM    1  C1  UNL     1      -4.563   9.578  20.469  1.00  0.00     0.202 C 
HETATM    2  N1  UNL     1      -4.492   8.951  19.150  1.00  0.00    -0.213 N 
HETATM    3  N2  UNL     1      -5.543   8.525  18.471  1.00  0.00    -0.262 N 
ATOM      4  H2  UNL     1      -6.515   8.577  18.775  1.00  0.00     0.190 HD
HETATM    5  C2  UNL     1      -5.104   8.009  17.308  1.00  0.00     0.209 A 
HETATM    6  N3  UNL     1      -5.815   7.488  16.361  1.00  0.00    -0.277 N 
ATOM      7  H3  UNL     1      -6.829   7.438  16.459  1.00  0.00     0.189 HD
HETATM    8  C4  UNL     1      -3.732   8.132  17.289  1.00  0.00     0.329 A 
HETATM    9  O1  UNL     1      -2.944   7.760  16.354  1.00  0.00    -0.260 OA
HETATM   10  N7  UNL     1      -3.398   8.720  18.447  1.00  0.00    -0.144 N 
ENDROOT
BRANCH   6  11
HETATM   11  N4  UNL     1      -5.206   6.990  15.202  1.00  0.00    -0.272 N 
HETATM   12  C3  UNL     1      -5.084   5.594  15.093  1.00  0.00     0.200 C 
HETATM   13  N5  UNL     1      -3.931   5.063  15.022  1.00  0.00    -0.372 N 
HETATM   14  N6  UNL     1      -6.238   4.806  15.065  1.00  0.00    -0.062 NA
ATOM     15  H52 UNL     1      -3.090   5.638  15.042  1.00  0.00     0.158 HD
ATOM     16  H51 UNL     1      -3.843   4.050  14.942  1.00  0.00     0.158 HD
ATOM     17  H4  UNL     1      -4.867   7.613  14.470  1.00  0.00     0.189 HD
ENDBRANCH   6  11
BRANCH  10  18
HETATM   18  N8  UNL     1      -2.098   9.034  18.844  1.00  0.00    -0.319 N 
ATOM     19  H82 UNL     1      -1.822   9.316  19.785  1.00  0.00     0.179 HD
ATOM     20  H81 UNL     1      -1.275   9.020  18.240  1.00  0.00     0.179 HD
ENDBRANCH  10  18
TORSDOF 2
ENDMDL
MODEL 2
REMARK VINA RESULT: -4.908645625      1.888      5.060
REMARK  2 active torsions:
REMARK  status: ('A' for Active; 'I' for Inactive)
REMARK    1  A    between atoms: N3_6  and  N4_8 
REMARK       I    between atoms: N4_8  and  C3_10 
REMARK    2  A    between atoms: N7_17  and  N8_18 
ROOT
HETATM    1  C1  UNL     1      -5.115   3.657  14.470  1.00  0.00     0.202 C 
HETATM    2  N1  UNL     1      -5.071   4.747  15.444  1.00  0.00    -0.213 N 
HETATM    3  N2  UNL     1      -4.510   5.923  15.221  1.00  0.00    -0.262 N 
ATOM      4  H2  UNL     1      -4.047   6.212  14.360  1.00  0.00     0.190 HD
HETATM    5  C2  UNL     1      -4.658   6.671  16.330  1.00  0.00     0.209 A 
HETATM    6  N3  UNL     1      -4.250   7.884  16.521  1.00  0.00    -0.277 N 
ATOM      7  H3  UNL     1      -3.754   8.373  15.776  1.00  0.00     0.189 HD
HETATM    8  C4  UNL     1      -5.337   5.911  17.257  1.00  0.00     0.329 A 
HETATM    9  O1  UNL     1      -5.672   6.266  18.439  1.00  0.00    -0.260 OA
HETATM   10  N7  UNL     1      -5.571   4.730  16.666  1.00  0.00    -0.144 N 
ENDROOT
BRANCH   6  11
HETATM   11  N4  UNL     1      -4.483   8.532  17.741  1.00  0.00    -0.272 N 
HETATM   12  C3  UNL     1      -3.407   8.602  18.642  1.00  0.00     0.200 C 
HETATM   13  N5  UNL     1      -3.498   8.044  19.781  1.00  0.00    -0.372 N 
HETATM   14  N6  UNL     1      -2.246   9.287  18.271  1.00  0.00    -0.062 NA
ATOM     15  H52 UNL     1      -4.344   7.545  20.051  1.00  0.00     0.158 HD
ATOM     16  H51 UNL     1      -2.717   8.096  20.435  1.00  0.00     0.158 HD
ATOM     17  H4  UNL     1      -5.392   8.935  17.964  1.00  0.00     0.189 HD
ENDBRANCH   6  11
BRANCH  10  18
HETATM   18  N8  UNL     1      -6.238   3.655  17.254  1.00  0.00    -0.319 N 
ATOM     19  H82 UNL     1      -6.645   2.868  16.748  1.00  0.00     0.179 HD
ATOM     20  H81 UNL     1      -6.398   3.532  18.254  1.00  0.00     0.179 HD
ENDBRANCH  10  18
TORSDOF 2
ENDMDL
MODEL 3
REMARK VINA RESULT: -4.661446597      2.027      2.182
REMARK  2 active torsions:
REMARK  status: ('A' for Active; 'I' for Inactive)
REMARK    1  A    between atoms: N3_6  and  N4_8 
REMARK       I    between atoms: N4_8  and  C3_10 
REMARK    2  A    between atoms: N7_17  and  N8_18 
ROOT
HETATM    1  C1  UNL     1      -6.238   9.179  20.469  1.00  0.00     0.202 C 
HETATM    2  N1  UNL     1      -5.206   8.931  19.465  1.00  0.00    -0.213 N 
HETATM    3  N2  UNL     1      -5.384   8.195  18.381  1.00  0.00    -0.262 N 
ATOM      4  H2  UNL     1      -6.244   7.718  18.115  1.00  0.00     0.190 HD
HETATM    5  C2  UNL     1      -4.228   8.187  17.691  1.00  0.00     0.209 A 
HETATM    6  N3  UNL     1      -3.984   7.583  16.572  1.00  0.00    -0.277 N 
ATOM      7  H3  UNL     1      -4.719   7.038  16.121  1.00  0.00     0.189 HD
HETATM    8  C4  UNL     1      -3.319   8.950  18.391  1.00  0.00     0.329 A 
HETATM    9  O1  UNL     1      -2.106   9.187  18.062  1.00  0.00    -0.260 OA
HETATM   10  N7  UNL     1      -3.967   9.389  19.479  1.00  0.00    -0.144 N 
ENDROOT
BRANCH   6  11
HETATM   11  N4  UNL     1      -2.721   7.671  15.974  1.00  0.00    -0.272 N 
HETATM   12  C3  UNL     1      -2.526   6.949  14.784  1.00  0.00     0.200 C 
HETATM   13  N5  UNL     1      -1.653   6.026  14.739  1.00  0.00    -0.372 N 
HETATM   14  N6  UNL     1      -3.299   7.258  13.661  1.00  0.00    -0.062 NA
ATOM     15  H52 UNL     1      -1.089   5.801  15.558  1.00  0.00     0.158 HD
ATOM     16  H51 UNL     1      -1.511   5.503  13.875  1.00  0.00     0.158 HD
ATOM     17  H4  UNL     1      -1.976   8.234  16.384  1.00  0.00     0.189 HD
ENDBRANCH   6  11
BRANCH  10  18
HETATM   18  N8  UNL     1      -3.416  10.202  20.469  1.00  0.00    -0.319 N 
ATOM     19  H82 UNL     1      -2.420  10.279  20.680  1.00  0.00     0.179 HD
ATOM     20  H81 UNL     1      -3.941  10.812  21.096  1.00  0.00     0.179 HD
ENDBRANCH  10  18
TORSDOF 2
ENDMDL
MODEL 4
REMARK VINA RESULT: -4.653232933      1.607      2.103
REMARK  2 active torsions:
REMARK  status: ('A' for Active; 'I' for Inactive)
REMARK    1  A    between atoms: N3_6  and  N4_8 
REMARK       I    between atoms: N4_8  and  C3_10 
REMARK    2  A    between atoms: N7_17  and  N8_18 
ROOT
HETATM    1  C1  UNL     1      -2.473   9.332  19.347  1.00  0.00     0.202 C 
HETATM    2  N1  UNL     1      -3.460   8.582  18.572  1.00  0.00    -0.213 N 
HETATM    3  N2  UNL     1      -3.441   8.466  17.256  1.00  0.00    -0.262 N 
ATOM      4  H2  UNL     1      -2.750   8.876  16.628  1.00  0.00     0.190 HD
HETATM    5  C2  UNL     1      -4.493   7.710  16.890  1.00  0.00     0.209 A 
HETATM    6  N3  UNL     1      -4.831   7.360  15.691  1.00  0.00    -0.277 N 
ATOM      7  H3  UNL     1      -4.268   7.667  14.897  1.00  0.00     0.189 HD
HETATM    8  C4  UNL     1      -5.172   7.359  18.036  1.00  0.00     0.329 A 
HETATM    9  O1  UNL     1      -6.229   6.643  18.110  1.00  0.00    -0.260 OA
HETATM   10  N7  UNL     1      -4.498   7.919  19.050  1.00  0.00    -0.144 N 
ENDROOT
BRANCH   6  11
HETATM   11  N4  UNL     1      -5.963   6.566  15.471  1.00  0.00    -0.272 N 
HETATM   12  C3  UNL     1      -5.749   5.279  14.946  1.00  0.00     0.200 C 
HETATM   13  N5  UNL     1      -6.238   4.968  13.815  1.00  0.00    -0.372 N 
HETATM   14  N6  UNL     1      -4.998   4.357  15.680  1.00  0.00    -0.062 NA
ATOM     15  H52 UNL     1      -6.786   5.641  13.280  1.00  0.00     0.158 HD
ATOM     16  H51 UNL     1      -6.083   4.034  13.434  1.00  0.00     0.158 HD
ATOM     17  H4  UNL     1      -6.901   6.905  15.683  1.00  0.00     0.189 HD
ENDBRANCH   6  11
BRANCH  10  18
HETATM   18  N8  UNL     1      -4.842   7.817  20.399  1.00  0.00    -0.319 N 
ATOM     19  H82 UNL     1      -4.652   8.524  21.109  1.00  0.00     0.179 HD
ATOM     20  H81 UNL     1      -5.321   7.026  20.829  1.00  0.00     0.179 HD
ENDBRANCH  10  18
TORSDOF 2
ENDMDL
MODEL 5
REMARK VINA RESULT: -4.445691716      1.993      4.738
REMARK  2 active torsions:
REMARK  status: ('A' for Active; 'I' for Inactive)
REMARK    1  A    between atoms: N3_6  and  N4_8 
REMARK       I    between atoms: N4_8  and  C3_10 
REMARK    2  A    between atoms: N7_17  and  N8_18 
ROOT
HETATM    1  C1  UNL     1      -1.815   6.269  14.289  1.00  0.00     0.202 C 
HETATM    2  N1  UNL     1      -2.911   6.584  15.204  1.00  0.00    -0.213 N 
HETATM    3  N2  UNL     1      -2.950   7.654  15.979  1.00  0.00    -0.262 N 
ATOM      4  H2  UNL     1      -2.236   8.379  16.036  1.00  0.00     0.190 HD
HETATM    5  C2  UNL     1      -4.098   7.617  16.680  1.00  0.00     0.209 A 
HETATM    6  N3  UNL     1      -4.517   8.480  17.549  1.00  0.00    -0.277 N 
ATOM      7  H3  UNL     1      -3.948   9.300  17.762  1.00  0.00     0.189 HD
HETATM    8  C4  UNL     1      -4.777   6.477  16.309  1.00  0.00     0.329 A 
HETATM    9  O1  UNL     1      -5.911   6.084  16.751  1.00  0.00    -0.260 OA
HETATM   10  N7  UNL     1      -4.006   5.870  15.396  1.00  0.00    -0.144 N 
ENDROOT
BRANCH   6  11
HETATM   11  N4  UNL     1      -5.744   8.300  18.200  1.00  0.00    -0.272 N 
HETATM   12  C3  UNL     1      -5.701   7.984  19.569  1.00  0.00     0.200 C 
HETATM   13  N5  UNL     1      -6.177   6.879  19.978  1.00  0.00    -0.372 N 
HETATM   14  N6  UNL     1      -5.133   8.895  20.464  1.00  0.00    -0.062 NA
ATOM     15  H52 UNL     1      -6.591   6.215  19.325  1.00  0.00     0.158 HD
ATOM     16  H51 UNL     1      -6.146   6.650  20.972  1.00  0.00     0.158 HD
ATOM     17  H4  UNL     1      -6.629   8.395  17.702  1.00  0.00     0.189 HD
ENDBRANCH   6  11
BRANCH  10  18
HETATM   18  N8  UNL     1      -4.315   4.672  14.751  1.00  0.00    -0.319 N 
ATOM     19  H82 UNL     1      -3.899   3.765  14.965  1.00  0.00     0.179 HD
ATOM     20  H81 UNL     1      -4.990   4.563  13.994  1.00  0.00     0.179 HD
ENDBRANCH  10  18
TORSDOF 2
ENDMDL
