MODEL 1
REMARK VINA RESULT: -4.679778836      0.000      0.000
REMARK  4 active torsions:
REMARK  status: ('A' for Active; 'I' for Inactive)
REMARK    1  A    between atoms: N1_1  and  C1_4 
REMARK    2  A    between atoms: C2_5  and  S1_6 
REMARK    3  A    between atoms: S1_6  and  N2_7 
REMARK    4  A    between atoms: N5_15  and  N6_16 
ROOT
HETATM    1  C1  UNL     1      -4.441   6.899  16.348  1.00  0.00     0.178 A 
HETATM    2  C2  UNL     1      -4.220   6.004  15.325  1.00  0.00     0.208 A 
HETATM    3  N3  UNL     1      -3.002   6.313  14.845  1.00  0.00    -0.268 N 
ATOM      4  H3  UNL     1      -2.545   5.829  14.073  1.00  0.00     0.185 HD
HETATM    5  N4  UNL     1      -2.476   7.331  15.508  1.00  0.00     0.003 NA
HETATM    6  N5  UNL     1      -3.366   7.701  16.445  1.00  0.00    -0.167 N 
ENDROOT
BRANCH   2   7
HETATM    7  S1  UNL     1      -5.344   4.763  14.829  1.00  0.00     0.277 S 
HETATM    8  O1  UNL     1      -6.238   4.471  16.019  1.00  0.00    -0.199 OA
HETATM    9  O2  UNL     1      -6.235   5.203  13.719  1.00  0.00    -0.199 OA
BRANCH   7  10
HETATM   10  N2  UNL     1      -4.556   3.299  14.407  1.00  0.00    -0.323 N 
ATOM     11  H22 UNL     1      -3.953   2.788  15.052  1.00  0.00     0.169 HD
ATOM     12  H21 UNL     1      -4.762   3.008  13.451  1.00  0.00     0.169 HD
ENDBRANCH   7  10
ENDBRANCH   2   7
BRANCH   1  13
HETATM   13  N1  UNL     1      -5.496   6.960  17.090  1.00  0.00    -0.381 N 
ATOM     14  H12 UNL     1      -6.065   6.166  17.381  1.00  0.00     0.157 HD
ATOM     15  H11 UNL     1      -5.903   7.808  17.485  1.00  0.00     0.157 HD
ENDBRANCH   1  13
BRANCH   6  16
HETATM   16  N6  UNL     1      -3.237   8.731  17.377  1.00  0.00    -0.324 N 
ATOM     17  H62 UNL     1      -3.939   9.425  17.636  1.00  0.00     0.178 HD
ATOM     18  H61 UNL     1      -2.393   8.910  17.920  1.00  0.00     0.178 HD
ENDBRANCH   6  16
TORSDOF 4
ENDMDL
MODEL 2
REMARK VINA RESULT: -4.415113261      2.379      3.103
REMARK  4 active torsions:
REMARK  status: ('A' for Active; 'I' for Inactive)
REMARK    1  A    between atoms: N1_1  and  C1_4 
REMARK    2  A    between atoms: C2_5  and  S1_6 
REMARK    3  A    between atoms: S1_6  and  N2_7 
REMARK    4  A    between atoms: N5_15  and  N6_16 
ROOT
HETATM    1  C1  UNL     1      -5.135   7.881  17.159  1.00  0.00     0.178 A 
HETATM    2  C2  UNL     1      -3.848   7.712  16.699  1.00  0.00     0.208 A 
HETATM    3  N3  UNL     1      -3.066   8.308  17.617  1.00  0.00    -0.268 N 
ATOM      4  H3  UNL     1      -2.049   8.356  17.566  1.00  0.00     0.185 HD
HETATM    5  N4  UNL     1      -3.793   8.823  18.596  1.00  0.00     0.003 NA
HETATM    6  N5  UNL     1      -5.082   8.562  18.317  1.00  0.00    -0.167 N 
ENDROOT
BRANCH   2   7
HETATM    7  S1  UNL     1      -3.420   6.883  15.223  1.00  0.00     0.277 S 
HETATM    8  O1  UNL     1      -4.148   7.586  14.092  1.00  0.00    -0.199 OA
HETATM    9  O2  UNL     1      -1.964   6.967  14.916  1.00  0.00    -0.199 OA
BRANCH   7  10
HETATM   10  N2  UNL     1      -3.929   5.246  15.222  1.00  0.00    -0.323 N 
ATOM     11  H22 UNL     1      -4.128   4.727  14.366  1.00  0.00     0.169 HD
ATOM     12  H21 UNL     1      -4.006   4.862  16.164  1.00  0.00     0.169 HD
ENDBRANCH   7  10
ENDBRANCH   2   7
BRANCH   1  13
HETATM   13  N1  UNL     1      -6.210   7.461  16.581  1.00  0.00    -0.381 N 
ATOM     14  H12 UNL     1      -6.461   6.484  16.429  1.00  0.00     0.157 HD
ATOM     15  H11 UNL     1      -6.954   8.045  16.198  1.00  0.00     0.157 HD
ENDBRANCH   1  13
BRANCH   6  16
HETATM   16  N6  UNL     1      -6.201   8.915  19.072  1.00  0.00    -0.324 N 
ATOM     17  H62 UNL     1      -6.559   9.854  19.247  1.00  0.00     0.178 HD
ATOM     18  H61 UNL     1      -6.804   8.247  19.550  1.00  0.00     0.178 HD
ENDBRANCH   6  16
TORSDOF 4
ENDMDL
MODEL 3
REMARK VINA RESULT: -4.360097787      2.389      3.329
REMARK  4 active torsions:
REMARK  status: ('A' for Active; 'I' for Inactive)
REMARK    1  A    between atoms: N1_1  and  C1_4 
REMARK    2  A    between atoms: C2_5  and  S1_6 
REMARK    3  A    between atoms: S1_6  and  N2_7 
REMARK    4  A    between atoms: N5_15  and  N6_16 
ROOT
HETATM    1  C1  UNL     1      -4.057   8.187  17.788  1.00  0.00     0.178 A 
HETATM    2  C2  UNL     1      -4.554   7.300  16.858  1.00  0.00     0.208 A 
HETATM    3  N3  UNL     1      -5.742   6.905  17.351  1.00  0.00    -0.268 N 
ATOM      4  H3  UNL     1      -6.366   6.242  16.892  1.00  0.00     0.185 HD
HETATM    5  N4  UNL     1      -5.993   7.493  18.510  1.00  0.00     0.003 NA
HETATM    6  N5  UNL     1      -4.949   8.292  18.788  1.00  0.00    -0.167 N 
ENDROOT
BRANCH   2   7
HETATM    7  S1  UNL     1      -3.740   6.845  15.383  1.00  0.00     0.277 S 
HETATM    8  O1  UNL     1      -4.347   7.675  14.266  1.00  0.00    -0.199 OA
HETATM    9  O2  UNL     1      -2.283   7.158  15.407  1.00  0.00    -0.199 OA
BRANCH   7  10
HETATM   10  N2  UNL     1      -3.981   5.194  14.985  1.00  0.00    -0.323 N 
ATOM     11  H22 UNL     1      -4.318   4.887  14.072  1.00  0.00     0.169 HD
ATOM     12  H21 UNL     1      -3.752   4.571  15.759  1.00  0.00     0.169 HD
ENDBRANCH   7  10
ENDBRANCH   2   7
BRANCH   1  13
HETATM   13  N1  UNL     1      -2.930   8.813  17.714  1.00  0.00    -0.381 N 
ATOM     14  H12 UNL     1      -2.434   9.239  18.496  1.00  0.00     0.157 HD
ATOM     15  H11 UNL     1      -2.383   8.966  16.867  1.00  0.00     0.157 HD
ENDBRANCH   1  13
BRANCH   6  16
HETATM   16  N6  UNL     1      -4.780   9.107  19.908  1.00  0.00    -0.324 N 
ATOM     17  H62 UNL     1      -3.922   9.564  20.218  1.00  0.00     0.178 HD
ATOM     18  H61 UNL     1      -5.524   9.341  20.564  1.00  0.00     0.178 HD
ENDBRANCH   6  16
TORSDOF 4
ENDMDL
MODEL 4
REMARK VINA RESULT: -4.330149318      3.681      4.991
REMARK  4 active torsions:
REMARK  status: ('A' for Active; 'I' for Inactive)
REMARK    1  A    between atoms: N1_1  and  C1_4 
REMARK    2  A    between atoms: C2_5  and  S1_6 
REMARK    3  A    between atoms: S1_6  and  N2_7 
REMARK    4  A    between atoms: N5_15  and  N6_16 
ROOT
HETATM    1  C1  UNL     1      -4.053   7.610  16.373  1.00  0.00     0.178 A 
HETATM    2  C2  UNL     1      -4.438   8.187  17.562  1.00  0.00     0.208 A 
HETATM    3  N3  UNL     1      -5.776   8.052  17.602  1.00  0.00    -0.268 N 
ATOM      4  H3  UNL     1      -6.368   8.381  18.364  1.00  0.00     0.185 HD
HETATM    5  N4  UNL     1      -6.221   7.433  16.520  1.00  0.00     0.003 NA
HETATM    6  N5  UNL     1      -5.155   7.155  15.750  1.00  0.00    -0.167 N 
ENDROOT
BRANCH   2   7
HETATM    7  S1  UNL     1      -3.346   8.917  18.713  1.00  0.00     0.277 S 
HETATM    8  O1  UNL     1      -3.161   7.922  19.843  1.00  0.00    -0.199 OA
HETATM    9  O2  UNL     1      -1.995   9.176  18.142  1.00  0.00    -0.199 OA
BRANCH   7  10
HETATM   10  N2  UNL     1      -3.983  10.356  19.395  1.00  0.00    -0.323 N 
ATOM     11  H22 UNL     1      -4.957  10.639  19.286  1.00  0.00     0.169 HD
ATOM     12  H21 UNL     1      -3.280  10.884  19.914  1.00  0.00     0.169 HD
ENDBRANCH   7  10
ENDBRANCH   2   7
BRANCH   1  13
HETATM   13  N1  UNL     1      -2.845   7.518  15.928  1.00  0.00    -0.381 N 
ATOM     14  H12 UNL     1      -2.240   8.301  15.681  1.00  0.00     0.157 HD
ATOM     15  H11 UNL     1      -2.330   6.652  15.763  1.00  0.00     0.157 HD
ENDBRANCH   1  13
BRANCH   6  16
HETATM   16  N6  UNL     1      -5.148   6.508  14.514  1.00  0.00    -0.324 N 
ATOM     17  H62 UNL     1      -4.526   5.759  14.210  1.00  0.00     0.178 HD
ATOM     18  H61 UNL     1      -5.787   6.725  13.750  1.00  0.00     0.178 HD
ENDBRANCH   6  16
TORSDOF 4
ENDMDL
MODEL 5
REMARK VINA RESULT: -4.311197168      2.019      2.847
REMARK  4 active torsions:
REMARK  status: ('A' for Active; 'I' for Inactive)
REMARK    1  A    between atoms: N1_1  and  C1_4 
REMARK    2  A    between atoms: C2_5  and  S1_6 
REMARK    3  A    between atoms: S1_6  and  N2_7 
REMARK    4  A    between atoms: N5_15  and  N6_16 
ROOT
HETATM    1  C1  UNL     1      -4.974   7.488  17.625  1.00  0.00     0.178 A 
HETATM    2  C2  UNL     1      -3.891   7.638  16.787  1.00  0.00     0.208 A 
HETATM    3  N3  UNL     1      -3.087   8.520  17.408  1.00  0.00    -0.268 N 
ATOM      4  H3  UNL     1      -2.193   8.844  17.040  1.00  0.00     0.185 HD
HETATM    5  N4  UNL     1      -3.610   8.910  18.559  1.00  0.00     0.003 NA
HETATM    6  N5  UNL     1      -4.785   8.272  18.701  1.00  0.00    -0.167 N 
ENDROOT
BRANCH   2   7
HETATM    7  S1  UNL     1      -3.693   6.814  15.261  1.00  0.00     0.277 S 
HETATM    8  O1  UNL     1      -4.426   5.490  15.372  1.00  0.00    -0.199 OA
HETATM    9  O2  UNL     1      -4.310   7.552  14.123  1.00  0.00    -0.199 OA
BRANCH   7  10
HETATM   10  N2  UNL     1      -2.050   6.464  14.915  1.00  0.00    -0.323 N 
ATOM     11  H22 UNL     1      -1.676   5.515  14.898  1.00  0.00     0.169 HD
ATOM     12  H21 UNL     1      -1.504   7.306  14.732  1.00  0.00     0.169 HD
ENDBRANCH   7  10
ENDBRANCH   2   7
BRANCH   1  13
HETATM   13  N1  UNL     1      -5.996   6.727  17.418  1.00  0.00    -0.381 N 
ATOM     14  H12 UNL     1      -6.307   6.382  16.510  1.00  0.00     0.157 HD
ATOM     15  H11 UNL     1      -6.631   6.368  18.131  1.00  0.00     0.157 HD
ENDBRANCH   1  13
BRANCH   6  16
HETATM   16  N6  UNL     1      -5.682   8.376  19.764  1.00  0.00    -0.324 N 
ATOM     17  H62 UNL     1      -6.327   9.142  19.960  1.00  0.00     0.178 HD
ATOM     18  H61 UNL     1      -5.794   7.669  20.491  1.00  0.00     0.178 HD
ENDBRANCH   6  16
TORSDOF 4
ENDMDL
