MODEL 1
REMARK VINA RESULT: -5.442399723      0.000      0.000
REMARK  3 active torsions:
REMARK  status: ('A' for Active; 'I' for Inactive)
REMARK    1  A    between atoms: N1_1  and  N2_4 
REMARK    2  A    between atoms: N2_4  and  C1_6 
REMARK    3  A    between atoms: C4_15  and  N5_16 
ROOT
HETATM    1  C1  UNL     1      -3.649   7.134  15.373  1.00  0.00     0.174 A 
HETATM    2  N3  UNL     1      -3.181   7.811  16.462  1.00  0.00    -0.300 N 
ATOM      3  H3  UNL     1      -2.205   8.106  16.506  1.00  0.00     0.171 HD
HETATM    4  C2  UNL     1      -4.014   8.082  17.474  1.00  0.00     0.315 A 
HETATM    5  O1  UNL     1      -3.576   8.717  18.491  1.00  0.00    -0.262 OA
HETATM    6  C3  UNL     1      -5.343   7.697  17.451  1.00  0.00     0.315 A 
HETATM    7  O2  UNL     1      -6.091   7.982  18.435  1.00  0.00    -0.262 OA
HETATM    8  N4  UNL     1      -5.773   7.035  16.370  1.00  0.00    -0.297 N 
ATOM      9  H4  UNL     1      -6.748   6.739  16.330  1.00  0.00     0.171 HD
HETATM   10  C4  UNL     1      -4.949   6.740  15.316  1.00  0.00     0.222 A 
ENDROOT
BRANCH   1  11
HETATM   11  N2  UNL     1      -2.672   6.868  14.349  1.00  0.00    -0.289 N 
ATOM     12  H2  UNL     1      -2.816   7.200  13.395  1.00  0.00     0.188 HD
BRANCH  11  13
HETATM   13  N1  UNL     1      -1.512   6.138  14.687  1.00  0.00    -0.344 N 
ATOM     14  H12 UNL     1      -1.262   6.013  15.669  1.00  0.00     0.176 HD
ATOM     15  H11 UNL     1      -0.941   5.746  13.938  1.00  0.00     0.176 HD
ENDBRANCH  11  13
ENDBRANCH   1  11
BRANCH  10  16
HETATM   16  N5  UNL     1      -5.446   6.046  14.188  1.00  0.00    -0.094 N 
HETATM   17  O3  UNL     1      -5.597   4.826  14.221  1.00  0.00    -0.530 OA
HETATM   18  O4  UNL     1      -5.753   6.725  13.044  1.00  0.00    -0.530 OA
ENDBRANCH  10  16
TORSDOF 3
ENDMDL
MODEL 2
REMARK VINA RESULT: -5.236698313      1.870      3.130
REMARK  3 active torsions:
REMARK  status: ('A' for Active; 'I' for Inactive)
REMARK    1  A    between atoms: N1_1  and  N2_4 
REMARK    2  A    between atoms: N2_4  and  C1_6 
REMARK    3  A    between atoms: C4_15  and  N5_16 
ROOT
HETATM    1  C1  UNL     1      -5.034   7.667  16.968  1.00  0.00     0.174 A 
HETATM    2  N3  UNL     1      -5.467   8.065  18.200  1.00  0.00    -0.300 N 
ATOM      3  H3  UNL     1      -6.433   7.903  18.485  1.00  0.00     0.171 HD
HETATM    4  C2  UNL     1      -4.610   8.671  19.031  1.00  0.00     0.315 A 
HETATM    5  O1  UNL     1      -5.014   9.041  20.184  1.00  0.00    -0.262 OA
HETATM    6  C3  UNL     1      -3.293   8.908  18.680  1.00  0.00     0.315 A 
HETATM    7  O2  UNL     1      -2.521   9.483  19.506  1.00  0.00    -0.262 OA
HETATM    8  N4  UNL     1      -2.898   8.507  17.465  1.00  0.00    -0.297 N 
ATOM      9  H4  UNL     1      -1.932   8.671  17.182  1.00  0.00     0.171 HD
HETATM   10  C4  UNL     1      -3.747   7.883  16.589  1.00  0.00     0.222 A 
ENDROOT
BRANCH   1  11
HETATM   11  N2  UNL     1      -6.035   7.047  16.137  1.00  0.00    -0.289 N 
ATOM     12  H2  UNL     1      -6.751   7.611  15.680  1.00  0.00     0.188 HD
BRANCH  11  13
HETATM   13  N1  UNL     1      -6.006   5.646  15.966  1.00  0.00    -0.344 N 
ATOM     14  H12 UNL     1      -5.516   5.065  16.646  1.00  0.00     0.176 HD
ATOM     15  H11 UNL     1      -6.480   5.239  15.159  1.00  0.00     0.176 HD
ENDBRANCH  11  13
ENDBRANCH   1  11
BRANCH  10  16
HETATM   16  N5  UNL     1      -3.288   7.467  15.317  1.00  0.00    -0.094 N 
HETATM   17  O3  UNL     1      -2.168   6.974  15.187  1.00  0.00    -0.530 OA
HETATM   18  O4  UNL     1      -4.083   7.616  14.217  1.00  0.00    -0.530 OA
ENDBRANCH  10  16
TORSDOF 3
ENDMDL
MODEL 3
REMARK VINA RESULT: -5.201228542      1.934      2.956
REMARK  3 active torsions:
REMARK  status: ('A' for Active; 'I' for Inactive)
REMARK    1  A    between atoms: N1_1  and  N2_4 
REMARK    2  A    between atoms: N2_4  and  C1_6 
REMARK    3  A    between atoms: C4_15  and  N5_16 
ROOT
HETATM    1  C1  UNL     1      -4.310   6.004  15.690  1.00  0.00     0.174 A 
HETATM    2  N3  UNL     1      -5.256   5.994  16.674  1.00  0.00    -0.300 N 
ATOM      3  H3  UNL     1      -5.993   5.289  16.674  1.00  0.00     0.171 HD
HETATM    4  C2  UNL     1      -5.206   6.918  17.641  1.00  0.00     0.315 A 
HETATM    5  O1  UNL     1      -6.090   6.906  18.562  1.00  0.00    -0.262 OA
HETATM    6  C3  UNL     1      -4.221   7.889  17.675  1.00  0.00     0.315 A 
HETATM    7  O2  UNL     1      -4.218   8.740  18.616  1.00  0.00    -0.262 OA
HETATM    8  N4  UNL     1      -3.308   7.874  16.696  1.00  0.00    -0.297 N 
ATOM      9  H4  UNL     1      -2.572   8.580  16.698  1.00  0.00     0.171 HD
HETATM   10  C4  UNL     1      -3.327   6.943  15.691  1.00  0.00     0.222 A 
ENDROOT
BRANCH   1  11
HETATM   11  N2  UNL     1      -4.462   4.986  14.682  1.00  0.00    -0.289 N 
ATOM     12  H2  UNL     1      -4.274   5.195  13.701  1.00  0.00     0.188 HD
BRANCH  11  13
HETATM   13  N1  UNL     1      -4.877   3.695  15.074  1.00  0.00    -0.344 N 
ATOM     14  H12 UNL     1      -5.279   3.554  16.001  1.00  0.00     0.176 HD
ATOM     15  H11 UNL     1      -4.764   2.921  14.418  1.00  0.00     0.176 HD
ENDBRANCH  11  13
ENDBRANCH   1  11
BRANCH  10  16
HETATM   16  N5  UNL     1      -2.338   6.957  14.680  1.00  0.00    -0.094 N 
HETATM   17  O3  UNL     1      -2.588   7.416  13.567  1.00  0.00    -0.530 OA
HETATM   18  O4  UNL     1      -1.095   6.450  14.929  1.00  0.00    -0.530 OA
ENDBRANCH  10  16
TORSDOF 3
ENDMDL
MODEL 4
REMARK VINA RESULT: -4.962135951      2.288      3.528
REMARK  3 active torsions:
REMARK  status: ('A' for Active; 'I' for Inactive)
REMARK    1  A    between atoms: N1_1  and  N2_4 
REMARK    2  A    between atoms: N2_4  and  C1_6 
REMARK    3  A    between atoms: C4_15  and  N5_16 
ROOT
HETATM    1  C1  UNL     1      -3.761   7.218  16.395  1.00  0.00     0.174 A 
HETATM    2  N3  UNL     1      -4.756   6.810  17.236  1.00  0.00    -0.300 N 
ATOM      3  H3  UNL     1      -5.078   7.419  17.988  1.00  0.00     0.171 HD
HETATM    4  C2  UNL     1      -5.305   5.602  17.063  1.00  0.00     0.315 A 
HETATM    5  O1  UNL     1      -6.237   5.221  17.849  1.00  0.00    -0.262 OA
HETATM    6  C3  UNL     1      -4.894   4.748  16.055  1.00  0.00     0.315 A 
HETATM    7  O2  UNL     1      -5.451   3.615  15.933  1.00  0.00    -0.262 OA
HETATM    8  N4  UNL     1      -3.917   5.176  15.246  1.00  0.00    -0.297 N 
ATOM      9  H4  UNL     1      -3.596   4.565  14.496  1.00  0.00     0.171 HD
HETATM   10  C4  UNL     1      -3.332   6.406  15.392  1.00  0.00     0.222 A 
ENDROOT
BRANCH   1  11
HETATM   11  N2  UNL     1      -3.217   8.522  16.675  1.00  0.00    -0.289 N 
ATOM     12  H2  UNL     1      -3.094   9.205  15.928  1.00  0.00     0.188 HD
BRANCH  11  13
HETATM   13  N1  UNL     1      -2.855   8.839  18.003  1.00  0.00    -0.344 N 
ATOM     14  H12 UNL     1      -3.428   8.500  18.776  1.00  0.00     0.176 HD
ATOM     15  H11 UNL     1      -2.022   9.405  18.164  1.00  0.00     0.176 HD
ENDBRANCH  11  13
ENDBRANCH   1  11
BRANCH  10  16
HETATM   16  N5  UNL     1      -2.308   6.824  14.511  1.00  0.00    -0.094 N 
HETATM   17  O3  UNL     1      -2.555   7.599  13.588  1.00  0.00    -0.530 OA
HETATM   18  O4  UNL     1      -1.033   6.363  14.672  1.00  0.00    -0.530 OA
ENDBRANCH  10  16
TORSDOF 3
ENDMDL
MODEL 5
REMARK VINA RESULT: -4.926184333      0.880      1.228
REMARK  3 active torsions:
REMARK  status: ('A' for Active; 'I' for Inactive)
REMARK    1  A    between atoms: N1_1  and  N2_4 
REMARK    2  A    between atoms: N2_4  and  C1_6 
REMARK    3  A    between atoms: C4_15  and  N5_16 
ROOT
HETATM    1  C1  UNL     1      -3.657   7.293  15.805  1.00  0.00     0.174 A 
HETATM    2  N3  UNL     1      -2.952   8.053  16.692  1.00  0.00    -0.300 N 
ATOM      3  H3  UNL     1      -2.001   8.350  16.475  1.00  0.00     0.171 HD
HETATM    4  C2  UNL     1      -3.522   8.406  17.850  1.00  0.00     0.315 A 
HETATM    5  O1  UNL     1      -2.863   9.120  18.679  1.00  0.00    -0.262 OA
HETATM    6  C3  UNL     1      -4.810   8.023  18.180  1.00  0.00     0.315 A 
HETATM    7  O2  UNL     1      -5.305   8.388  19.289  1.00  0.00    -0.262 OA
HETATM    8  N4  UNL     1      -5.477   7.278  17.289  1.00  0.00    -0.297 N 
ATOM      9  H4  UNL     1      -6.428   6.982  17.509  1.00  0.00     0.171 HD
HETATM   10  C4  UNL     1      -4.926   6.898  16.094  1.00  0.00     0.222 A 
ENDROOT
BRANCH   1  11
HETATM   11  N2  UNL     1      -2.951   6.943  14.599  1.00  0.00    -0.289 N 
ATOM     12  H2  UNL     1      -3.317   7.214  13.686  1.00  0.00     0.188 HD
BRANCH  11  13
HETATM   13  N1  UNL     1      -1.743   6.219  14.702  1.00  0.00    -0.344 N 
ATOM     14  H12 UNL     1      -1.601   5.585  15.488  1.00  0.00     0.176 HD
ATOM     15  H11 UNL     1      -1.031   6.346  13.982  1.00  0.00     0.176 HD
ENDBRANCH  11  13
ENDBRANCH   1  11
BRANCH  10  16
HETATM   16  N5  UNL     1      -5.667   6.117  15.177  1.00  0.00    -0.094 N 
HETATM   17  O3  UNL     1      -5.844   6.506  14.024  1.00  0.00    -0.530 OA
HETATM   18  O4  UNL     1      -6.203   4.923  15.567  1.00  0.00    -0.530 OA
ENDBRANCH  10  16
TORSDOF 3
ENDMDL
