MODEL 1
REMARK VINA RESULT: -4.189562099      0.000      0.000
REMARK  1 active torsions:
REMARK  status: ('A' for Active; 'I' for Inactive)
REMARK    1  A    between atoms: C4_8  and  N3_9 
ROOT
HETATM    1  C1  UNL     1      87.658  -4.744   8.948  1.00  0.00     0.072 C 
HETATM    2  C2  UNL     1      87.050  -5.111   7.624  1.00  0.00     0.052 A 
HETATM    3  N1  UNL     1      87.518  -4.867   6.413  1.00  0.00    -0.353 N 
ATOM      4  H1  UNL     1      88.384  -4.381   6.186  1.00  0.00     0.166 HD
HETATM    5  C3  UNL     1      86.637  -5.380   5.539  1.00  0.00     0.182 A 
HETATM    6  N2  UNL     1      85.624  -5.944   6.188  1.00  0.00    -0.336 N 
ATOM      7  H2  UNL     1      84.818  -6.409   5.769  1.00  0.00     0.168 HD
HETATM    8  C4  UNL     1      85.860  -5.787   7.495  1.00  0.00     0.143 A 
ENDROOT
BRANCH   8   9
HETATM    9  N3  UNL     1      85.045  -6.230   8.548  1.00  0.00    -0.290 N 
HETATM   10  N4  UNL     1      84.786  -7.459   8.691  1.00  0.00    -0.344 N 
ATOM     11  H42 UNL     1      85.183  -8.123   8.025  1.00  0.00     0.176 HD
ATOM     12  H41 UNL     1      84.194  -7.781   9.456  1.00  0.00     0.176 HD
ATOM     13  H3  UNL     1      84.658  -5.553   9.205  1.00  0.00     0.188 HD
ENDBRANCH   8   9
TORSDOF 1
ENDMDL
MODEL 2
REMARK VINA RESULT: -4.058144317      1.104      2.790
REMARK  1 active torsions:
REMARK  status: ('A' for Active; 'I' for Inactive)
REMARK    1  A    between atoms: C4_8  and  N3_9 
ROOT
HETATM    1  C1  UNL     1      87.690  -4.524   8.990  1.00  0.00     0.072 C 
HETATM    2  C2  UNL     1      86.712  -5.475   8.361  1.00  0.00     0.052 A 
HETATM    3  N1  UNL     1      86.015  -6.434   8.942  1.00  0.00    -0.353 N 
ATOM      4  H1  UNL     1      86.035  -6.683   9.930  1.00  0.00     0.166 HD
HETATM    5  C3  UNL     1      85.277  -7.020   7.986  1.00  0.00     0.182 A 
HETATM    6  N2  UNL     1      85.502  -6.437   6.812  1.00  0.00    -0.336 N 
ATOM      7  H2  UNL     1      85.073  -6.683   5.920  1.00  0.00     0.168 HD
HETATM    8  C4  UNL     1      86.398  -5.467   7.023  1.00  0.00     0.143 A 
ENDROOT
BRANCH   8   9
HETATM    9  N3  UNL     1      86.924  -4.596   6.057  1.00  0.00    -0.290 N 
HETATM   10  N4  UNL     1      86.211  -3.683   5.553  1.00  0.00    -0.344 N 
ATOM     11  H42 UNL     1      85.244  -3.592   5.863  1.00  0.00     0.176 HD
ATOM     12  H41 UNL     1      86.594  -3.050   4.850  1.00  0.00     0.176 HD
ATOM     13  H3  UNL     1      87.894  -4.702   5.758  1.00  0.00     0.188 HD
ENDBRANCH   8   9
TORSDOF 1
ENDMDL
MODEL 3
REMARK VINA RESULT: -3.931441111      1.784      2.720
REMARK  1 active torsions:
REMARK  status: ('A' for Active; 'I' for Inactive)
REMARK    1  A    between atoms: C4_8  and  N3_9 
ROOT
HETATM    1  C1  UNL     1      87.153  -4.488   6.347  1.00  0.00     0.072 C 
HETATM    2  C2  UNL     1      86.442  -5.499   7.202  1.00  0.00     0.052 A 
HETATM    3  N1  UNL     1      85.771  -6.568   6.817  1.00  0.00    -0.353 N 
ATOM      4  H1  UNL     1      85.628  -6.880   5.857  1.00  0.00     0.166 HD
HETATM    5  C3  UNL     1      85.311  -7.167   7.927  1.00  0.00     0.182 A 
HETATM    6  N2  UNL     1      85.688  -6.485   9.004  1.00  0.00    -0.336 N 
ATOM      7  H2  UNL     1      85.477  -6.719   9.975  1.00  0.00     0.168 HD
HETATM    8  C4  UNL     1      86.397  -5.436   8.575  1.00  0.00     0.143 A 
ENDROOT
BRANCH   8   9
HETATM    9  N3  UNL     1      86.990  -4.448   9.375  1.00  0.00    -0.290 N 
HETATM   10  N4  UNL     1      86.496  -4.143  10.497  1.00  0.00    -0.344 N 
ATOM     11  H42 UNL     1      85.656  -4.631  10.810  1.00  0.00     0.176 HD
ATOM     12  H41 UNL     1      86.927  -3.424  11.079  1.00  0.00     0.176 HD
ATOM     13  H3  UNL     1      87.829  -3.970   9.047  1.00  0.00     0.188 HD
ENDBRANCH   8   9
TORSDOF 1
ENDMDL
MODEL 4
REMARK VINA RESULT: -3.877659542      1.770      3.174
REMARK  1 active torsions:
REMARK  status: ('A' for Active; 'I' for Inactive)
REMARK    1  A    between atoms: C4_8  and  N3_9 
ROOT
HETATM    1  C1  UNL     1      88.396  -6.021   5.964  1.00  0.00     0.072 C 
HETATM    2  C2  UNL     1      87.327  -5.709   6.973  1.00  0.00     0.052 A 
HETATM    3  N1  UNL     1      87.229  -6.134   8.219  1.00  0.00    -0.353 N 
ATOM      4  H1  UNL     1      87.879  -6.755   8.700  1.00  0.00     0.166 HD
HETATM    5  C3  UNL     1      86.112  -5.596   8.733  1.00  0.00     0.182 A 
HETATM    6  N2  UNL     1      85.509  -4.837   7.823  1.00  0.00    -0.336 N 
ATOM      7  H2  UNL     1      84.643  -4.311   7.949  1.00  0.00     0.168 HD
HETATM    8  C4  UNL     1      86.251  -4.893   6.713  1.00  0.00     0.143 A 
ENDROOT
BRANCH   8   9
HETATM    9  N3  UNL     1      85.986  -4.240   5.500  1.00  0.00    -0.290 N 
HETATM   10  N4  UNL     1      86.453  -3.088   5.271  1.00  0.00    -0.344 N 
ATOM     11  H42 UNL     1      87.028  -2.643   5.986  1.00  0.00     0.176 HD
ATOM     12  H41 UNL     1      86.260  -2.612   4.389  1.00  0.00     0.176 HD
ATOM     13  H3  UNL     1      85.409  -4.699   4.795  1.00  0.00     0.188 HD
ENDBRANCH   8   9
TORSDOF 1
ENDMDL
MODEL 5
REMARK VINA RESULT: -3.695477026      1.050      2.234
REMARK  1 active torsions:
REMARK  status: ('A' for Active; 'I' for Inactive)
REMARK    1  A    between atoms: C4_8  and  N3_9 
ROOT
HETATM    1  C1  UNL     1      86.085  -5.657   5.769  1.00  0.00     0.072 C 
HETATM    2  C2  UNL     1      86.591  -5.325   7.145  1.00  0.00     0.052 A 
HETATM    3  N1  UNL     1      87.705  -4.701   7.477  1.00  0.00    -0.353 N 
ATOM      4  H1  UNL     1      88.411  -4.339   6.837  1.00  0.00     0.166 HD
HETATM    5  C3  UNL     1      87.735  -4.632   8.818  1.00  0.00     0.182 A 
HETATM    6  N2  UNL     1      86.650  -5.206   9.329  1.00  0.00    -0.336 N 
ATOM      7  H2  UNL     1      86.418  -5.292  10.319  1.00  0.00     0.168 HD
HETATM    8  C4  UNL     1      85.920  -5.648   8.300  1.00  0.00     0.143 A 
ENDROOT
BRANCH   8   9
HETATM    9  N3  UNL     1      84.690  -6.319   8.379  1.00  0.00    -0.290 N 
HETATM   10  N4  UNL     1      84.641  -7.547   8.674  1.00  0.00    -0.344 N 
ATOM     11  H42 UNL     1      85.516  -8.041   8.854  1.00  0.00     0.176 HD
ATOM     12  H41 UNL     1      83.747  -8.035   8.731  1.00  0.00     0.176 HD
ATOM     13  H3  UNL     1      83.825  -5.809   8.197  1.00  0.00     0.188 HD
ENDBRANCH   8   9
TORSDOF 1
ENDMDL
