MODEL 1
REMARK VINA RESULT: -4.123862091      0.000      0.000
REMARK  2 active torsions:
REMARK  status: ('A' for Active; 'I' for Inactive)
REMARK    1  A    between atoms: C2_2  and  C3_3 
REMARK    2  A    between atoms: C5_6  and  N1_7 
ROOT
HETATM    1  C3  UNL     1      87.025  -5.217   7.056  1.00  0.00     0.034 A 
HETATM    2  C4  UNL     1      87.351  -5.109   8.391  1.00  0.00     0.170 A 
HETATM    3  O1  UNL     1      86.547  -5.900   9.099  1.00  0.00    -0.290 OA
HETATM    4  C5  UNL     1      85.725  -6.509   8.292  1.00  0.00     0.221 A 
HETATM    5  N2  UNL     1      85.994  -6.112   7.038  1.00  0.00    -0.324 N 
ATOM      6  H2  UNL     1      85.504  -6.429   6.202  1.00  0.00     0.169 HD
ENDROOT
BRANCH   4   7
HETATM    7  N1  UNL     1      84.814  -7.349   8.654  1.00  0.00    -0.365 N 
ATOM      8  H12 UNL     1      84.880  -8.027   9.413  1.00  0.00     0.159 HD
ATOM      9  H11 UNL     1      83.895  -7.442   8.220  1.00  0.00     0.159 HD
ENDBRANCH   4   7
BRANCH   1  10
HETATM   10  C2  UNL     1      87.622  -4.544   5.874  1.00  0.00     0.054 C 
HETATM   11  C1  UNL     1      86.761  -3.379   5.441  1.00  0.00     0.011 C 
ENDBRANCH   1  10
TORSDOF 2
ENDMDL
MODEL 2
REMARK VINA RESULT: -3.947519309      2.114      2.367
REMARK  2 active torsions:
REMARK  status: ('A' for Active; 'I' for Inactive)
REMARK    1  A    between atoms: C2_2  and  C3_3 
REMARK    2  A    between atoms: C5_6  and  N1_7 
ROOT
HETATM    1  C3  UNL     1      86.415  -5.527   7.784  1.00  0.00     0.034 A 
HETATM    2  C4  UNL     1      87.684  -5.041   8.016  1.00  0.00     0.170 A 
HETATM    3  O1  UNL     1      87.714  -4.459   9.213  1.00  0.00    -0.290 OA
HETATM    4  C5  UNL     1      86.535  -4.545   9.761  1.00  0.00     0.221 A 
HETATM    5  N2  UNL     1      85.722  -5.193   8.911  1.00  0.00    -0.324 N 
ATOM      6  H2  UNL     1      84.738  -5.402   9.080  1.00  0.00     0.169 HD
ENDROOT
BRANCH   4   7
HETATM    7  N1  UNL     1      86.220  -4.082  10.924  1.00  0.00    -0.365 N 
ATOM      8  H12 UNL     1      86.003  -3.112  11.153  1.00  0.00     0.159 HD
ATOM      9  H11 UNL     1      86.146  -4.636  11.778  1.00  0.00     0.159 HD
ENDBRANCH   4   7
BRANCH   1  10
HETATM   10  C2  UNL     1      85.876  -6.251   6.604  1.00  0.00     0.054 C 
HETATM   11  C1  UNL     1      86.113  -5.452   5.343  1.00  0.00     0.011 C 
ENDBRANCH   1  10
TORSDOF 2
ENDMDL
MODEL 3
REMARK VINA RESULT: -3.838403667      2.283      3.779
REMARK  2 active torsions:
REMARK  status: ('A' for Active; 'I' for Inactive)
REMARK    1  A    between atoms: C2_2  and  C3_3 
REMARK    2  A    between atoms: C5_6  and  N1_7 
ROOT
HETATM    1  C3  UNL     1      86.541  -5.778   6.587  1.00  0.00     0.034 A 
HETATM    2  C4  UNL     1      87.829  -5.781   6.095  1.00  0.00     0.170 A 
HETATM    3  O1  UNL     1      88.075  -4.608   5.516  1.00  0.00    -0.290 OA
HETATM    4  C5  UNL     1      87.017  -3.853   5.609  1.00  0.00     0.221 A 
HETATM    5  N2  UNL     1      86.064  -4.542   6.258  1.00  0.00    -0.324 N 
ATOM      6  H2  UNL     1      85.129  -4.195   6.473  1.00  0.00     0.169 HD
ENDROOT
BRANCH   4   7
HETATM    7  N1  UNL     1      86.919  -2.651   5.149  1.00  0.00    -0.365 N 
ATOM      8  H12 UNL     1      86.167  -1.989   5.337  1.00  0.00     0.159 HD
ATOM      9  H11 UNL     1      87.593  -2.203   4.528  1.00  0.00     0.159 HD
ENDBRANCH   4   7
BRANCH   1  10
HETATM   10  C2  UNL     1      85.797  -6.841   7.311  1.00  0.00     0.054 C 
HETATM   11  C1  UNL     1      85.760  -6.541   8.792  1.00  0.00     0.011 C 
ENDBRANCH   1  10
TORSDOF 2
ENDMDL
MODEL 4
REMARK VINA RESULT: -3.511527861      1.454      1.679
REMARK  2 active torsions:
REMARK  status: ('A' for Active; 'I' for Inactive)
REMARK    1  A    between atoms: C2_2  and  C3_3 
REMARK    2  A    between atoms: C5_6  and  N1_7 
ROOT
HETATM    1  C3  UNL     1      86.860  -4.969   6.389  1.00  0.00     0.034 A 
HETATM    2  C4  UNL     1      85.868  -5.585   5.657  1.00  0.00     0.170 A 
HETATM    3  O1  UNL     1      85.159  -6.373   6.464  1.00  0.00    -0.290 OA
HETATM    4  C5  UNL     1      85.642  -6.295   7.671  1.00  0.00     0.221 A 
HETATM    5  N2  UNL     1      86.681  -5.445   7.655  1.00  0.00    -0.324 N 
ATOM      6  H2  UNL     1      87.250  -5.194   8.464  1.00  0.00     0.169 HD
ENDROOT
BRANCH   4   7
HETATM    7  N1  UNL     1      85.187  -6.934   8.696  1.00  0.00    -0.365 N 
ATOM      8  H12 UNL     1      84.269  -7.370   8.782  1.00  0.00     0.159 HD
ATOM      9  H11 UNL     1      85.697  -7.088   9.567  1.00  0.00     0.159 HD
ENDBRANCH   4   7
BRANCH   1  10
HETATM   10  C2  UNL     1      87.903  -4.005   5.952  1.00  0.00     0.054 C 
HETATM   11  C1  UNL     1      87.269  -2.823   5.256  1.00  0.00     0.011 C 
ENDBRANCH   1  10
TORSDOF 2
ENDMDL
MODEL 5
REMARK VINA RESULT: -3.379858459      0.692      1.146
REMARK  2 active torsions:
REMARK  status: ('A' for Active; 'I' for Inactive)
REMARK    1  A    between atoms: C2_2  and  C3_3 
REMARK    2  A    between atoms: C5_6  and  N1_7 
ROOT
HETATM    1  C3  UNL     1      87.072  -5.355   7.162  1.00  0.00     0.034 A 
HETATM    2  C4  UNL     1      87.201  -5.061   8.503  1.00  0.00     0.170 A 
HETATM    3  O1  UNL     1      86.322  -5.786   9.192  1.00  0.00    -0.290 OA
HETATM    4  C5  UNL     1      85.637  -6.527   8.368  1.00  0.00     0.221 A 
HETATM    5  N2  UNL     1      86.073  -6.284   7.121  1.00  0.00    -0.324 N 
ATOM      6  H2  UNL     1      85.714  -6.726   6.275  1.00  0.00     0.169 HD
ENDROOT
BRANCH   4   7
HETATM    7  N1  UNL     1      84.701  -7.348   8.709  1.00  0.00    -0.365 N 
ATOM      8  H12 UNL     1      83.771  -7.415   8.296  1.00  0.00     0.159 HD
ATOM      9  H11 UNL     1      84.774  -8.047   9.449  1.00  0.00     0.159 HD
ENDBRANCH   4   7
BRANCH   1  10
HETATM   10  C2  UNL     1      87.817  -4.816   5.995  1.00  0.00     0.054 C 
HETATM   11  C1  UNL     1      88.759  -5.863   5.444  1.00  0.00     0.011 C 
ENDBRANCH   1  10
TORSDOF 2
ENDMDL
