MODEL 1
REMARK VINA RESULT: -5.176076029      0.000      0.000
REMARK  0 active torsions:
REMARK  status: ('A' for Active; 'I' for Inactive)
ROOT
HETATM    1  N1  UNL     1      87.716  -3.545   5.610  1.00  0.00    -0.102 NA
HETATM    2  C1  UNL     1      87.085  -4.558   6.365  1.00  0.00     0.046 A 
HETATM    3  C2  UNL     1      87.390  -4.817   7.682  1.00  0.00     0.028 A 
HETATM    4  C3  UNL     1      86.760  -5.811   8.397  1.00  0.00     0.028 A 
HETATM    5  C4  UNL     1      85.799  -6.559   7.755  1.00  0.00     0.046 A 
HETATM    6  N2  UNL     1      85.107  -7.603   8.431  1.00  0.00    -0.102 NA
HETATM    7  C5  UNL     1      85.471  -6.332   6.451  1.00  0.00     0.028 A 
HETATM    8  C6  UNL     1      86.111  -5.337   5.763  1.00  0.00     0.028 A 
ENDROOT
TORSDOF 0
ENDMDL
MODEL 2
REMARK VINA RESULT: -5.156675936      0.099      3.264
REMARK  0 active torsions:
REMARK  status: ('A' for Active; 'I' for Inactive)
ROOT
HETATM    1  N1  UNL     1      85.069  -7.545   8.566  1.00  0.00    -0.102 NA
HETATM    2  C1  UNL     1      85.776  -6.539   7.870  1.00  0.00     0.046 A 
HETATM    3  C2  UNL     1      86.740  -5.753   8.459  1.00  0.00     0.028 A 
HETATM    4  C3  UNL     1      87.416  -4.778   7.759  1.00  0.00     0.028 A 
HETATM    5  C4  UNL     1      87.102  -4.600   6.431  1.00  0.00     0.046 A 
HETATM    6  N2  UNL     1      87.759  -3.611   5.646  1.00  0.00    -0.102 NA
HETATM    7  C5  UNL     1      86.152  -5.360   5.814  1.00  0.00     0.028 A 
HETATM    8  C6  UNL     1      85.495  -6.323   6.532  1.00  0.00     0.028 A 
ENDROOT
TORSDOF 0
ENDMDL
MODEL 3
REMARK VINA RESULT: -5.080108370      0.133      1.687
REMARK  0 active torsions:
REMARK  status: ('A' for Active; 'I' for Inactive)
ROOT
HETATM    1  N1  UNL     1      87.767  -3.427   5.590  1.00  0.00    -0.102 NA
HETATM    2  C1  UNL     1      87.103  -4.473   6.267  1.00  0.00     0.046 A 
HETATM    3  C2  UNL     1      86.146  -5.265   5.674  1.00  0.00     0.028 A 
HETATM    4  C3  UNL     1      85.512  -6.280   6.355  1.00  0.00     0.028 A 
HETATM    5  C4  UNL     1      85.860  -6.492   7.670  1.00  0.00     0.046 A 
HETATM    6  N2  UNL     1      85.245  -7.522   8.435  1.00  0.00    -0.102 NA
HETATM    7  C5  UNL     1      86.803  -5.727   8.290  1.00  0.00     0.028 A 
HETATM    8  C6  UNL     1      87.419  -4.724   7.591  1.00  0.00     0.028 A 
ENDROOT
TORSDOF 0
ENDMDL
MODEL 4
REMARK VINA RESULT: -5.077677075      0.113      3.673
REMARK  0 active torsions:
REMARK  status: ('A' for Active; 'I' for Inactive)
ROOT
HETATM    1  N1  UNL     1      85.200  -7.513   8.477  1.00  0.00    -0.102 NA
HETATM    2  C1  UNL     1      85.825  -6.503   7.714  1.00  0.00     0.046 A 
HETATM    3  C2  UNL     1      85.527  -6.264   6.392  1.00  0.00     0.028 A 
HETATM    4  C3  UNL     1      86.151  -5.272   5.669  1.00  0.00     0.028 A 
HETATM    5  C4  UNL     1      87.101  -4.507   6.308  1.00  0.00     0.046 A 
HETATM    6  N2  UNL     1      87.787  -3.464   5.623  1.00  0.00    -0.102 NA
HETATM    7  C5  UNL     1      87.423  -4.715   7.616  1.00  0.00     0.028 A 
HETATM    8  C6  UNL     1      86.788  -5.708   8.313  1.00  0.00     0.028 A 
ENDROOT
TORSDOF 0
ENDMDL
MODEL 5
REMARK VINA RESULT: -4.525264269      1.078      1.220
REMARK  0 active torsions:
REMARK  status: ('A' for Active; 'I' for Inactive)
ROOT
HETATM    1  N1  UNL     1      87.500  -3.182   5.403  1.00  0.00    -0.102 NA
HETATM    2  C1  UNL     1      87.037  -4.350   6.047  1.00  0.00     0.046 A 
HETATM    3  C2  UNL     1      87.734  -5.537   6.044  1.00  0.00     0.028 A 
HETATM    4  C3  UNL     1      87.262  -6.664   6.680  1.00  0.00     0.028 A 
HETATM    5  C4  UNL     1      86.053  -6.580   7.331  1.00  0.00     0.046 A 
HETATM    6  N2  UNL     1      85.503  -7.705   8.008  1.00  0.00    -0.102 NA
HETATM    7  C5  UNL     1      85.334  -5.421   7.354  1.00  0.00     0.028 A 
HETATM    8  C6  UNL     1      85.825  -4.315   6.715  1.00  0.00     0.028 A 
ENDROOT
TORSDOF 0
ENDMDL
