MODEL 1
REMARK VINA RESULT: -7.695089470      0.000      0.000
REMARK  6 active torsions:
REMARK  status: ('A' for Active; 'I' for Inactive)
REMARK    1  A    between atoms: C2_2  and  C4_4 
REMARK       I    between atoms: C4_4  and  N1_6 
REMARK    2  A    between atoms: N1_6  and  N2_8 
REMARK       I    between atoms: N2_8  and  C5_10 
REMARK    3  A    between atoms: C5_10  and  C6_12 
REMARK       I    between atoms: C6_12  and  N3_14 
REMARK    4  A    between atoms: N3_14  and  N4_16 
REMARK       I    between atoms: N4_16  and  C7_18 
REMARK    5  A    between atoms: C7_18  and  C8_20 
REMARK    6  A    between atoms: C10_22  and  N5_23 
ROOT
HETATM    1  C6  UNL     1       6.240  17.808  23.102  1.00  0.00     0.329 C 
HETATM    2  O3  UNL     1       6.062  16.553  23.255  1.00  0.00    -0.261 OA
HETATM    3  N3  UNL     1       5.472  18.711  23.867  1.00  0.00    -0.259 N 
ATOM      4  H3  UNL     1       5.623  19.711  23.732  1.00  0.00     0.190 HD
ENDROOT
BRANCH   1   5
HETATM    5  C5  UNL     1       7.211  18.307  22.159  1.00  0.00     0.329 C 
HETATM    6  N2  UNL     1       6.887  19.378  21.288  1.00  0.00    -0.259 N 
ATOM      7  H2  UNL     1       5.952  19.782  21.343  1.00  0.00     0.190 HD
HETATM    8  O2  UNL     1       8.349  17.798  22.099  1.00  0.00    -0.261 OA
BRANCH   6   9
HETATM    9  N1  UNL     1       7.779  19.902  20.365  1.00  0.00    -0.267 N 
HETATM   10  C4  UNL     1       7.357  20.732  19.301  1.00  0.00     0.239 C 
HETATM   11  O1  UNL     1       6.154  21.022  19.158  1.00  0.00    -0.271 OA
ATOM     12  H1  UNL     1       8.771  19.681  20.456  1.00  0.00     0.190 HD
BRANCH  10  13
HETATM   13  C2  UNL     1       8.322  21.295  18.311  1.00  0.00     0.071 C 
HETATM   14  C1  UNL     1       7.886  21.085  16.892  1.00  0.00     0.019 C 
HETATM   15  C3  UNL     1       8.475  22.787  18.626  1.00  0.00     0.019 C 
ENDBRANCH  10  13
ENDBRANCH   6   9
ENDBRANCH   1   5
BRANCH   3  16
HETATM   16  N4  UNL     1       4.519  18.305  24.798  1.00  0.00    -0.267 N 
HETATM   17  C7  UNL     1       3.409  19.134  25.077  1.00  0.00     0.242 C 
HETATM   18  O4  UNL     1       3.337  20.243  24.439  1.00  0.00    -0.271 OA
ATOM     19  H4  UNL     1       4.622  17.412  25.278  1.00  0.00     0.190 HD
BRANCH  17  20
HETATM   20  C8  UNL     1       2.350  18.819  26.028  1.00  0.00     0.112 A 
HETATM   21  C9  UNL     1       2.821  17.920  27.173  1.00  0.00     0.050 A 
HETATM   22  C10 UNL     1       2.220  19.309  27.392  1.00  0.00     0.197 A 
BRANCH  22  23
HETATM   23  N5  UNL     1       3.077  20.232  28.055  1.00  0.00    -0.074 N 
ATOM     24  H53 UNL     1       3.221  19.860  28.994  1.00  0.00     0.274 HD
ATOM     25  H52 UNL     1       3.993  20.131  27.619  1.00  0.00     0.274 HD
ATOM     26  H51 UNL     1       2.927  21.235  28.169  1.00  0.00     0.274 HD
ENDBRANCH  22  23
ENDBRANCH  17  20
ENDBRANCH   3  16
TORSDOF 6
ENDMDL
MODEL 2
REMARK VINA RESULT: -7.423133950      1.294      7.844
REMARK  6 active torsions:
REMARK  status: ('A' for Active; 'I' for Inactive)
REMARK    1  A    between atoms: C2_2  and  C4_4 
REMARK       I    between atoms: C4_4  and  N1_6 
REMARK    2  A    between atoms: N1_6  and  N2_8 
REMARK       I    between atoms: N2_8  and  C5_10 
REMARK    3  A    between atoms: C5_10  and  C6_12 
REMARK       I    between atoms: C6_12  and  N3_14 
REMARK    4  A    between atoms: N3_14  and  N4_16 
REMARK       I    between atoms: N4_16  and  C7_18 
REMARK    5  A    between atoms: C7_18  and  C8_20 
REMARK    6  A    between atoms: C10_22  and  N5_23 
ROOT
HETATM    1  C6  UNL     1       7.497  18.912  22.258  1.00  0.00     0.329 C 
HETATM    2  O3  UNL     1       8.748  18.929  22.513  1.00  0.00    -0.261 OA
HETATM    3  N3  UNL     1       7.035  19.459  21.043  1.00  0.00    -0.259 N 
ATOM      4  H3  UNL     1       6.032  19.441  20.853  1.00  0.00     0.190 HD
ENDROOT
BRANCH   1   5
HETATM    5  C5  UNL     1       6.560  18.342  23.195  1.00  0.00     0.329 C 
HETATM    6  N2  UNL     1       5.649  19.170  23.898  1.00  0.00    -0.259 N 
ATOM      7  H2  UNL     1       5.677  20.176  23.728  1.00  0.00     0.190 HD
HETATM    8  O2  UNL     1       6.542  17.111  23.397  1.00  0.00    -0.261 OA
BRANCH   6   9
HETATM    9  N1  UNL     1       4.724  18.681  24.807  1.00  0.00    -0.267 N 
HETATM   10  C4  UNL     1       3.476  19.310  25.020  1.00  0.00     0.239 C 
HETATM   11  O1  UNL     1       3.166  20.339  24.391  1.00  0.00    -0.271 OA
ATOM     12  H1  UNL     1       4.951  17.839  25.338  1.00  0.00     0.190 HD
BRANCH  10  13
HETATM   13  C2  UNL     1       2.482  18.777  26.000  1.00  0.00     0.071 C 
HETATM   14  C1  UNL     1       2.503  17.282  26.092  1.00  0.00     0.019 C 
HETATM   15  C3  UNL     1       2.796  19.419  27.356  1.00  0.00     0.019 C 
ENDBRANCH  10  13
ENDBRANCH   6   9
ENDBRANCH   1   5
BRANCH   3  16
HETATM   16  N4  UNL     1       7.878  20.023  20.089  1.00  0.00    -0.267 N 
HETATM   17  C7  UNL     1       7.367  20.956  19.159  1.00  0.00     0.242 C 
HETATM   18  O4  UNL     1       6.121  21.241  19.247  1.00  0.00    -0.271 OA
ATOM     19  H4  UNL     1       8.864  19.764  20.061  1.00  0.00     0.190 HD
BRANCH  17  20
HETATM   20  C8  UNL     1       8.148  21.611  18.117  1.00  0.00     0.112 A 
HETATM   21  C9  UNL     1       7.826  21.095  16.713  1.00  0.00     0.050 A 
HETATM   22  C10 UNL     1       7.668  22.559  17.123  1.00  0.00     0.197 A 
BRANCH  22  23
HETATM   23  N5  UNL     1       6.346  23.074  17.000  1.00  0.00    -0.074 N 
ATOM     24  H53 UNL     1       5.775  22.304  16.652  1.00  0.00     0.274 HD
ATOM     25  H52 UNL     1       6.006  23.209  17.951  1.00  0.00     0.274 HD
ATOM     26  H51 UNL     1       6.056  23.899  16.476  1.00  0.00     0.274 HD
ENDBRANCH  22  23
ENDBRANCH  17  20
ENDBRANCH   3  16
TORSDOF 6
ENDMDL
MODEL 3
REMARK VINA RESULT: -7.340214302      2.531      7.797
REMARK  6 active torsions:
REMARK  status: ('A' for Active; 'I' for Inactive)
REMARK    1  A    between atoms: C2_2  and  C4_4 
REMARK       I    between atoms: C4_4  and  N1_6 
REMARK    2  A    between atoms: N1_6  and  N2_8 
REMARK       I    between atoms: N2_8  and  C5_10 
REMARK    3  A    between atoms: C5_10  and  C6_12 
REMARK       I    between atoms: C6_12  and  N3_14 
REMARK    4  A    between atoms: N3_14  and  N4_16 
REMARK       I    between atoms: N4_16  and  C7_18 
REMARK    5  A    between atoms: C7_18  and  C8_20 
REMARK    6  A    between atoms: C10_22  and  N5_23 
ROOT
HETATM    1  C6  UNL     1       5.328  18.219  22.333  1.00  0.00     0.329 C 
HETATM    2  O3  UNL     1       6.498  18.037  21.855  1.00  0.00    -0.261 OA
HETATM    3  N3  UNL     1       4.373  18.920  21.566  1.00  0.00    -0.259 N 
ATOM      4  H3  UNL     1       3.443  19.060  21.961  1.00  0.00     0.190 HD
ENDROOT
BRANCH   1   5
HETATM    5  C5  UNL     1       4.977  17.718  23.639  1.00  0.00     0.329 C 
HETATM    6  N2  UNL     1       4.271  18.534  24.559  1.00  0.00    -0.259 N 
ATOM      7  H2  UNL     1       4.023  19.481  24.275  1.00  0.00     0.190 HD
HETATM    8  O2  UNL     1       5.292  16.558  23.973  1.00  0.00    -0.261 OA
BRANCH   6   9
HETATM    9  N1  UNL     1       3.903  18.107  25.825  1.00  0.00    -0.267 N 
HETATM   10  C4  UNL     1       2.625  17.563  26.092  1.00  0.00     0.239 C 
HETATM   11  O1  UNL     1       1.779  17.452  25.186  1.00  0.00    -0.271 OA
ATOM     12  H1  UNL     1       4.575  18.187  26.588  1.00  0.00     0.190 HD
BRANCH  10  13
HETATM   13  C2  UNL     1       2.234  17.104  27.458  1.00  0.00     0.071 C 
HETATM   14  C1  UNL     1       1.617  18.193  28.282  1.00  0.00     0.019 C 
HETATM   15  C3  UNL     1       1.265  15.929  27.279  1.00  0.00     0.019 C 
ENDBRANCH  10  13
ENDBRANCH   6   9
ENDBRANCH   1   5
BRANCH   3  16
HETATM   16  N4  UNL     1       4.637  19.430  20.297  1.00  0.00    -0.267 N 
HETATM   17  C7  UNL     1       4.573  20.824  20.071  1.00  0.00     0.242 C 
HETATM   18  O4  UNL     1       4.269  21.562  21.073  1.00  0.00    -0.271 OA
ATOM     19  H4  UNL     1       4.875  18.799  19.533  1.00  0.00     0.190 HD
BRANCH  17  20
HETATM   20  C8  UNL     1       4.826  21.474  18.791  1.00  0.00     0.112 A 
HETATM   21  C9  UNL     1       3.603  22.208  18.240  1.00  0.00     0.050 A 
HETATM   22  C10 UNL     1       4.932  22.903  18.537  1.00  0.00     0.197 A 
BRANCH  22  23
HETATM   23  N5  UNL     1       4.857  23.951  19.498  1.00  0.00    -0.074 N 
ATOM     24  H53 UNL     1       3.864  24.088  19.688  1.00  0.00     0.274 HD
ATOM     25  H52 UNL     1       5.212  23.560  20.370  1.00  0.00     0.274 HD
ATOM     26  H51 UNL     1       5.261  24.884  19.420  1.00  0.00     0.274 HD
ENDBRANCH  22  23
ENDBRANCH  17  20
ENDBRANCH   3  16
TORSDOF 6
ENDMDL
MODEL 4
REMARK VINA RESULT: -7.270079294      1.987      8.332
REMARK  6 active torsions:
REMARK  status: ('A' for Active; 'I' for Inactive)
REMARK    1  A    between atoms: C2_2  and  C4_4 
REMARK       I    between atoms: C4_4  and  N1_6 
REMARK    2  A    between atoms: N1_6  and  N2_8 
REMARK       I    between atoms: N2_8  and  C5_10 
REMARK    3  A    between atoms: C5_10  and  C6_12 
REMARK       I    between atoms: C6_12  and  N3_14 
REMARK    4  A    between atoms: N3_14  and  N4_16 
REMARK       I    between atoms: N4_16  and  C7_18 
REMARK    5  A    between atoms: C7_18  and  C8_20 
REMARK    6  A    between atoms: C10_22  and  N5_23 
ROOT
HETATM    1  C6  UNL     1       4.436  20.294  21.642  1.00  0.00     0.329 C 
HETATM    2  O3  UNL     1       3.899  21.451  21.589  1.00  0.00    -0.261 OA
HETATM    3  N3  UNL     1       5.335  19.905  20.626  1.00  0.00    -0.259 N 
ATOM      4  H3  UNL     1       5.754  18.977  20.680  1.00  0.00     0.190 HD
ENDROOT
BRANCH   1   5
HETATM    5  C5  UNL     1       4.132  19.387  22.722  1.00  0.00     0.329 C 
HETATM    6  N2  UNL     1       4.539  19.683  24.048  1.00  0.00    -0.259 N 
ATOM      7  H2  UNL     1       5.052  20.548  24.216  1.00  0.00     0.190 HD
HETATM    8  O2  UNL     1       3.508  18.330  22.500  1.00  0.00    -0.261 OA
BRANCH   6   9
HETATM    9  N1  UNL     1       4.273  18.854  25.126  1.00  0.00    -0.267 N 
HETATM   10  C4  UNL     1       3.105  18.994  25.911  1.00  0.00     0.239 C 
HETATM   11  O1  UNL     1       2.269  19.881  25.655  1.00  0.00    -0.271 OA
ATOM     12  H1  UNL     1       4.941  18.119  25.361  1.00  0.00     0.190 HD
BRANCH  10  13
HETATM   13  C2  UNL     1       2.823  18.097  27.071  1.00  0.00     0.071 C 
HETATM   14  C1  UNL     1       1.895  18.717  28.071  1.00  0.00     0.019 C 
HETATM   15  C3  UNL     1       2.238  16.798  26.505  1.00  0.00     0.019 C 
ENDBRANCH  10  13
ENDBRANCH   6   9
ENDBRANCH   1   5
BRANCH   3  16
HETATM   16  N4  UNL     1       5.679  20.726  19.555  1.00  0.00    -0.267 N 
HETATM   17  C7  UNL     1       7.033  20.855  19.172  1.00  0.00     0.242 C 
HETATM   18  O4  UNL     1       7.894  20.191  19.850  1.00  0.00    -0.271 OA
ATOM     19  H4  UNL     1       4.955  21.232  19.047  1.00  0.00     0.190 HD
BRANCH  17  20
HETATM   20  C8  UNL     1       7.514  21.682  18.073  1.00  0.00     0.112 A 
HETATM   21  C9  UNL     1       7.884  23.101  18.508  1.00  0.00     0.050 A 
HETATM   22  C10 UNL     1       8.877  22.142  17.850  1.00  0.00     0.197 A 
BRANCH  22  23
HETATM   23  N5  UNL     1      10.023  21.837  18.638  1.00  0.00    -0.074 N 
ATOM     24  H53 UNL     1       9.731  21.936  19.610  1.00  0.00     0.274 HD
ATOM     25  H52 UNL     1      10.174  20.834  18.539  1.00  0.00     0.274 HD
ATOM     26  H51 UNL     1      10.944  22.270  18.573  1.00  0.00     0.274 HD
ENDBRANCH  22  23
ENDBRANCH  17  20
ENDBRANCH   3  16
TORSDOF 6
ENDMDL
MODEL 5
REMARK VINA RESULT: -7.205538832      3.142      3.667
REMARK  6 active torsions:
REMARK  status: ('A' for Active; 'I' for Inactive)
REMARK    1  A    between atoms: C2_2  and  C4_4 
REMARK       I    between atoms: C4_4  and  N1_6 
REMARK    2  A    between atoms: N1_6  and  N2_8 
REMARK       I    between atoms: N2_8  and  C5_10 
REMARK    3  A    between atoms: C5_10  and  C6_12 
REMARK       I    between atoms: C6_12  and  N3_14 
REMARK    4  A    between atoms: N3_14  and  N4_16 
REMARK       I    between atoms: N4_16  and  C7_18 
REMARK    5  A    between atoms: C7_18  and  C8_20 
REMARK    6  A    between atoms: C10_22  and  N5_23 
ROOT
HETATM    1  C6  UNL     1       4.154  20.324  22.376  1.00  0.00     0.329 C 
HETATM    2  O3  UNL     1       3.788  21.492  22.739  1.00  0.00    -0.261 OA
HETATM    3  N3  UNL     1       4.448  19.357  23.361  1.00  0.00    -0.259 N 
ATOM      4  H3  UNL     1       4.742  18.429  23.057  1.00  0.00     0.190 HD
ENDROOT
BRANCH   1   5
HETATM    5  C5  UNL     1       4.271  19.987  20.979  1.00  0.00     0.329 C 
HETATM    6  N2  UNL     1       3.995  20.954  19.978  1.00  0.00    -0.259 N 
ATOM      7  H2  UNL     1       3.710  21.888  20.272  1.00  0.00     0.190 HD
HETATM    8  O2  UNL     1       4.616  18.839  20.635  1.00  0.00    -0.261 OA
BRANCH   6   9
HETATM    9  N1  UNL     1       4.094  20.690  18.621  1.00  0.00    -0.267 N 
HETATM   10  C4  UNL     1       3.338  21.403  17.661  1.00  0.00     0.239 C 
HETATM   11  O1  UNL     1       2.549  22.300  18.010  1.00  0.00    -0.271 OA
ATOM     12  H1  UNL     1       4.732  19.959  18.304  1.00  0.00     0.190 HD
BRANCH  10  13
HETATM   13  C2  UNL     1       3.449  21.115  16.199  1.00  0.00     0.071 C 
HETATM   14  C1  UNL     1       4.816  20.647  15.803  1.00  0.00     0.019 C 
HETATM   15  C3  UNL     1       2.386  20.063  15.864  1.00  0.00     0.019 C 
ENDBRANCH  10  13
ENDBRANCH   6   9
ENDBRANCH   1   5
BRANCH   3  16
HETATM   16  N4  UNL     1       4.355  19.607  24.728  1.00  0.00    -0.267 N 
HETATM   17  C7  UNL     1       3.434  18.882  25.517  1.00  0.00     0.242 C 
HETATM   18  O4  UNL     1       2.715  18.009  24.915  1.00  0.00    -0.271 OA
ATOM     19  H4  UNL     1       4.951  20.313  25.160  1.00  0.00     0.190 HD
BRANCH  17  20
HETATM   20  C8  UNL     1       3.246  19.054  26.952  1.00  0.00     0.112 A 
HETATM   21  C9  UNL     1       1.867  19.611  27.312  1.00  0.00     0.050 A 
HETATM   22  C10 UNL     1       2.388  18.269  27.826  1.00  0.00     0.197 A 
BRANCH  22  23
HETATM   23  N5  UNL     1       1.597  17.142  27.463  1.00  0.00    -0.074 N 
ATOM     24  H53 UNL     1       2.131  16.638  26.756  1.00  0.00     0.274 HD
ATOM     25  H52 UNL     1       1.617  16.513  28.265  1.00  0.00     0.274 HD
ATOM     26  H51 UNL     1       0.632  17.152  27.135  1.00  0.00     0.274 HD
ENDBRANCH  22  23
ENDBRANCH  17  20
ENDBRANCH   3  16
TORSDOF 6
ENDMDL
