MODEL 1
REMARK VINA RESULT: -5.815147634      0.000      0.000
REMARK  4 active torsions:
REMARK  status: ('A' for Active; 'I' for Inactive)
REMARK    1  A    between atoms: N1_1  and  C1_5 
REMARK    2  A    between atoms: C1_5  and  C2_6 
REMARK    3  A    between atoms: C2_6  and  N2_7 
REMARK       I    between atoms: N2_7  and  C3_9 
REMARK       I    between atoms: C3_9  and  N5_15 
REMARK    4  A    between atoms: N3_10  and  N4_12 
ROOT
HETATM    1  N2  UNL     1       7.451  20.559  19.456  1.00  0.00    -0.223 N 
ATOM      2  H2  UNL     1       7.939  19.876  20.035  1.00  0.00     0.177 HD
HETATM    3  C3  UNL     1       6.127  21.063  19.840  1.00  0.00     0.690 C 
HETATM    4  N3  UNL     1       5.931  22.259  19.548  1.00  0.00    -0.139 N 
ATOM      5  H3  UNL     1       6.773  22.616  19.094  1.00  0.00     0.205 HD
HETATM    6  N5  UNL     1       5.262  20.144  20.483  1.00  0.00    -0.214 N 
HETATM    7  C4  UNL     1       5.836  18.951  21.072  1.00  0.00     0.160 C 
HETATM    8  C5  UNL     1       6.605  19.166  22.319  1.00  0.00     0.134 C 
HETATM    9  N6  UNL     1       5.926  18.921  23.546  1.00  0.00    -0.418 N 
ATOM     10  H6  UNL     1       6.000  19.562  24.335  1.00  0.00     0.153 HD
HETATM   11  C6  UNL     1       5.138  17.738  23.617  1.00  0.00     0.141 C 
HETATM   12  C7  UNL     1       4.570  17.646  25.044  1.00  0.00     0.251 C 
HETATM   13  N7  UNL     1       3.969  18.891  25.433  1.00  0.00    -0.072 N 
ATOM     14  H71 UNL     1       4.626  19.660  25.306  1.00  0.00     0.277 HD
ATOM     15  H72 UNL     1       3.851  18.930  26.445  1.00  0.00     0.277 HD
HETATM   16  C8  UNL     1       2.726  19.174  24.768  1.00  0.00     0.259 C 
HETATM   17  C9  UNL     1       2.771  20.483  24.006  1.00  0.00     0.259 C 
HETATM   18  N8  UNL     1       2.536  20.284  22.606  1.00  0.00    -0.072 N 
ATOM     19  H81 UNL     1       1.568  20.476  22.347  1.00  0.00     0.277 HD
ATOM     20  H82 UNL     1       2.564  19.298  22.346  1.00  0.00     0.277 HD
HETATM   21  C10 UNL     1       3.462  21.066  21.850  1.00  0.00     0.252 C 
HETATM   22  C11 UNL     1       3.847  20.393  20.541  1.00  0.00     0.168 C 
ENDROOT
BRANCH   1  23
HETATM   23  C2  UNL     1       8.040  21.055  18.245  1.00  0.00     0.165 C 
BRANCH  23  24
HETATM   24  C1  UNL     1       9.412  21.627  18.456  1.00  0.00     0.249 C 
BRANCH  24  25
HETATM   25  N1  UNL     1       9.319  23.048  18.621  1.00  0.00    -0.078 N 
ATOM     26  H13 UNL     1       8.618  23.311  19.313  1.00  0.00     0.274 HD
ATOM     27  H12 UNL     1      10.138  23.436  19.089  1.00  0.00     0.274 HD
ATOM     28  H11 UNL     1       9.149  23.486  17.715  1.00  0.00     0.274 HD
ENDBRANCH  24  25
ENDBRANCH  23  24
ENDBRANCH   1  23
BRANCH   4  29
HETATM   29  N4  UNL     1       5.048  23.237  19.604  1.00  0.00    -0.331 N 
ATOM     30  H42 UNL     1       5.256  23.765  20.451  1.00  0.00     0.177 HD
ATOM     31  H41 UNL     1       4.250  23.653  19.124  1.00  0.00     0.177 HD
ENDBRANCH   4  29
TORSDOF 4
ENDMDL
MODEL 2
REMARK VINA RESULT: -5.602363007      5.123      8.414
REMARK  4 active torsions:
REMARK  status: ('A' for Active; 'I' for Inactive)
REMARK    1  A    between atoms: N1_1  and  C1_5 
REMARK    2  A    between atoms: C1_5  and  C2_6 
REMARK    3  A    between atoms: C2_6  and  N2_7 
REMARK       I    between atoms: N2_7  and  C3_9 
REMARK       I    between atoms: C3_9  and  N5_15 
REMARK    4  A    between atoms: N3_10  and  N4_12 
ROOT
HETATM    1  N2  UNL     1       5.176  21.378  15.816  1.00  0.00    -0.223 N 
ATOM      2  H2  UNL     1       5.240  22.051  15.052  1.00  0.00     0.177 HD
HETATM    3  C3  UNL     1       6.099  21.441  16.955  1.00  0.00     0.690 C 
HETATM    4  N3  UNL     1       5.588  21.119  18.045  1.00  0.00    -0.139 N 
ATOM      5  H3  UNL     1       4.610  20.881  17.879  1.00  0.00     0.205 HD
HETATM    6  N5  UNL     1       7.424  21.853  16.673  1.00  0.00    -0.214 N 
HETATM    7  C4  UNL     1       7.681  22.553  15.430  1.00  0.00     0.160 C 
HETATM    8  C5  UNL     1       7.188  23.948  15.375  1.00  0.00     0.134 C 
HETATM    9  N6  UNL     1       8.134  24.977  15.646  1.00  0.00    -0.418 N 
ATOM     10  H6  UNL     1       7.906  25.766  16.250  1.00  0.00     0.153 HD
HETATM   11  C6  UNL     1       9.412  24.851  15.033  1.00  0.00     0.141 C 
HETATM   12  C7  UNL     1      10.228  26.102  15.403  1.00  0.00     0.251 C 
HETATM   13  N7  UNL     1      10.170  26.346  16.816  1.00  0.00    -0.072 N 
ATOM     14  H71 UNL     1       9.201  26.385  17.134  1.00  0.00     0.277 HD
ATOM     15  H72 UNL     1      10.458  27.302  17.027  1.00  0.00     0.277 HD
HETATM   16  C8  UNL     1      10.922  25.408  17.605  1.00  0.00     0.259 C 
HETATM   17  C9  UNL     1      10.055  24.688  18.617  1.00  0.00     0.259 C 
HETATM   18  N8  UNL     1      10.063  23.271  18.402  1.00  0.00    -0.072 N 
ATOM     19  H81 UNL     1      10.717  22.791  19.021  1.00  0.00     0.277 HD
ATOM     20  H82 UNL     1      10.492  23.018  17.512  1.00  0.00     0.277 HD
HETATM   21  C10 UNL     1       8.734  22.762  18.523  1.00  0.00     0.252 C 
HETATM   22  C11 UNL     1       8.487  21.577  17.602  1.00  0.00     0.168 C 
ENDROOT
BRANCH   1  23
HETATM   23  C2  UNL     1       4.180  20.344  15.807  1.00  0.00     0.165 C 
BRANCH  23  24
HETATM   24  C1  UNL     1       2.779  20.885  15.831  1.00  0.00     0.249 C 
BRANCH  24  25
HETATM   25  N1  UNL     1       1.922  19.965  16.520  1.00  0.00    -0.078 N 
ATOM     26  H13 UNL     1       1.714  20.270  17.472  1.00  0.00     0.274 HD
ATOM     27  H12 UNL     1       0.971  19.976  16.153  1.00  0.00     0.274 HD
ATOM     28  H11 UNL     1       2.334  19.032  16.497  1.00  0.00     0.274 HD
ENDBRANCH  24  25
ENDBRANCH  23  24
ENDBRANCH   1  23
BRANCH   4  29
HETATM   29  N4  UNL     1       5.833  20.971  19.333  1.00  0.00    -0.331 N 
ATOM     30  H42 UNL     1       6.845  21.045  19.444  1.00  0.00     0.177 HD
ATOM     31  H41 UNL     1       5.396  20.813  20.241  1.00  0.00     0.177 HD
ENDBRANCH   4  29
TORSDOF 4
ENDMDL
MODEL 3
REMARK VINA RESULT: -5.369390597      3.126      6.891
REMARK  4 active torsions:
REMARK  status: ('A' for Active; 'I' for Inactive)
REMARK    1  A    between atoms: N1_1  and  C1_5 
REMARK    2  A    between atoms: C1_5  and  C2_6 
REMARK    3  A    between atoms: C2_6  and  N2_7 
REMARK       I    between atoms: N2_7  and  C3_9 
REMARK       I    between atoms: C3_9  and  N5_15 
REMARK    4  A    between atoms: N3_10  and  N4_12 
ROOT
HETATM    1  N2  UNL     1       7.094  20.278  20.198  1.00  0.00    -0.223 N 
ATOM      2  H2  UNL     1       6.149  20.456  20.536  1.00  0.00     0.177 HD
HETATM    3  C3  UNL     1       7.596  20.929  18.982  1.00  0.00     0.690 C 
HETATM    4  N3  UNL     1       8.808  21.219  19.020  1.00  0.00    -0.139 N 
ATOM      5  H3  UNL     1       9.176  20.922  19.924  1.00  0.00     0.205 HD
HETATM    6  N5  UNL     1       6.655  21.143  17.945  1.00  0.00    -0.214 N 
HETATM    7  C4  UNL     1       5.244  21.097  18.271  1.00  0.00     0.160 C 
HETATM    8  C5  UNL     1       4.731  22.256  19.036  1.00  0.00     0.134 C 
HETATM    9  N6  UNL     1       4.082  23.283  18.292  1.00  0.00    -0.418 N 
ATOM     10  H6  UNL     1       4.271  24.269  18.465  1.00  0.00     0.153 HD
HETATM   11  C6  UNL     1       3.155  22.864  17.296  1.00  0.00     0.141 C 
HETATM   12  C7  UNL     1       2.530  24.130  16.685  1.00  0.00     0.251 C 
HETATM   13  N7  UNL     1       3.548  25.073  16.318  1.00  0.00    -0.072 N 
ATOM     14  H71 UNL     1       4.161  25.265  17.110  1.00  0.00     0.277 HD
ATOM     15  H72 UNL     1       3.145  26.001  16.184  1.00  0.00     0.277 HD
HETATM   16  C8  UNL     1       4.317  24.686  15.166  1.00  0.00     0.259 C 
HETATM   17  C9  UNL     1       5.797  24.592  15.474  1.00  0.00     0.259 C 
HETATM   18  N8  UNL     1       6.300  23.269  15.241  1.00  0.00    -0.072 N 
ATOM     19  H81 UNL     1       6.757  23.186  14.332  1.00  0.00     0.277 HD
ATOM     20  H82 UNL     1       5.551  22.594  15.091  1.00  0.00     0.277 HD
HETATM   21  C10 UNL     1       7.161  22.889  16.315  1.00  0.00     0.252 C 
HETATM   22  C11 UNL     1       7.098  21.397  16.601  1.00  0.00     0.168 C 
ENDROOT
BRANCH   1  23
HETATM   23  C2  UNL     1       7.972  19.384  20.899  1.00  0.00     0.165 C 
BRANCH  23  24
HETATM   24  C1  UNL     1       7.433  18.970  22.238  1.00  0.00     0.249 C 
BRANCH  24  25
HETATM   25  N1  UNL     1       7.006  17.603  22.181  1.00  0.00    -0.078 N 
ATOM     26  H13 UNL     1       6.002  17.519  22.016  1.00  0.00     0.274 HD
ATOM     27  H12 UNL     1       7.331  17.132  21.337  1.00  0.00     0.274 HD
ATOM     28  H11 UNL     1       7.298  17.118  23.030  1.00  0.00     0.274 HD
ENDBRANCH  24  25
ENDBRANCH  23  24
ENDBRANCH   1  23
BRANCH   4  29
HETATM   29  N4  UNL     1       9.794  21.763  18.334  1.00  0.00    -0.331 N 
ATOM     30  H42 UNL     1       9.848  21.251  17.453  1.00  0.00     0.177 HD
ATOM     31  H41 UNL     1      10.508  22.491  18.356  1.00  0.00     0.177 HD
ENDBRANCH   4  29
TORSDOF 4
ENDMDL
MODEL 4
REMARK VINA RESULT: -5.362276578      4.655      7.934
REMARK  4 active torsions:
REMARK  status: ('A' for Active; 'I' for Inactive)
REMARK    1  A    between atoms: N1_1  and  C1_5 
REMARK    2  A    between atoms: C1_5  and  C2_6 
REMARK    3  A    between atoms: C2_6  and  N2_7 
REMARK       I    between atoms: N2_7  and  C3_9 
REMARK       I    between atoms: C3_9  and  N5_15 
REMARK    4  A    between atoms: N3_10  and  N4_12 
ROOT
HETATM    1  N2  UNL     1       3.462  21.658  16.611  1.00  0.00    -0.223 N 
ATOM      2  H2  UNL     1       3.426  22.495  16.031  1.00  0.00     0.177 HD
HETATM    3  C3  UNL     1       4.651  21.345  17.412  1.00  0.00     0.690 C 
HETATM    4  N3  UNL     1       4.402  20.801  18.505  1.00  0.00    -0.139 N 
ATOM      5  H3  UNL     1       3.391  20.700  18.586  1.00  0.00     0.205 HD
HETATM    6  N5  UNL     1       5.903  21.699  16.850  1.00  0.00    -0.214 N 
HETATM    7  C4  UNL     1       5.928  22.668  15.774  1.00  0.00     0.160 C 
HETATM    8  C5  UNL     1       5.663  24.069  16.175  1.00  0.00     0.134 C 
HETATM    9  N6  UNL     1       6.796  24.908  16.376  1.00  0.00    -0.418 N 
ATOM     10  H6  UNL     1       6.862  25.532  17.179  1.00  0.00     0.153 HD
HETATM   11  C6  UNL     1       7.830  24.832  15.402  1.00  0.00     0.141 C 
HETATM   12  C7  UNL     1       8.901  25.869  15.782  1.00  0.00     0.251 C 
HETATM   13  N7  UNL     1       9.257  25.748  17.167  1.00  0.00    -0.072 N 
ATOM     14  H71 UNL     1       8.425  25.788  17.756  1.00  0.00     0.277 HD
ATOM     15  H72 UNL     1       9.736  26.589  17.489  1.00  0.00     0.277 HD
HETATM   16  C8  UNL     1      10.034  24.577  17.471  1.00  0.00     0.259 C 
HETATM   17  C9  UNL     1       9.364  23.701  18.509  1.00  0.00     0.259 C 
HETATM   18  N8  UNL     1       9.092  22.390  17.994  1.00  0.00    -0.072 N 
ATOM     19  H81 UNL     1       9.803  21.713  18.271  1.00  0.00     0.277 HD
ATOM     20  H82 UNL     1       9.226  22.337  16.984  1.00  0.00     0.277 HD
HETATM   21  C10 UNL     1       7.780  21.985  18.385  1.00  0.00     0.252 C 
HETATM   22  C11 UNL     1       7.116  21.102  17.340  1.00  0.00     0.168 C 
ENDROOT
BRANCH   1  23
HETATM   23  C2  UNL     1       2.349  20.752  16.668  1.00  0.00     0.165 C 
BRANCH  23  24
HETATM   24  C1  UNL     1       2.288  19.831  15.484  1.00  0.00     0.249 C 
BRANCH  24  25
HETATM   25  N1  UNL     1       3.504  19.074  15.401  1.00  0.00    -0.078 N 
ATOM     26  H13 UNL     1       4.069  19.160  16.246  1.00  0.00     0.274 HD
ATOM     27  H12 UNL     1       3.336  18.069  15.440  1.00  0.00     0.274 HD
ATOM     28  H11 UNL     1       4.019  19.347  14.564  1.00  0.00     0.274 HD
ENDBRANCH  24  25
ENDBRANCH  23  24
ENDBRANCH   1  23
BRANCH   4  29
HETATM   29  N4  UNL     1       4.953  20.308  19.598  1.00  0.00    -0.331 N 
ATOM     30  H42 UNL     1       5.040  21.084  20.253  1.00  0.00     0.177 HD
ATOM     31  H41 UNL     1       5.317  19.454  20.022  1.00  0.00     0.177 HD
ENDBRANCH   4  29
TORSDOF 4
ENDMDL
MODEL 5
REMARK VINA RESULT: -5.354283825      6.042      6.772
REMARK  4 active torsions:
REMARK  status: ('A' for Active; 'I' for Inactive)
REMARK    1  A    between atoms: N1_1  and  C1_5 
REMARK    2  A    between atoms: C1_5  and  C2_6 
REMARK    3  A    between atoms: C2_6  and  N2_7 
REMARK       I    between atoms: N2_7  and  C3_9 
REMARK       I    between atoms: C3_9  and  N5_15 
REMARK    4  A    between atoms: N3_10  and  N4_12 
ROOT
HETATM    1  N2  UNL     1       9.030  24.077  16.639  1.00  0.00    -0.223 N 
ATOM      2  H2  UNL     1       9.154  23.066  16.685  1.00  0.00     0.177 HD
HETATM    3  C3  UNL     1       7.695  24.666  16.477  1.00  0.00     0.690 C 
HETATM    4  N3  UNL     1       7.536  25.743  17.083  1.00  0.00    -0.139 N 
ATOM      5  H3  UNL     1       8.406  25.967  17.566  1.00  0.00     0.205 HD
HETATM    6  N5  UNL     1       6.779  23.945  15.673  1.00  0.00    -0.214 N 
HETATM    7  C4  UNL     1       7.043  22.545  15.409  1.00  0.00     0.160 C 
HETATM    8  C5  UNL     1       6.825  21.631  16.554  1.00  0.00     0.134 C 
HETATM    9  N6  UNL     1       5.581  20.940  16.599  1.00  0.00    -0.418 N 
ATOM     10  H6  UNL     1       5.046  20.860  17.464  1.00  0.00     0.153 HD
HETATM   11  C6  UNL     1       5.121  20.367  15.381  1.00  0.00     0.141 C 
HETATM   12  C7  UNL     1       3.814  19.617  15.687  1.00  0.00     0.251 C 
HETATM   13  N7  UNL     1       2.913  20.449  16.434  1.00  0.00    -0.072 N 
ATOM     14  H71 UNL     1       3.373  20.819  17.265  1.00  0.00     0.277 HD
ATOM     15  H72 UNL     1       2.187  19.884  16.876  1.00  0.00     0.277 HD
HETATM   16  C8  UNL     1       2.326  21.513  15.666  1.00  0.00     0.259 C 
HETATM   17  C9  UNL     1       2.625  22.876  16.257  1.00  0.00     0.259 C 
HETATM   18  N8  UNL     1       3.346  23.702  15.333  1.00  0.00    -0.072 N 
ATOM     19  H81 UNL     1       2.733  24.350  14.837  1.00  0.00     0.277 HD
ATOM     20  H82 UNL     1       3.686  23.176  14.528  1.00  0.00     0.277 HD
HETATM   21  C10 UNL     1       4.401  24.378  16.019  1.00  0.00     0.252 C 
HETATM   22  C11 UNL     1       5.617  24.595  15.131  1.00  0.00     0.168 C 
ENDROOT
BRANCH   1  23
HETATM   23  C2  UNL     1      10.155  24.964  16.730  1.00  0.00     0.165 C 
BRANCH  23  24
HETATM   24  C1  UNL     1      11.025  24.679  17.920  1.00  0.00     0.249 C 
BRANCH  24  25
HETATM   25  N1  UNL     1      10.753  23.358  18.408  1.00  0.00    -0.078 N 
ATOM     26  H13 UNL     1      11.121  22.635  17.789  1.00  0.00     0.274 HD
ATOM     27  H12 UNL     1      11.302  23.133  19.237  1.00  0.00     0.274 HD
ATOM     28  H11 UNL     1       9.751  23.254  18.569  1.00  0.00     0.274 HD
ENDBRANCH  24  25
ENDBRANCH  23  24
ENDBRANCH   1  23
BRANCH   4  29
HETATM   29  N4  UNL     1       6.667  26.704  17.335  1.00  0.00    -0.331 N 
ATOM     30  H42 UNL     1       6.050  26.754  16.524  1.00  0.00     0.177 HD
ATOM     31  H41 UNL     1       6.389  27.401  18.025  1.00  0.00     0.177 HD
ENDBRANCH   4  29
TORSDOF 4
ENDMDL
