MODEL 1
REMARK VINA RESULT: -6.232990410      0.000      0.000
REMARK  12 active torsions:
REMARK  status: ('A' for Active; 'I' for Inactive)
REMARK    1  A    between atoms: O1_2  and  C2_3 
REMARK    2  A    between atoms: C2_3  and  C3_5 
REMARK    3  A    between atoms: C3_5  and  C4_6 
REMARK    4  A    between atoms: C4_6  and  C5_7 
REMARK    5  A    between atoms: C6_9  and  O4_10 
REMARK    6  A    between atoms: C7_12  and  C8_13 
REMARK    7  A    between atoms: C18_25  and  C19_26 
REMARK    8  A    between atoms: C19_26  and  O7_27 
REMARK    9  A    between atoms: O7_27  and  C20_28 
REMARK   10  A    between atoms: C23_32  and  O9_33 
REMARK   11  A    between atoms: C24_35  and  O10_36 
REMARK   12  A    between atoms: C25_38  and  O11_39 
ROOT
HETATM    1  C5  UNL     1      50.795  44.560  62.020  1.00  0.00     0.065 A 
HETATM    2  O3  UNL     1      51.310  45.446  61.159  1.00  0.00    -0.291 OA
HETATM    3  C6  UNL     1      50.396  46.259  60.732  1.00  0.00     0.191 A 
HETATM    4  C7  UNL     1      49.209  45.899  61.330  1.00  0.00     0.020 A 
HETATM    5  C18 UNL     1      49.452  44.849  62.130  1.00  0.00     0.007 A 
ENDROOT
BRANCH   5   6
HETATM    6  C19 UNL     1      48.604  43.984  63.043  1.00  0.00     0.213 C 
BRANCH   6   7
HETATM    7  O7  UNL     1      47.625  43.277  62.293  1.00  0.00    -0.354 OA
BRANCH   7   8
HETATM    8  C20 UNL     1      48.074  41.963  62.139  1.00  0.00     0.291 C 
HETATM    9  O8  UNL     1      48.511  41.546  60.972  1.00  0.00    -0.351 OA
HETATM   10  C21 UNL     1      48.212  40.260  60.574  1.00  0.00     0.152 C 
HETATM   11  C22 UNL     1      49.409  39.793  59.762  1.00  0.00     0.042 C 
HETATM   12  C23 UNL     1      47.969  39.242  61.614  1.00  0.00     0.178 C 
HETATM   13  C24 UNL     1      47.507  39.749  62.933  1.00  0.00     0.183 C 
HETATM   14  C25 UNL     1      46.863  41.107  62.657  1.00  0.00     0.204 C 
BRANCH  12  15
HETATM   15  O9  UNL     1      46.971  38.351  61.150  1.00  0.00    -0.390 OA
ATOM     16  H9  UNL     1      47.297  37.462  61.227  1.00  0.00     0.210 HD
ENDBRANCH  12  15
BRANCH  13  17
HETATM   17  O10 UNL     1      48.581  39.921  63.778  1.00  0.00    -0.390 OA
ATOM     18  H10 UNL     1      48.998  40.759  63.611  1.00  0.00     0.210 HD
ENDBRANCH  13  17
BRANCH  14  19
HETATM   19  O11 UNL     1      45.851  41.022  61.754  1.00  0.00    -0.388 OA
ATOM     20  H11 UNL     1      45.926  40.267  61.182  1.00  0.00     0.210 HD
ENDBRANCH  14  19
ENDBRANCH   7   8
ENDBRANCH   6   7
ENDBRANCH   5   6
BRANCH   1  21
HETATM   21  C4  UNL     1      51.707  43.530  62.604  1.00  0.00     0.075 C 
BRANCH  21  22
HETATM   22  C3  UNL     1      51.751  42.475  61.509  1.00  0.00     0.117 C 
BRANCH  22  23
HETATM   23  C2  UNL     1      51.957  41.107  62.024  1.00  0.00     0.258 C 
HETATM   24  O2  UNL     1      51.210  40.586  62.875  1.00  0.00    -0.265 OA
BRANCH  23  25
HETATM   25  O1  UNL     1      53.025  40.380  61.533  1.00  0.00    -0.326 OA
HETATM   26  C1  UNL     1      52.961  39.066  61.042  1.00  0.00     0.213 C 
ENDBRANCH  23  25
ENDBRANCH  22  23
ENDBRANCH  21  22
ENDBRANCH   1  21
BRANCH   4  27
HETATM   27  C8  UNL     1      47.946  46.630  61.056  1.00  0.00     0.065 C 
HETATM   28  C9  UNL     1      47.000  45.654  60.462  1.00  0.00     0.052 C 
HETATM   29  C10 UNL     1      45.565  45.853  60.940  1.00  0.00     0.063 C 
HETATM   30  C11 UNL     1      45.095  47.135  60.358  1.00  0.00     0.046 C 
HETATM   31  C12 UNL     1      44.810  44.645  60.456  1.00  0.00     0.046 C 
HETATM   32  O5  UNL     1      45.572  45.804  62.365  1.00  0.00    -0.319 OA
HETATM   33  C13 UNL     1      46.354  46.806  62.974  1.00  0.00     0.193 A 
HETATM   34  O6  UNL     1      46.209  47.468  64.116  1.00  0.00    -0.299 OA
HETATM   35  C17 UNL     1      47.499  47.250  62.346  1.00  0.00     0.017 A 
HETATM   36  C14 UNL     1      47.184  48.313  64.271  1.00  0.00     0.152 A 
HETATM   37  C15 UNL     1      48.023  48.194  63.153  1.00  0.00    -0.028 A 
HETATM   38  C16 UNL     1      49.224  49.072  63.046  1.00  0.00     0.050 C 
ENDBRANCH   4  27
BRANCH   3  39
HETATM   39  O4  UNL     1      50.664  47.289  59.817  1.00  0.00    -0.340 OA
ATOM     40  H4  UNL     1      50.025  47.954  59.592  1.00  0.00     0.220 HD
ENDBRANCH   3  39
TORSDOF 12
ENDMDL
MODEL 2
REMARK VINA RESULT: -6.125623174      1.212      1.495
REMARK  12 active torsions:
REMARK  status: ('A' for Active; 'I' for Inactive)
REMARK    1  A    between atoms: O1_2  and  C2_3 
REMARK    2  A    between atoms: C2_3  and  C3_5 
REMARK    3  A    between atoms: C3_5  and  C4_6 
REMARK    4  A    between atoms: C4_6  and  C5_7 
REMARK    5  A    between atoms: C6_9  and  O4_10 
REMARK    6  A    between atoms: C7_12  and  C8_13 
REMARK    7  A    between atoms: C18_25  and  C19_26 
REMARK    8  A    between atoms: C19_26  and  O7_27 
REMARK    9  A    between atoms: O7_27  and  C20_28 
REMARK   10  A    between atoms: C23_32  and  O9_33 
REMARK   11  A    between atoms: C24_35  and  O10_36 
REMARK   12  A    between atoms: C25_38  and  O11_39 
ROOT
HETATM    1  C5  UNL     1      50.382  44.533  61.284  1.00  0.00     0.065 A 
HETATM    2  O3  UNL     1      50.735  45.389  60.317  1.00  0.00    -0.291 OA
HETATM    3  C6  UNL     1      49.779  46.229  60.074  1.00  0.00     0.191 A 
HETATM    4  C7  UNL     1      48.732  45.920  60.913  1.00  0.00     0.020 A 
HETATM    5  C18 UNL     1      49.102  44.872  61.666  1.00  0.00     0.007 A 
ENDROOT
BRANCH   5   6
HETATM    6  C19 UNL     1      48.435  44.051  62.752  1.00  0.00     0.213 C 
BRANCH   6   7
HETATM    7  O7  UNL     1      47.434  43.207  62.196  1.00  0.00    -0.354 OA
BRANCH   7   8
HETATM    8  C20 UNL     1      47.970  41.920  62.095  1.00  0.00     0.291 C 
HETATM    9  O8  UNL     1      48.444  41.490  60.949  1.00  0.00    -0.351 OA
HETATM   10  C21 UNL     1      48.234  40.173  60.598  1.00  0.00     0.152 C 
HETATM   11  C22 UNL     1      49.465  39.755  59.812  1.00  0.00     0.042 C 
HETATM   12  C23 UNL     1      48.047  39.180  61.674  1.00  0.00     0.178 C 
HETATM   13  C24 UNL     1      47.541  39.706  62.970  1.00  0.00     0.183 C 
HETATM   14  C25 UNL     1      46.812  41.007  62.637  1.00  0.00     0.204 C 
BRANCH  12  15
HETATM   15  O9  UNL     1      47.114  38.209  61.238  1.00  0.00    -0.390 OA
ATOM     16  H9  UNL     1      47.579  37.534  60.759  1.00  0.00     0.210 HD
ENDBRANCH  12  15
BRANCH  13  17
HETATM   17  O10 UNL     1      48.594  39.979  63.815  1.00  0.00    -0.390 OA
ATOM     18  H10 UNL     1      48.396  39.675  64.693  1.00  0.00     0.210 HD
ENDBRANCH  13  17
BRANCH  14  19
HETATM   19  O11 UNL     1      45.816  40.822  61.732  1.00  0.00    -0.388 OA
ATOM     20  H11 UNL     1      45.783  39.935  61.394  1.00  0.00     0.210 HD
ENDBRANCH  14  19
ENDBRANCH   7   8
ENDBRANCH   6   7
ENDBRANCH   5   6
BRANCH   1  21
HETATM   21  C4  UNL     1      51.361  43.478  61.686  1.00  0.00     0.075 C 
BRANCH  21  22
HETATM   22  C3  UNL     1      52.169  44.177  62.768  1.00  0.00     0.117 C 
BRANCH  22  23
HETATM   23  C2  UNL     1      52.961  43.248  63.598  1.00  0.00     0.258 C 
HETATM   24  O2  UNL     1      52.737  42.023  63.642  1.00  0.00    -0.265 OA
BRANCH  23  25
HETATM   25  O1  UNL     1      53.995  43.769  64.352  1.00  0.00    -0.326 OA
HETATM   26  C1  UNL     1      55.157  43.078  64.733  1.00  0.00     0.213 C 
ENDBRANCH  23  25
ENDBRANCH  22  23
ENDBRANCH  21  22
ENDBRANCH   1  21
BRANCH   4  27
HETATM   27  C8  UNL     1      47.465  46.693  60.893  1.00  0.00     0.065 C 
HETATM   28  C9  UNL     1      46.412  45.787  60.374  1.00  0.00     0.052 C 
HETATM   29  C10 UNL     1      45.072  45.970  61.079  1.00  0.00     0.063 C 
HETATM   30  C11 UNL     1      44.557  47.305  60.679  1.00  0.00     0.046 C 
HETATM   31  C12 UNL     1      44.217  44.820  60.621  1.00  0.00     0.046 C 
HETATM   32  O5  UNL     1      45.290  45.804  62.478  1.00  0.00    -0.319 OA
HETATM   33  C13 UNL     1      46.185  46.737  63.039  1.00  0.00     0.193 A 
HETATM   34  O6  UNL     1      46.233  47.304  64.238  1.00  0.00    -0.299 OA
HETATM   35  C17 UNL     1      47.235  47.212  62.281  1.00  0.00     0.017 A 
HETATM   36  C14 UNL     1      47.245  48.117  64.310  1.00  0.00     0.152 A 
HETATM   37  C15 UNL     1      47.903  48.076  63.071  1.00  0.00    -0.028 A 
HETATM   38  C16 UNL     1      49.100  48.939  62.853  1.00  0.00     0.050 C 
ENDBRANCH   4  27
BRANCH   3  39
HETATM   39  O4  UNL     1      49.885  47.237  59.103  1.00  0.00    -0.340 OA
ATOM     40  H4  UNL     1      50.263  47.085  58.245  1.00  0.00     0.220 HD
ENDBRANCH   3  39
TORSDOF 12
ENDMDL
MODEL 3
REMARK VINA RESULT: -6.108844474     11.580     14.532
REMARK  12 active torsions:
REMARK  status: ('A' for Active; 'I' for Inactive)
REMARK    1  A    between atoms: O1_2  and  C2_3 
REMARK    2  A    between atoms: C2_3  and  C3_5 
REMARK    3  A    between atoms: C3_5  and  C4_6 
REMARK    4  A    between atoms: C4_6  and  C5_7 
REMARK    5  A    between atoms: C6_9  and  O4_10 
REMARK    6  A    between atoms: C7_12  and  C8_13 
REMARK    7  A    between atoms: C18_25  and  C19_26 
REMARK    8  A    between atoms: C19_26  and  O7_27 
REMARK    9  A    between atoms: O7_27  and  C20_28 
REMARK   10  A    between atoms: C23_32  and  O9_33 
REMARK   11  A    between atoms: C24_35  and  O10_36 
REMARK   12  A    between atoms: C25_38  and  O11_39 
ROOT
HETATM    1  C5  UNL     1      46.582  43.866  74.489  1.00  0.00     0.065 A 
HETATM    2  O3  UNL     1      45.664  43.022  74.976  1.00  0.00    -0.291 OA
HETATM    3  C6  UNL     1      46.222  41.939  75.419  1.00  0.00     0.191 A 
HETATM    4  C7  UNL     1      47.578  42.059  75.216  1.00  0.00     0.020 A 
HETATM    5  C18 UNL     1      47.807  43.251  74.643  1.00  0.00     0.007 A 
ENDROOT
BRANCH   5   6
HETATM    6  C19 UNL     1      49.043  43.984  74.161  1.00  0.00     0.213 C 
BRANCH   6   7
HETATM    7  O7  UNL     1      49.045  44.078  72.742  1.00  0.00    -0.354 OA
BRANCH   7   8
HETATM    8  C20 UNL     1      50.176  44.808  72.365  1.00  0.00     0.291 C 
HETATM    9  O8  UNL     1      50.899  45.422  73.273  1.00  0.00    -0.351 OA
HETATM   10  C21 UNL     1      51.431  46.658  72.972  1.00  0.00     0.152 C 
HETATM   11  C22 UNL     1      52.762  46.721  73.702  1.00  0.00     0.042 C 
HETATM   12  C23 UNL     1      51.695  46.982  71.556  1.00  0.00     0.178 C 
HETATM   13  C24 UNL     1      50.883  46.246  70.552  1.00  0.00     0.183 C 
HETATM   14  C25 UNL     1      49.617  45.801  71.283  1.00  0.00     0.204 C 
BRANCH  12  15
HETATM   15  O9  UNL     1      51.440  48.360  71.352  1.00  0.00    -0.390 OA
ATOM     16  H9  UNL     1      51.155  48.487  70.455  1.00  0.00     0.210 HD
ENDBRANCH  12  15
BRANCH  13  17
HETATM   17  O10 UNL     1      51.567  45.134  70.113  1.00  0.00    -0.390 OA
ATOM     18  H10 UNL     1      50.979  44.553  69.643  1.00  0.00     0.210 HD
ENDBRANCH  13  17
BRANCH  14  19
HETATM   19  O11 UNL     1      48.941  46.848  71.825  1.00  0.00    -0.388 OA
ATOM     20  H11 UNL     1      49.401  47.674  71.732  1.00  0.00     0.210 HD
ENDBRANCH  14  19
ENDBRANCH   7   8
ENDBRANCH   6   7
ENDBRANCH   5   6
BRANCH   1  21
HETATM   21  C4  UNL     1      46.115  45.165  73.918  1.00  0.00     0.075 C 
BRANCH  21  22
HETATM   22  C3  UNL     1      46.364  46.134  75.064  1.00  0.00     0.117 C 
BRANCH  22  23
HETATM   23  C2  UNL     1      46.601  47.520  74.615  1.00  0.00     0.258 C 
HETATM   24  O2  UNL     1      45.676  48.312  74.352  1.00  0.00    -0.265 OA
BRANCH  23  25
HETATM   25  O1  UNL     1      47.909  47.949  74.487  1.00  0.00    -0.326 OA
HETATM   26  C1  UNL     1      48.973  47.584  75.327  1.00  0.00     0.213 C 
ENDBRANCH  23  25
ENDBRANCH  22  23
ENDBRANCH  21  22
ENDBRANCH   1  21
BRANCH   4  27
HETATM   27  C8  UNL     1      48.522  40.983  75.611  1.00  0.00     0.065 C 
HETATM   28  C9  UNL     1      49.360  40.684  74.424  1.00  0.00     0.052 C 
HETATM   29  C10 UNL     1      50.814  40.394  74.784  1.00  0.00     0.063 C 
HETATM   30  C11 UNL     1      50.825  39.097  75.507  1.00  0.00     0.046 C 
HETATM   31  C12 UNL     1      51.553  40.372  73.473  1.00  0.00     0.046 C 
HETATM   32  O5  UNL     1      51.307  41.504  75.529  1.00  0.00    -0.319 OA
HETATM   33  C13 UNL     1      50.622  41.740  76.738  1.00  0.00     0.193 A 
HETATM   34  O6  UNL     1      51.033  42.204  77.911  1.00  0.00    -0.299 OA
HETATM   35  C17 UNL     1      49.272  41.466  76.818  1.00  0.00     0.017 A 
HETATM   36  C14 UNL     1      50.041  42.250  78.748  1.00  0.00     0.152 A 
HETATM   37  C15 UNL     1      48.902  41.784  78.074  1.00  0.00    -0.028 A 
HETATM   38  C16 UNL     1      47.605  41.700  78.806  1.00  0.00     0.050 C 
ENDBRANCH   4  27
BRANCH   3  39
HETATM   39  O4  UNL     1      45.488  40.884  75.984  1.00  0.00    -0.340 OA
ATOM     40  H4  UNL     1      44.629  40.630  75.668  1.00  0.00     0.220 HD
ENDBRANCH   3  39
TORSDOF 12
ENDMDL
MODEL 4
REMARK VINA RESULT: -6.043797765     12.307     15.397
REMARK  12 active torsions:
REMARK  status: ('A' for Active; 'I' for Inactive)
REMARK    1  A    between atoms: O1_2  and  C2_3 
REMARK    2  A    between atoms: C2_3  and  C3_5 
REMARK    3  A    between atoms: C3_5  and  C4_6 
REMARK    4  A    between atoms: C4_6  and  C5_7 
REMARK    5  A    between atoms: C6_9  and  O4_10 
REMARK    6  A    between atoms: C7_12  and  C8_13 
REMARK    7  A    between atoms: C18_25  and  C19_26 
REMARK    8  A    between atoms: C19_26  and  O7_27 
REMARK    9  A    between atoms: O7_27  and  C20_28 
REMARK   10  A    between atoms: C23_32  and  O9_33 
REMARK   11  A    between atoms: C24_35  and  O10_36 
REMARK   12  A    between atoms: C25_38  and  O11_39 
ROOT
HETATM    1  C5  UNL     1      46.501  42.936  75.389  1.00  0.00     0.065 A 
HETATM    2  O3  UNL     1      45.536  42.057  75.686  1.00  0.00    -0.291 OA
HETATM    3  C6  UNL     1      46.035  40.881  75.906  1.00  0.00     0.191 A 
HETATM    4  C7  UNL     1      47.399  40.973  75.744  1.00  0.00     0.020 A 
HETATM    5  C18 UNL     1      47.693  42.244  75.426  1.00  0.00     0.007 A 
ENDROOT
BRANCH   5   6
HETATM    6  C19 UNL     1      48.970  42.998  75.114  1.00  0.00     0.213 C 
BRANCH   6   7
HETATM    7  O7  UNL     1      49.055  43.280  73.723  1.00  0.00    -0.354 OA
BRANCH   7   8
HETATM    8  C20 UNL     1      49.607  44.557  73.580  1.00  0.00     0.291 C 
HETATM    9  O8  UNL     1      49.433  45.460  74.517  1.00  0.00    -0.351 OA
HETATM   10  C21 UNL     1      49.233  46.772  74.143  1.00  0.00     0.152 C 
HETATM   11  C22 UNL     1      49.883  47.613  75.229  1.00  0.00     0.042 C 
HETATM   12  C23 UNL     1      49.785  47.226  72.852  1.00  0.00     0.178 C 
HETATM   13  C24 UNL     1      50.001  46.174  71.824  1.00  0.00     0.183 C 
HETATM   14  C25 UNL     1      49.052  45.033  72.189  1.00  0.00     0.204 C 
BRANCH  12  15
HETATM   15  O9  UNL     1      48.895  48.169  72.285  1.00  0.00    -0.390 OA
ATOM     16  H9  UNL     1      48.412  48.591  72.986  1.00  0.00     0.210 HD
ENDBRANCH  12  15
BRANCH  13  17
HETATM   17  O10 UNL     1      51.300  45.718  71.878  1.00  0.00    -0.390 OA
ATOM     18  H10 UNL     1      51.342  44.910  72.376  1.00  0.00     0.210 HD
ENDBRANCH  13  17
BRANCH  14  19
HETATM   19  O11 UNL     1      47.757  45.439  72.246  1.00  0.00    -0.388 OA
ATOM     20  H11 UNL     1      47.467  45.866  71.448  1.00  0.00     0.210 HD
ENDBRANCH  14  19
ENDBRANCH   7   8
ENDBRANCH   6   7
ENDBRANCH   5   6
BRANCH   1  21
HETATM   21  C4  UNL     1      46.105  44.345  75.090  1.00  0.00     0.075 C 
BRANCH  21  22
HETATM   22  C3  UNL     1      45.891  44.926  76.478  1.00  0.00     0.117 C 
BRANCH  22  23
HETATM   23  C2  UNL     1      46.535  46.241  76.667  1.00  0.00     0.258 C 
HETATM   24  O2  UNL     1      46.149  47.272  76.083  1.00  0.00    -0.265 OA
BRANCH  23  25
HETATM   25  O1  UNL     1      47.610  46.322  77.532  1.00  0.00    -0.326 OA
HETATM   26  C1  UNL     1      48.350  45.232  78.018  1.00  0.00     0.213 C 
ENDBRANCH  23  25
ENDBRANCH  22  23
ENDBRANCH  21  22
ENDBRANCH   1  21
BRANCH   4  27
HETATM   27  C8  UNL     1      48.285  39.795  75.921  1.00  0.00     0.065 C 
HETATM   28  C9  UNL     1      49.071  39.651  74.671  1.00  0.00     0.052 C 
HETATM   29  C10 UNL     1      50.513  39.224  74.924  1.00  0.00     0.063 C 
HETATM   30  C11 UNL     1      50.464  37.826  75.422  1.00  0.00     0.046 C 
HETATM   31  C12 UNL     1      51.215  39.380  73.602  1.00  0.00     0.046 C 
HETATM   32  O5  UNL     1      51.094  40.164  75.824  1.00  0.00    -0.319 OA
HETATM   33  C13 UNL     1      50.456  40.232  77.080  1.00  0.00     0.193 A 
HETATM   34  O6  UNL     1      50.927  40.469  78.298  1.00  0.00    -0.299 OA
HETATM   35  C17 UNL     1      49.095  40.026  77.162  1.00  0.00     0.017 A 
HETATM   36  C14 UNL     1      49.961  40.431  79.167  1.00  0.00     0.152 A 
HETATM   37  C15 UNL     1      48.779  40.149  78.466  1.00  0.00    -0.028 A 
HETATM   38  C16 UNL     1      47.498  40.018  79.221  1.00  0.00     0.050 C 
ENDBRANCH   4  27
BRANCH   3  39
HETATM   39  O4  UNL     1      45.243  39.771  76.238  1.00  0.00    -0.340 OA
ATOM     40  H4  UNL     1      44.800  39.243  75.584  1.00  0.00     0.220 HD
ENDBRANCH   3  39
TORSDOF 12
ENDMDL
MODEL 5
REMARK VINA RESULT: -5.793246345     11.271     13.105
REMARK  12 active torsions:
REMARK  status: ('A' for Active; 'I' for Inactive)
REMARK    1  A    between atoms: O1_2  and  C2_3 
REMARK    2  A    between atoms: C2_3  and  C3_5 
REMARK    3  A    between atoms: C3_5  and  C4_6 
REMARK    4  A    between atoms: C4_6  and  C5_7 
REMARK    5  A    between atoms: C6_9  and  O4_10 
REMARK    6  A    between atoms: C7_12  and  C8_13 
REMARK    7  A    between atoms: C18_25  and  C19_26 
REMARK    8  A    between atoms: C19_26  and  O7_27 
REMARK    9  A    between atoms: O7_27  and  C20_28 
REMARK   10  A    between atoms: C23_32  and  O9_33 
REMARK   11  A    between atoms: C24_35  and  O10_36 
REMARK   12  A    between atoms: C25_38  and  O11_39 
ROOT
HETATM    1  C5  UNL     1      49.671  46.489  72.069  1.00  0.00     0.065 A 
HETATM    2  O3  UNL     1      49.372  47.743  72.429  1.00  0.00    -0.291 OA
HETATM    3  C6  UNL     1      48.702  47.757  73.539  1.00  0.00     0.191 A 
HETATM    4  C7  UNL     1      48.539  46.450  73.941  1.00  0.00     0.020 A 
HETATM    5  C18 UNL     1      49.139  45.661  73.036  1.00  0.00     0.007 A 
ENDROOT
BRANCH   5   6
HETATM    6  C19 UNL     1      49.318  44.164  72.876  1.00  0.00     0.213 C 
BRANCH   6   7
HETATM    7  O7  UNL     1      50.537  43.742  73.475  1.00  0.00    -0.354 OA
BRANCH   7   8
HETATM    8  C20 UNL     1      50.530  42.344  73.515  1.00  0.00     0.291 C 
HETATM    9  O8  UNL     1      49.462  41.701  73.928  1.00  0.00    -0.351 OA
HETATM   10  C21 UNL     1      49.628  40.564  74.691  1.00  0.00     0.152 C 
HETATM   11  C22 UNL     1      48.477  39.646  74.315  1.00  0.00     0.042 C 
HETATM   12  C23 UNL     1      50.873  39.788  74.533  1.00  0.00     0.178 C 
HETATM   13  C24 UNL     1      52.055  40.539  74.032  1.00  0.00     0.183 C 
HETATM   14  C25 UNL     1      51.797  42.004  74.379  1.00  0.00     0.204 C 
BRANCH  12  15
HETATM   15  O9  UNL     1      51.237  39.254  75.792  1.00  0.00    -0.390 OA
ATOM     16  H9  UNL     1      52.067  39.635  76.056  1.00  0.00     0.210 HD
ENDBRANCH  12  15
BRANCH  13  17
HETATM   17  O10 UNL     1      52.154  40.408  72.664  1.00  0.00    -0.390 OA
ATOM     18  H10 UNL     1      52.320  41.255  72.266  1.00  0.00     0.210 HD
ENDBRANCH  13  17
BRANCH  14  19
HETATM   19  O11 UNL     1      51.596  42.190  75.710  1.00  0.00    -0.388 OA
ATOM     20  H11 UNL     1      52.070  41.566  76.247  1.00  0.00     0.210 HD
ENDBRANCH  14  19
ENDBRANCH   7   8
ENDBRANCH   6   7
ENDBRANCH   5   6
BRANCH   1  21
HETATM   21  C4  UNL     1      50.431  46.280  70.800  1.00  0.00     0.075 C 
BRANCH  21  22
HETATM   22  C3  UNL     1      51.792  46.869  71.134  1.00  0.00     0.117 C 
BRANCH  22  23
HETATM   23  C2  UNL     1      52.712  45.897  71.756  1.00  0.00     0.258 C 
HETATM   24  O2  UNL     1      52.914  44.760  71.285  1.00  0.00    -0.265 OA
BRANCH  23  25
HETATM   25  O1  UNL     1      53.376  46.274  72.908  1.00  0.00    -0.326 OA
HETATM   26  C1  UNL     1      52.815  46.324  74.194  1.00  0.00     0.213 C 
ENDBRANCH  23  25
ENDBRANCH  22  23
ENDBRANCH  21  22
ENDBRANCH   1  21
BRANCH   4  27
HETATM   27  C8  UNL     1      47.807  46.105  75.186  1.00  0.00     0.065 C 
HETATM   28  C9  UNL     1      46.692  45.206  74.798  1.00  0.00     0.052 C 
HETATM   29  C10 UNL     1      46.449  44.093  75.813  1.00  0.00     0.063 C 
HETATM   30  C11 UNL     1      45.913  44.741  77.037  1.00  0.00     0.046 C 
HETATM   31  C12 UNL     1      45.485  43.148  75.147  1.00  0.00     0.046 C 
HETATM   32  O5  UNL     1      47.676  43.390  75.991  1.00  0.00    -0.319 OA
HETATM   33  C13 UNL     1      48.729  44.183  76.491  1.00  0.00     0.193 A 
HETATM   34  O6  UNL     1      49.746  43.896  77.293  1.00  0.00    -0.299 OA
HETATM   35  C17 UNL     1      48.801  45.515  76.141  1.00  0.00     0.017 A 
HETATM   36  C14 UNL     1      50.475  44.954  77.489  1.00  0.00     0.152 A 
HETATM   37  C15 UNL     1      49.893  46.004  76.763  1.00  0.00    -0.028 A 
HETATM   38  C16 UNL     1      50.509  47.361  76.823  1.00  0.00     0.050 C 
ENDBRANCH   4  27
BRANCH   3  39
HETATM   39  O4  UNL     1      48.260  48.944  74.143  1.00  0.00    -0.340 OA
ATOM     40  H4  UNL     1      48.258  49.071  75.084  1.00  0.00     0.220 HD
ENDBRANCH   3  39
TORSDOF 12
ENDMDL
