MODEL 1
REMARK VINA RESULT: -5.382203564      0.000      0.000
REMARK  11 active torsions:
REMARK  status: ('A' for Active; 'I' for Inactive)
REMARK    1  A    between atoms: O1_2  and  C2_3 
REMARK    2  A    between atoms: C3_4  and  C4_5 
REMARK    3  A    between atoms: C8_9  and  C9_10 
REMARK    4  A    between atoms: C14_17  and  O2_18 
REMARK    5  A    between atoms: O2_18  and  C15_19 
REMARK    6  A    between atoms: C16_21  and  C17_22 
REMARK    7  A    between atoms: C17_22  and  O4_23 
REMARK    8  A    between atoms: C18_25  and  O5_26 
REMARK    9  A    between atoms: C19_28  and  O6_29 
REMARK   10  A    between atoms: C20_31  and  O7_32 
REMARK   11  A    between atoms: C21_34  and  O8_35 
ROOT
HETATM    1  C9  UNL     1      49.332  46.411  62.224  1.00  0.00     0.053 C 
HETATM    2  C10 UNL     1      49.547  47.262  63.464  1.00  0.00     0.012 C 
HETATM    3  C11 UNL     1      48.309  47.956  63.950  1.00  0.00     0.003 C 
HETATM    4  C12 UNL     1      47.274  47.900  62.882  1.00  0.00     0.036 C 
HETATM    5  C13 UNL     1      46.969  46.460  62.606  1.00  0.00     0.103 A 
HETATM    6  S1  UNL     1      45.317  45.934  62.204  1.00  0.00    -0.071 SA
HETATM    7  S2  UNL     1      46.178  46.383  60.747  1.00  0.00    -0.071 SA
HETATM    8  C14 UNL     1      48.182  45.578  62.537  1.00  0.00     0.163 C 
ENDROOT
BRANCH   8   9
HETATM    9  O2  UNL     1      47.841  44.514  61.789  1.00  0.00    -0.350 OA
BRANCH   9  10
HETATM   10  C15 UNL     1      48.226  43.292  62.382  1.00  0.00     0.292 C 
HETATM   11  O3  UNL     1      49.061  42.652  61.432  1.00  0.00    -0.348 OA
HETATM   12  C16 UNL     1      49.767  41.598  61.938  1.00  0.00     0.179 C 
HETATM   13  C18 UNL     1      48.974  40.869  62.994  1.00  0.00     0.180 C 
HETATM   14  C19 UNL     1      47.484  40.942  62.654  1.00  0.00     0.183 C 
HETATM   15  C20 UNL     1      47.044  42.392  62.561  1.00  0.00     0.204 C 
BRANCH  12  16
HETATM   16  C17 UNL     1      51.156  41.947  62.368  1.00  0.00     0.198 C 
BRANCH  16  17
HETATM   17  O4  UNL     1      51.532  41.450  63.592  1.00  0.00    -0.398 OA
ATOM     18  H4  UNL     1      52.364  40.993  63.604  1.00  0.00     0.209 HD
ENDBRANCH  16  17
ENDBRANCH  12  16
BRANCH  13  19
HETATM   19  O5  UNL     1      49.291  39.499  63.025  1.00  0.00    -0.390 OA
ATOM     20  H5  UNL     1      49.003  39.092  63.835  1.00  0.00     0.210 HD
ENDBRANCH  13  19
BRANCH  14  21
HETATM   21  O6  UNL     1      46.810  40.322  63.700  1.00  0.00    -0.390 OA
ATOM     22  H6  UNL     1      46.903  39.386  63.563  1.00  0.00     0.210 HD
ENDBRANCH  14  21
BRANCH  15  23
HETATM   23  O7  UNL     1      46.240  42.480  61.421  1.00  0.00    -0.388 OA
ATOM     24  H7  UNL     1      45.430  42.919  61.654  1.00  0.00     0.210 HD
ENDBRANCH  15  23
ENDBRANCH   9  10
ENDBRANCH   8   9
BRANCH   1  25
HETATM   25  C8  UNL     1      50.605  45.920  61.810  1.00  0.00    -0.017 A 
HETATM   26  C7  UNL     1      51.631  45.825  62.734  1.00  0.00     0.020 A 
HETATM   27  C3  UNL     1      52.901  45.336  62.416  1.00  0.00    -0.020 A 
HETATM   28  C2  UNL     1      53.187  44.924  61.159  1.00  0.00     0.083 A 
HETATM   29  C23 UNL     1      52.182  45.009  60.218  1.00  0.00     0.006 A 
HETATM   30  C21 UNL     1      50.939  45.491  60.540  1.00  0.00     0.083 A 
HETATM   31  C24 UNL     1      52.463  44.567  58.835  1.00  0.00     0.054 C 
BRANCH  27  32
HETATM   32  C4  UNL     1      53.991  45.243  63.428  1.00  0.00     0.013 C 
HETATM   33  C5  UNL     1      53.989  46.439  64.364  1.00  0.00     0.015 C 
HETATM   34  C6  UNL     1      53.851  44.013  64.289  1.00  0.00     0.015 C 
ENDBRANCH  27  32
BRANCH  28  35
HETATM   35  O1  UNL     1      54.441  44.435  60.818  1.00  0.00    -0.355 OA
HETATM   36  C1  UNL     1      54.647  43.030  60.846  1.00  0.00     0.210 C 
ENDBRANCH  28  35
BRANCH  30  37
HETATM   37  O8  UNL     1      49.967  45.569  59.604  1.00  0.00    -0.355 OA
HETATM   38  C22 UNL     1      49.703  46.756  58.838  1.00  0.00     0.210 C 
ENDBRANCH  30  37
ENDBRANCH   1  25
TORSDOF 11
ENDMDL
MODEL 2
REMARK VINA RESULT: -5.214106001     11.490     13.546
REMARK  11 active torsions:
REMARK  status: ('A' for Active; 'I' for Inactive)
REMARK    1  A    between atoms: O1_2  and  C2_3 
REMARK    2  A    between atoms: C3_4  and  C4_5 
REMARK    3  A    between atoms: C8_9  and  C9_10 
REMARK    4  A    between atoms: C14_17  and  O2_18 
REMARK    5  A    between atoms: O2_18  and  C15_19 
REMARK    6  A    between atoms: C16_21  and  C17_22 
REMARK    7  A    between atoms: C17_22  and  O4_23 
REMARK    8  A    between atoms: C18_25  and  O5_26 
REMARK    9  A    between atoms: C19_28  and  O6_29 
REMARK   10  A    between atoms: C20_31  and  O7_32 
REMARK   11  A    between atoms: C21_34  and  O8_35 
ROOT
HETATM    1  C9  UNL     1      49.646  42.486  75.034  1.00  0.00     0.053 C 
HETATM    2  C10 UNL     1      49.278  41.416  74.021  1.00  0.00     0.012 C 
HETATM    3  C11 UNL     1      48.151  40.526  74.456  1.00  0.00     0.003 C 
HETATM    4  C12 UNL     1      47.924  40.713  75.914  1.00  0.00     0.036 C 
HETATM    5  C13 UNL     1      47.555  42.145  76.147  1.00  0.00     0.103 A 
HETATM    6  S1  UNL     1      46.363  42.594  77.391  1.00  0.00    -0.071 SA
HETATM    7  S2  UNL     1      47.970  42.542  78.085  1.00  0.00    -0.071 SA
HETATM    8  C14 UNL     1      48.387  43.128  75.375  1.00  0.00     0.163 C 
ENDROOT
BRANCH   8   9
HETATM    9  O2  UNL     1      48.333  44.290  76.047  1.00  0.00    -0.350 OA
BRANCH   9  10
HETATM   10  C15 UNL     1      48.024  45.384  75.210  1.00  0.00     0.292 C 
HETATM   11  O3  UNL     1      49.219  46.142  75.113  1.00  0.00    -0.348 OA
HETATM   12  C16 UNL     1      49.204  47.072  74.114  1.00  0.00     0.179 C 
HETATM   13  C18 UNL     1      47.822  47.646  73.926  1.00  0.00     0.180 C 
HETATM   14  C19 UNL     1      47.096  47.683  75.273  1.00  0.00     0.183 C 
HETATM   15  C20 UNL     1      47.020  46.284  75.858  1.00  0.00     0.204 C 
BRANCH  12  16
HETATM   16  C17 UNL     1      49.837  46.608  72.841  1.00  0.00     0.198 C 
BRANCH  16  17
HETATM   17  O4  UNL     1      49.170  46.960  71.694  1.00  0.00    -0.398 OA
ATOM     18  H4  UNL     1      49.723  47.240  70.974  1.00  0.00     0.209 HD
ENDBRANCH  16  17
ENDBRANCH  12  16
BRANCH  13  19
HETATM   19  O5  UNL     1      47.871  48.980  73.484  1.00  0.00    -0.390 OA
ATOM     20  H5  UNL     1      47.013  49.294  73.222  1.00  0.00     0.210 HD
ENDBRANCH  13  19
BRANCH  14  21
HETATM   21  O6  UNL     1      45.811  48.147  75.016  1.00  0.00    -0.390 OA
ATOM     22  H6  UNL     1      45.669  48.884  75.599  1.00  0.00     0.210 HD
ENDBRANCH  14  21
BRANCH  15  23
HETATM   23  O7  UNL     1      47.344  46.413  77.211  1.00  0.00    -0.388 OA
ATOM     24  H7  UNL     1      47.117  47.291  77.496  1.00  0.00     0.210 HD
ENDBRANCH  15  23
ENDBRANCH   9  10
ENDBRANCH   8   9
BRANCH   1  25
HETATM   25  C8  UNL     1      50.801  43.166  74.545  1.00  0.00    -0.017 A 
HETATM   26  C7  UNL     1      51.052  43.188  73.184  1.00  0.00     0.020 A 
HETATM   27  C3  UNL     1      52.148  43.847  72.621  1.00  0.00    -0.020 A 
HETATM   28  C2  UNL     1      53.032  44.510  73.404  1.00  0.00     0.083 A 
HETATM   29  C23 UNL     1      52.804  44.503  74.765  1.00  0.00     0.006 A 
HETATM   30  C21 UNL     1      51.726  43.852  75.307  1.00  0.00     0.083 A 
HETATM   31  C24 UNL     1      53.751  45.218  75.648  1.00  0.00     0.054 C 
BRANCH  27  32
HETATM   32  C4  UNL     1      52.399  43.857  71.152  1.00  0.00     0.013 C 
HETATM   33  C5  UNL     1      53.003  42.546  70.679  1.00  0.00     0.015 C 
HETATM   34  C6  UNL     1      51.127  44.061  70.369  1.00  0.00     0.015 C 
ENDBRANCH  27  32
BRANCH  28  35
HETATM   35  O1  UNL     1      54.128  45.173  72.869  1.00  0.00    -0.355 OA
HETATM   36  C1  UNL     1      53.968  46.525  72.466  1.00  0.00     0.210 C 
ENDBRANCH  28  35
BRANCH  30  37
HETATM   37  O8  UNL     1      51.521  43.854  76.644  1.00  0.00    -0.355 OA
HETATM   38  C22 UNL     1      51.988  42.811  77.515  1.00  0.00     0.210 C 
ENDBRANCH  30  37
ENDBRANCH   1  25
TORSDOF 11
ENDMDL
MODEL 3
REMARK VINA RESULT: -4.958740628      1.743      2.209
REMARK  11 active torsions:
REMARK  status: ('A' for Active; 'I' for Inactive)
REMARK    1  A    between atoms: O1_2  and  C2_3 
REMARK    2  A    between atoms: C3_4  and  C4_5 
REMARK    3  A    between atoms: C8_9  and  C9_10 
REMARK    4  A    between atoms: C14_17  and  O2_18 
REMARK    5  A    between atoms: O2_18  and  C15_19 
REMARK    6  A    between atoms: C16_21  and  C17_22 
REMARK    7  A    between atoms: C17_22  and  O4_23 
REMARK    8  A    between atoms: C18_25  and  O5_26 
REMARK    9  A    between atoms: C19_28  and  O6_29 
REMARK   10  A    between atoms: C20_31  and  O7_32 
REMARK   11  A    between atoms: C21_34  and  O8_35 
ROOT
HETATM    1  C9  UNL     1      49.960  47.484  62.206  1.00  0.00     0.053 C 
HETATM    2  C10 UNL     1      49.844  48.339  63.456  1.00  0.00     0.012 C 
HETATM    3  C11 UNL     1      48.432  48.575  63.904  1.00  0.00     0.003 C 
HETATM    4  C12 UNL     1      47.506  48.194  62.804  1.00  0.00     0.036 C 
HETATM    5  C13 UNL     1      47.706  46.739  62.512  1.00  0.00     0.103 A 
HETATM    6  S1  UNL     1      46.335  45.700  62.054  1.00  0.00    -0.071 SA
HETATM    7  S2  UNL     1      47.041  46.431  60.628  1.00  0.00    -0.071 SA
HETATM    8  C14 UNL     1      49.144  46.311  62.478  1.00  0.00     0.163 C 
ENDROOT
BRANCH   8   9
HETATM    9  O2  UNL     1      49.199  45.206  61.715  1.00  0.00    -0.350 OA
BRANCH   9  10
HETATM   10  C15 UNL     1      50.000  44.194  62.287  1.00  0.00     0.292 C 
HETATM   11  O3  UNL     1      50.885  43.779  61.261  1.00  0.00    -0.348 OA
HETATM   12  C16 UNL     1      51.929  43.018  61.705  1.00  0.00     0.179 C 
HETATM   13  C18 UNL     1      51.513  42.149  62.866  1.00  0.00     0.180 C 
HETATM   14  C19 UNL     1      50.044  41.749  62.704  1.00  0.00     0.183 C 
HETATM   15  C20 UNL     1      49.175  42.992  62.628  1.00  0.00     0.204 C 
BRANCH  12  16
HETATM   16  C17 UNL     1      53.182  43.794  61.959  1.00  0.00     0.198 C 
BRANCH  16  17
HETATM   17  O4  UNL     1      53.961  43.326  62.989  1.00  0.00    -0.398 OA
ATOM     18  H4  UNL     1      54.075  43.928  63.715  1.00  0.00     0.209 HD
ENDBRANCH  16  17
ENDBRANCH  12  16
BRANCH  13  19
HETATM   19  O5  UNL     1      52.234  40.942  62.893  1.00  0.00    -0.390 OA
ATOM     20  H5  UNL     1      52.240  40.558  63.762  1.00  0.00     0.210 HD
ENDBRANCH  13  19
BRANCH  14  21
HETATM   21  O6  UNL     1      49.707  41.019  63.838  1.00  0.00    -0.390 OA
ATOM     22  H6  UNL     1      50.201  41.396  64.557  1.00  0.00     0.210 HD
ENDBRANCH  14  21
BRANCH  15  23
HETATM   23  O7  UNL     1      48.267  42.766  61.590  1.00  0.00    -0.388 OA
ATOM     24  H7  UNL     1      47.415  42.578  61.968  1.00  0.00     0.210 HD
ENDBRANCH  15  23
ENDBRANCH   9  10
ENDBRANCH   8   9
BRANCH   1  25
HETATM   25  C8  UNL     1      51.336  47.450  61.831  1.00  0.00    -0.017 A 
HETATM   26  C7  UNL     1      52.307  47.379  62.814  1.00  0.00     0.020 A 
HETATM   27  C3  UNL     1      53.675  47.321  62.533  1.00  0.00    -0.020 A 
HETATM   28  C2  UNL     1      54.118  47.332  61.254  1.00  0.00     0.083 A 
HETATM   29  C23 UNL     1      53.169  47.403  60.255  1.00  0.00     0.006 A 
HETATM   30  C21 UNL     1      51.829  47.460  60.542  1.00  0.00     0.083 A 
HETATM   31  C24 UNL     1      53.620  47.417  58.846  1.00  0.00     0.054 C 
BRANCH  27  32
HETATM   32  C4  UNL     1      54.704  47.246  63.609  1.00  0.00     0.013 C 
HETATM   33  C5  UNL     1      54.970  48.609  64.224  1.00  0.00     0.015 C 
HETATM   34  C6  UNL     1      54.274  46.336  64.731  1.00  0.00     0.015 C 
ENDBRANCH  27  32
BRANCH  28  35
HETATM   35  O1  UNL     1      55.471  47.276  60.948  1.00  0.00    -0.355 OA
HETATM   36  C1  UNL     1      56.079  46.000  60.812  1.00  0.00     0.210 C 
ENDBRANCH  28  35
BRANCH  30  37
HETATM   37  O8  UNL     1      50.915  47.532  59.548  1.00  0.00    -0.355 OA
HETATM   38  C22 UNL     1      50.454  46.385  58.815  1.00  0.00     0.210 C 
ENDBRANCH  30  37
ENDBRANCH   1  25
TORSDOF 11
ENDMDL
MODEL 4
REMARK VINA RESULT: -4.829901637     11.702     13.980
REMARK  11 active torsions:
REMARK  status: ('A' for Active; 'I' for Inactive)
REMARK    1  A    between atoms: O1_2  and  C2_3 
REMARK    2  A    between atoms: C3_4  and  C4_5 
REMARK    3  A    between atoms: C8_9  and  C9_10 
REMARK    4  A    between atoms: C14_17  and  O2_18 
REMARK    5  A    between atoms: O2_18  and  C15_19 
REMARK    6  A    between atoms: C16_21  and  C17_22 
REMARK    7  A    between atoms: C17_22  and  O4_23 
REMARK    8  A    between atoms: C18_25  and  O5_26 
REMARK    9  A    between atoms: C19_28  and  O6_29 
REMARK   10  A    between atoms: C20_31  and  O7_32 
REMARK   11  A    between atoms: C21_34  and  O8_35 
ROOT
HETATM    1  C9  UNL     1      51.305  43.645  73.857  1.00  0.00     0.053 C 
HETATM    2  C10 UNL     1      52.663  43.809  74.518  1.00  0.00     0.012 C 
HETATM    3  C11 UNL     1      53.752  44.229  73.576  1.00  0.00     0.003 C 
HETATM    4  C12 UNL     1      53.281  44.038  72.178  1.00  0.00     0.036 C 
HETATM    5  C13 UNL     1      52.075  44.902  71.972  1.00  0.00     0.103 A 
HETATM    6  S1  UNL     1      51.779  45.705  70.411  1.00  0.00    -0.071 SA
HETATM    7  S2  UNL     1      51.056  44.110  70.416  1.00  0.00    -0.071 SA
HETATM    8  C14 UNL     1      51.100  44.877  73.112  1.00  0.00     0.163 C 
ENDROOT
BRANCH   8   9
HETATM    9  O2  UNL     1      49.903  45.218  72.604  1.00  0.00    -0.350 OA
BRANCH   9  10
HETATM   10  C15 UNL     1      49.103  45.920  73.530  1.00  0.00     0.292 C 
HETATM   11  O3  UNL     1      47.763  45.696  73.126  1.00  0.00    -0.348 OA
HETATM   12  C16 UNL     1      46.836  46.048  74.065  1.00  0.00     0.179 C 
HETATM   13  C18 UNL     1      47.291  47.251  74.855  1.00  0.00     0.180 C 
HETATM   14  C19 UNL     1      48.132  48.162  73.957  1.00  0.00     0.183 C 
HETATM   15  C20 UNL     1      49.325  47.396  73.414  1.00  0.00     0.204 C 
BRANCH  12  16
HETATM   16  C17 UNL     1      46.375  44.912  74.921  1.00  0.00     0.198 C 
BRANCH  16  17
HETATM   17  O4  UNL     1      45.914  45.266  76.165  1.00  0.00    -0.398 OA
ATOM     18  H4  UNL     1      46.200  44.706  76.877  1.00  0.00     0.209 HD
ENDBRANCH  16  17
ENDBRANCH  12  16
BRANCH  13  19
HETATM   19  O5  UNL     1      46.204  48.034  75.279  1.00  0.00    -0.390 OA
ATOM     20  H5  UNL     1      45.375  47.596  75.122  1.00  0.00     0.210 HD
ENDBRANCH  13  19
BRANCH  14  21
HETATM   21  O6  UNL     1      48.580  49.203  74.762  1.00  0.00    -0.390 OA
ATOM     22  H6  UNL     1      49.388  49.517  74.372  1.00  0.00     0.210 HD
ENDBRANCH  14  21
BRANCH  15  23
HETATM   23  O7  UNL     1      49.413  47.728  72.059  1.00  0.00    -0.388 OA
ATOM     24  H7  UNL     1      50.318  47.635  71.782  1.00  0.00     0.210 HD
ENDBRANCH  15  23
ENDBRANCH   9  10
ENDBRANCH   8   9
BRANCH   1  25
HETATM   25  C8  UNL     1      50.407  43.127  74.838  1.00  0.00    -0.017 A 
HETATM   26  C7  UNL     1      50.081  43.900  75.938  1.00  0.00     0.020 A 
HETATM   27  C3  UNL     1      49.195  43.476  76.933  1.00  0.00    -0.020 A 
HETATM   28  C2  UNL     1      48.604  42.261  76.858  1.00  0.00     0.083 A 
HETATM   29  C23 UNL     1      48.912  41.470  75.770  1.00  0.00     0.006 A 
HETATM   30  C21 UNL     1      49.783  41.896  74.800  1.00  0.00     0.083 A 
HETATM   31  C24 UNL     1      48.282  40.137  75.659  1.00  0.00     0.054 C 
BRANCH  27  32
HETATM   32  C4  UNL     1      48.859  44.326  78.110  1.00  0.00     0.013 C 
HETATM   33  C5  UNL     1      49.801  44.066  79.274  1.00  0.00     0.015 C 
HETATM   34  C6  UNL     1      48.958  45.794  77.786  1.00  0.00     0.015 C 
ENDBRANCH  27  32
BRANCH  28  35
HETATM   35  O1  UNL     1      47.720  41.817  77.833  1.00  0.00    -0.355 OA
HETATM   36  C1  UNL     1      46.334  42.062  77.648  1.00  0.00     0.210 C 
ENDBRANCH  28  35
BRANCH  30  37
HETATM   37  O8  UNL     1      50.075  41.105  73.743  1.00  0.00    -0.355 OA
HETATM   38  C22 UNL     1      51.187  40.194  73.721  1.00  0.00     0.210 C 
ENDBRANCH  30  37
ENDBRANCH   1  25
TORSDOF 11
ENDMDL
MODEL 5
REMARK VINA RESULT: -4.793067696     11.453     13.232
REMARK  11 active torsions:
REMARK  status: ('A' for Active; 'I' for Inactive)
REMARK    1  A    between atoms: O1_2  and  C2_3 
REMARK    2  A    between atoms: C3_4  and  C4_5 
REMARK    3  A    between atoms: C8_9  and  C9_10 
REMARK    4  A    between atoms: C14_17  and  O2_18 
REMARK    5  A    between atoms: O2_18  and  C15_19 
REMARK    6  A    between atoms: C16_21  and  C17_22 
REMARK    7  A    between atoms: C17_22  and  O4_23 
REMARK    8  A    between atoms: C18_25  and  O5_26 
REMARK    9  A    between atoms: C19_28  and  O6_29 
REMARK   10  A    between atoms: C20_31  and  O7_32 
REMARK   11  A    between atoms: C21_34  and  O8_35 
ROOT
HETATM    1  C9  UNL     1      49.175  42.327  75.010  1.00  0.00     0.053 C 
HETATM    2  C10 UNL     1      48.324  41.274  74.320  1.00  0.00     0.012 C 
HETATM    3  C11 UNL     1      47.361  40.574  75.232  1.00  0.00     0.003 C 
HETATM    4  C12 UNL     1      47.740  40.858  76.643  1.00  0.00     0.036 C 
HETATM    5  C13 UNL     1      47.654  42.337  76.859  1.00  0.00     0.103 A 
HETATM    6  S1  UNL     1      47.097  43.006  78.412  1.00  0.00    -0.071 SA
HETATM    7  S2  UNL     1      48.831  42.759  78.448  1.00  0.00    -0.071 SA
HETATM    8  C14 UNL     1      48.227  43.156  75.738  1.00  0.00     0.163 C 
ENDROOT
BRANCH   8   9
HETATM    9  O2  UNL     1      48.570  44.344  76.266  1.00  0.00    -0.350 OA
BRANCH   9  10
HETATM   10  C15 UNL     1      48.289  45.421  75.397  1.00  0.00     0.292 C 
HETATM   11  O3  UNL     1      49.424  46.267  75.457  1.00  0.00    -0.348 OA
HETATM   12  C16 UNL     1      49.468  47.205  74.466  1.00  0.00     0.179 C 
HETATM   13  C18 UNL     1      48.081  47.675  74.101  1.00  0.00     0.180 C 
HETATM   14  C19 UNL     1      47.188  47.642  75.343  1.00  0.00     0.183 C 
HETATM   15  C20 UNL     1      47.143  46.235  75.911  1.00  0.00     0.204 C 
BRANCH  12  16
HETATM   16  C17 UNL     1      50.293  46.805  73.285  1.00  0.00     0.198 C 
BRANCH  16  17
HETATM   17  O4  UNL     1      49.762  47.134  72.062  1.00  0.00    -0.398 OA
ATOM     18  H4  UNL     1      50.055  47.963  71.703  1.00  0.00     0.209 HD
ENDBRANCH  16  17
ENDBRANCH  12  16
BRANCH  13  19
HETATM   19  O5  UNL     1      48.085  49.014  73.671  1.00  0.00    -0.390 OA
ATOM     20  H5  UNL     1      48.670  49.143  72.933  1.00  0.00     0.210 HD
ENDBRANCH  13  19
BRANCH  14  21
HETATM   21  O6  UNL     1      45.915  48.010  74.922  1.00  0.00    -0.390 OA
ATOM     22  H6  UNL     1      45.559  48.572  75.601  1.00  0.00     0.210 HD
ENDBRANCH  14  21
BRANCH  15  23
HETATM   23  O7  UNL     1      47.280  46.372  77.295  1.00  0.00    -0.388 OA
ATOM     24  H7  UNL     1      47.332  45.506  77.682  1.00  0.00     0.210 HD
ENDBRANCH  15  23
ENDBRANCH   9  10
ENDBRANCH   8   9
BRANCH   1  25
HETATM   25  C8  UNL     1      50.118  42.813  74.057  1.00  0.00    -0.017 A 
HETATM   26  C7  UNL     1      51.452  42.917  74.412  1.00  0.00     0.020 A 
HETATM   27  C3  UNL     1      52.443  43.363  73.533  1.00  0.00    -0.020 A 
HETATM   28  C2  UNL     1      52.130  43.721  72.265  1.00  0.00     0.083 A 
HETATM   29  C23 UNL     1      50.807  43.627  71.887  1.00  0.00     0.006 A 
HETATM   30  C21 UNL     1      49.843  43.188  72.757  1.00  0.00     0.083 A 
HETATM   31  C24 UNL     1      50.433  44.011  70.508  1.00  0.00     0.054 C 
BRANCH  27  32
HETATM   32  C4  UNL     1      53.873  43.467  73.937  1.00  0.00     0.013 C 
HETATM   33  C5  UNL     1      54.101  44.627  74.892  1.00  0.00     0.015 C 
HETATM   34  C6  UNL     1      54.347  42.221  74.640  1.00  0.00     0.015 C 
ENDBRANCH  27  32
BRANCH  28  35
HETATM   35  O1  UNL     1      53.096  44.168  71.373  1.00  0.00    -0.355 OA
HETATM   36  C1  UNL     1      53.340  45.565  71.288  1.00  0.00     0.210 C 
ENDBRANCH  28  35
BRANCH  30  37
HETATM   37  O8  UNL     1      48.550  43.106  72.368  1.00  0.00    -0.355 OA
HETATM   38  C22 UNL     1      47.689  44.250  72.244  1.00  0.00     0.210 C 
ENDBRANCH  30  37
ENDBRANCH   1  25
TORSDOF 11
ENDMDL
