MODEL 1
REMARK VINA RESULT: -6.065792354      0.000      0.000
REMARK  11 active torsions:
REMARK  status: ('A' for Active; 'I' for Inactive)
REMARK    1  A    between atoms: C2_2  and  O1_3 
REMARK    2  A    between atoms: O1_3  and  C3_4 
REMARK    3  A    between atoms: C3_4  and  C4_6 
REMARK    4  A    between atoms: C4_6  and  C5_7 
REMARK    5  A    between atoms: N1_9  and  N2_11 
REMARK    6  A    between atoms: N2_11  and  C7_12 
REMARK    7  A    between atoms: C8_15  and  N4_16 
REMARK    8  A    between atoms: C10_21  and  N5_22 
REMARK    9  A    between atoms: C15_27  and  C16_28 
REMARK   10  A    between atoms: C18_32  and  C19_33 
REMARK   11  A    between atoms: C21_36  and  O3_37 
ROOT
HETATM    1  C7  UNL     1      48.078  40.527  62.421  1.00  0.00     0.283 A 
HETATM    2  N3  UNL     1      49.119  40.255  61.555  1.00  0.00    -0.300 N 
ATOM      3  H3  UNL     1      49.268  39.315  61.187  1.00  0.00     0.171 HD
HETATM    4  C8  UNL     1      49.918  41.260  61.217  1.00  0.00     0.122 A 
HETATM    5  C9  UNL     1      49.726  42.559  61.713  1.00  0.00     0.080 A 
HETATM    6  S1  UNL     1      50.508  44.058  61.523  1.00  0.00    -0.064 SA
HETATM    7  C10 UNL     1      49.512  45.012  62.539  1.00  0.00     0.109 A 
HETATM    8  C21 UNL     1      48.591  44.124  62.999  1.00  0.00     0.128 A 
HETATM    9  C22 UNL     1      48.701  42.846  62.571  1.00  0.00     0.093 A 
HETATM   10  N7  UNL     1      47.911  41.774  62.883  1.00  0.00    -0.311 N 
ATOM     11  H7  UNL     1      47.131  41.937  63.519  1.00  0.00     0.170 HD
ENDROOT
BRANCH   7  12
HETATM   12  N5  UNL     1      49.646  46.431  62.819  1.00  0.00    -0.362 N 
HETATM   13  C11 UNL     1      50.939  46.978  63.034  1.00  0.00     0.124 C 
HETATM   14  C12 UNL     1      51.032  48.450  63.238  1.00  0.00     0.020 C 
HETATM   15  C13 UNL     1      49.908  49.153  62.515  1.00  0.00     0.004 C 
HETATM   16  C14 UNL     1      48.631  48.629  63.173  1.00  0.00     0.032 C 
HETATM   17  C15 UNL     1      48.455  47.203  62.863  1.00  0.00     0.142 C 
BRANCH  17  18
HETATM   18  C16 UNL     1      47.679  47.104  61.565  1.00  0.00     0.074 A 
HETATM   19  N6  UNL     1      48.116  47.201  60.331  1.00  0.00    -0.361 N 
HETATM   20  C17 UNL     1      47.297  47.089  59.335  1.00  0.00     0.103 A 
ATOM     21  H6  UNL     1      49.107  47.366  60.155  1.00  0.00     0.165 HD
HETATM   22  C18 UNL     1      45.974  46.866  59.620  1.00  0.00    -0.001 A 
HETATM   23  S2  UNL     1      45.997  46.833  61.329  1.00  0.00    -0.078 SA
BRANCH  22  24
HETATM   24  C19 UNL     1      44.807  46.696  58.692  1.00  0.00     0.043 C 
HETATM   25  C20 UNL     1      43.606  47.417  59.203  1.00  0.00     0.010 C 
ENDBRANCH  22  24
ENDBRANCH  17  18
ENDBRANCH   7  12
BRANCH   8  26
HETATM   26  O3  UNL     1      47.568  44.564  63.895  1.00  0.00    -0.356 OA
ATOM     27  H3  UNL     1      46.843  43.986  64.102  1.00  0.00     0.218 HD
ENDBRANCH   8  26
BRANCH   4  28
HETATM   28  N4  UNL     1      50.926  41.125  60.413  1.00  0.00    -0.384 N 
ATOM     29  H42 UNL     1      50.742  40.564  59.582  1.00  0.00     0.157 HD
ATOM     30  H41 UNL     1      51.840  41.544  60.588  1.00  0.00     0.157 HD
ENDBRANCH   4  28
BRANCH   1  31
HETATM   31  N2  UNL     1      47.306  39.628  62.769  1.00  0.00    -0.287 NA
BRANCH  31  32
HETATM   32  N1  UNL     1      46.530  38.719  63.121  1.00  0.00    -0.230 N 
HETATM   33  C4  UNL     1      45.959  37.709  62.611  1.00  0.00     0.113 C 
ATOM     34  H1  UNL     1      46.281  38.816  64.105  1.00  0.00     0.202 HD
BRANCH  33  35
HETATM   35  C3  UNL     1      45.089  36.874  63.418  1.00  0.00     0.308 C 
HETATM   36  O2  UNL     1      45.518  35.987  64.200  1.00  0.00    -0.258 OA
BRANCH  35  37
HETATM   37  O1  UNL     1      43.693  37.007  63.374  1.00  0.00    -0.317 OA
BRANCH  37  38
HETATM   38  C2  UNL     1      42.885  36.124  62.633  1.00  0.00     0.175 C 
HETATM   39  C1  UNL     1      41.917  36.942  61.813  1.00  0.00     0.034 C 
ENDBRANCH  37  38
ENDBRANCH  35  37
ENDBRANCH  33  35
BRANCH  33  40
HETATM   40  C5  UNL     1      46.185  37.389  61.184  1.00  0.00     0.061 C 
HETATM   41  C6  UNL     1      45.162  38.093  60.334  1.00  0.00     0.011 C 
ENDBRANCH  33  40
ENDBRANCH  31  32
ENDBRANCH   1  31
TORSDOF 11
ENDMDL
MODEL 2
REMARK VINA RESULT: -5.584304611      2.357      4.151
REMARK  11 active torsions:
REMARK  status: ('A' for Active; 'I' for Inactive)
REMARK    1  A    between atoms: C2_2  and  O1_3 
REMARK    2  A    between atoms: O1_3  and  C3_4 
REMARK    3  A    between atoms: C3_4  and  C4_6 
REMARK    4  A    between atoms: C4_6  and  C5_7 
REMARK    5  A    between atoms: N1_9  and  N2_11 
REMARK    6  A    between atoms: N2_11  and  C7_12 
REMARK    7  A    between atoms: C8_15  and  N4_16 
REMARK    8  A    between atoms: C10_21  and  N5_22 
REMARK    9  A    between atoms: C15_27  and  C16_28 
REMARK   10  A    between atoms: C18_32  and  C19_33 
REMARK   11  A    between atoms: C21_36  and  O3_37 
ROOT
HETATM    1  C7  UNL     1      45.512  41.299  60.742  1.00  0.00     0.283 A 
HETATM    2  N3  UNL     1      44.717  41.824  59.743  1.00  0.00    -0.300 N 
ATOM      3  H3  UNL     1      44.159  41.220  59.140  1.00  0.00     0.171 HD
HETATM    4  C8  UNL     1      44.705  43.144  59.594  1.00  0.00     0.122 A 
HETATM    5  C9  UNL     1      45.467  43.989  60.417  1.00  0.00     0.080 A 
HETATM    6  S1  UNL     1      45.710  45.669  60.535  1.00  0.00    -0.064 SA
HETATM    7  C10 UNL     1      46.812  45.690  61.846  1.00  0.00     0.109 A 
HETATM    8  C21 UNL     1      46.958  44.373  62.154  1.00  0.00     0.128 A 
HETATM    9  C22 UNL     1      46.258  43.486  61.411  1.00  0.00     0.093 A 
HETATM   10  N7  UNL     1      46.231  42.123  61.517  1.00  0.00    -0.311 N 
ATOM     11  H7  UNL     1      46.805  41.699  62.246  1.00  0.00     0.170 HD
ENDROOT
BRANCH   7  12
HETATM   12  N5  UNL     1      47.426  46.854  62.459  1.00  0.00    -0.362 N 
HETATM   13  C11 UNL     1      46.842  47.413  63.628  1.00  0.00     0.124 C 
HETATM   14  C12 UNL     1      47.552  48.556  64.266  1.00  0.00     0.020 C 
HETATM   15  C13 UNL     1      49.037  48.466  64.001  1.00  0.00     0.004 C 
HETATM   16  C14 UNL     1      49.170  48.570  62.482  1.00  0.00     0.032 C 
HETATM   17  C15 UNL     1      48.594  47.377  61.844  1.00  0.00     0.142 C 
BRANCH  17  18
HETATM   18  C16 UNL     1      49.686  46.332  61.746  1.00  0.00     0.074 A 
HETATM   19  N6  UNL     1      50.314  45.698  62.709  1.00  0.00    -0.361 N 
HETATM   20  C17 UNL     1      51.231  44.827  62.432  1.00  0.00     0.103 A 
ATOM     21  H6  UNL     1      50.078  45.893  63.682  1.00  0.00     0.165 HD
HETATM   22  C18 UNL     1      51.512  44.598  61.109  1.00  0.00    -0.001 A 
HETATM   23  S2  UNL     1      50.423  45.667  60.341  1.00  0.00    -0.078 SA
BRANCH  22  24
HETATM   24  C19 UNL     1      52.508  43.662  60.487  1.00  0.00     0.043 C 
HETATM   25  C20 UNL     1      52.504  42.341  61.178  1.00  0.00     0.010 C 
ENDBRANCH  22  24
ENDBRANCH  17  18
ENDBRANCH   7  12
BRANCH   8  26
HETATM   26  O3  UNL     1      47.822  43.988  63.225  1.00  0.00    -0.356 OA
ATOM     27  H3  UNL     1      47.715  43.137  63.634  1.00  0.00     0.218 HD
ENDBRANCH   8  26
BRANCH   4  28
HETATM   28  N4  UNL     1      43.999  43.750  58.692  1.00  0.00    -0.384 N 
ATOM     29  H42 UNL     1      44.121  43.398  57.742  1.00  0.00     0.157 HD
ATOM     30  H41 UNL     1      43.367  44.522  58.902  1.00  0.00     0.157 HD
ENDBRANCH   4  28
BRANCH   1  31
HETATM   31  N2  UNL     1      45.562  40.078  60.921  1.00  0.00    -0.287 NA
BRANCH  31  32
HETATM   32  N1  UNL     1      45.609  38.846  61.104  1.00  0.00    -0.230 N 
HETATM   33  C4  UNL     1      46.065  38.031  61.961  1.00  0.00     0.113 C 
ATOM     34  H1  UNL     1      45.148  38.349  60.341  1.00  0.00     0.202 HD
BRANCH  33  35
HETATM   35  C3  UNL     1      45.892  36.602  61.776  1.00  0.00     0.308 C 
HETATM   36  O2  UNL     1      46.407  35.964  60.823  1.00  0.00    -0.258 OA
BRANCH  35  37
HETATM   37  O1  UNL     1      45.125  35.833  62.664  1.00  0.00    -0.317 OA
BRANCH  37  38
HETATM   38  C2  UNL     1      43.937  35.194  62.259  1.00  0.00     0.175 C 
HETATM   39  C1  UNL     1      42.820  36.210  62.285  1.00  0.00     0.034 C 
ENDBRANCH  37  38
ENDBRANCH  35  37
ENDBRANCH  33  35
BRANCH  33  40
HETATM   40  C5  UNL     1      46.776  38.548  63.150  1.00  0.00     0.061 C 
HETATM   41  C6  UNL     1      48.195  38.892  62.787  1.00  0.00     0.011 C 
ENDBRANCH  33  40
ENDBRANCH  31  32
ENDBRANCH   1  31
TORSDOF 11
ENDMDL
MODEL 3
REMARK VINA RESULT: -5.565663952      2.251      3.438
REMARK  11 active torsions:
REMARK  status: ('A' for Active; 'I' for Inactive)
REMARK    1  A    between atoms: C2_2  and  O1_3 
REMARK    2  A    between atoms: O1_3  and  C3_4 
REMARK    3  A    between atoms: C3_4  and  C4_6 
REMARK    4  A    between atoms: C4_6  and  C5_7 
REMARK    5  A    between atoms: N1_9  and  N2_11 
REMARK    6  A    between atoms: N2_11  and  C7_12 
REMARK    7  A    between atoms: C8_15  and  N4_16 
REMARK    8  A    between atoms: C10_21  and  N5_22 
REMARK    9  A    between atoms: C15_27  and  C16_28 
REMARK   10  A    between atoms: C18_32  and  C19_33 
REMARK   11  A    between atoms: C21_36  and  O3_37 
ROOT
HETATM    1  C7  UNL     1      48.476  40.019  62.970  1.00  0.00     0.283 A 
HETATM    2  N3  UNL     1      49.824  39.766  62.805  1.00  0.00    -0.300 N 
ATOM      3  H3  UNL     1      50.185  38.812  62.798  1.00  0.00     0.171 HD
HETATM    4  C8  UNL     1      50.633  40.808  62.655  1.00  0.00     0.122 A 
HETATM    5  C9  UNL     1      50.151  42.127  62.661  1.00  0.00     0.080 A 
HETATM    6  S1  UNL     1      50.845  43.672  62.506  1.00  0.00    -0.064 SA
HETATM    7  C10 UNL     1      49.427  44.621  62.650  1.00  0.00     0.109 A 
HETATM    8  C21 UNL     1      48.445  43.694  62.817  1.00  0.00     0.128 A 
HETATM    9  C22 UNL     1      48.821  42.395  62.823  1.00  0.00     0.093 A 
HETATM   10  N7  UNL     1      48.036  41.285  62.973  1.00  0.00    -0.311 N 
ATOM     11  H7  UNL     1      47.035  41.432  63.096  1.00  0.00     0.170 HD
ENDROOT
BRANCH   7  12
HETATM   12  N5  UNL     1      49.329  46.069  62.601  1.00  0.00    -0.362 N 
HETATM   13  C11 UNL     1      49.336  46.808  63.815  1.00  0.00     0.124 C 
HETATM   14  C12 UNL     1      49.316  48.293  63.709  1.00  0.00     0.020 C 
HETATM   15  C13 UNL     1      49.973  48.738  62.424  1.00  0.00     0.004 C 
HETATM   16  C14 UNL     1      49.109  48.139  61.315  1.00  0.00     0.032 C 
HETATM   17  C15 UNL     1      49.230  46.673  61.320  1.00  0.00     0.142 C 
BRANCH  17  18
HETATM   18  C16 UNL     1      50.403  46.303  60.438  1.00  0.00     0.074 A 
HETATM   19  N6  UNL     1      50.416  45.597  59.330  1.00  0.00    -0.361 N 
HETATM   20  C17 UNL     1      51.527  45.379  58.704  1.00  0.00     0.103 A 
ATOM     21  H6  UNL     1      49.543  45.218  58.961  1.00  0.00     0.165 HD
HETATM   22  C18 UNL     1      52.674  45.910  59.238  1.00  0.00    -0.001 A 
HETATM   23  S2  UNL     1      52.067  46.698  60.627  1.00  0.00    -0.078 SA
BRANCH  22  24
HETATM   24  C19 UNL     1      54.089  45.828  58.746  1.00  0.00     0.043 C 
HETATM   25  C20 UNL     1      54.980  45.221  59.776  1.00  0.00     0.010 C 
ENDBRANCH  22  24
ENDBRANCH  17  18
ENDBRANCH   7  12
BRANCH   8  26
HETATM   26  O3  UNL     1      47.090  44.118  62.975  1.00  0.00    -0.356 OA
ATOM     27  H3  UNL     1      46.489  44.054  62.242  1.00  0.00     0.218 HD
ENDBRANCH   8  26
BRANCH   4  28
HETATM   28  N4  UNL     1      51.914  40.695  62.493  1.00  0.00    -0.384 N 
ATOM     29  H42 UNL     1      52.326  39.853  62.895  1.00  0.00     0.157 HD
ATOM     30  H41 UNL     1      52.479  41.388  62.001  1.00  0.00     0.157 HD
ENDBRANCH   4  28
BRANCH   1  31
HETATM   31  N2  UNL     1      47.681  39.085  63.116  1.00  0.00    -0.287 NA
BRANCH  31  32
HETATM   32  N1  UNL     1      46.881  38.141  63.263  1.00  0.00    -0.230 N 
HETATM   33  C4  UNL     1      45.964  37.563  62.605  1.00  0.00     0.113 C 
ATOM     34  H1  UNL     1      46.997  37.707  64.179  1.00  0.00     0.202 HD
BRANCH  33  35
HETATM   35  C3  UNL     1      45.245  36.443  63.181  1.00  0.00     0.308 C 
HETATM   36  O2  UNL     1      45.573  35.899  64.266  1.00  0.00    -0.258 OA
BRANCH  35  37
HETATM   37  O1  UNL     1      44.120  35.889  62.551  1.00  0.00    -0.317 OA
BRANCH  37  38
HETATM   38  C2  UNL     1      43.950  34.497  62.424  1.00  0.00     0.175 C 
HETATM   39  C1  UNL     1      44.825  34.014  61.292  1.00  0.00     0.034 C 
ENDBRANCH  37  38
ENDBRANCH  35  37
ENDBRANCH  33  35
BRANCH  33  40
HETATM   40  C5  UNL     1      45.633  38.042  61.244  1.00  0.00     0.061 C 
HETATM   41  C6  UNL     1      46.413  37.259  60.223  1.00  0.00     0.011 C 
ENDBRANCH  33  40
ENDBRANCH  31  32
ENDBRANCH   1  31
TORSDOF 11
ENDMDL
MODEL 4
REMARK VINA RESULT: -5.563726718      1.605      1.991
REMARK  11 active torsions:
REMARK  status: ('A' for Active; 'I' for Inactive)
REMARK    1  A    between atoms: C2_2  and  O1_3 
REMARK    2  A    between atoms: O1_3  and  C3_4 
REMARK    3  A    between atoms: C3_4  and  C4_6 
REMARK    4  A    between atoms: C4_6  and  C5_7 
REMARK    5  A    between atoms: N1_9  and  N2_11 
REMARK    6  A    between atoms: N2_11  and  C7_12 
REMARK    7  A    between atoms: C8_15  and  N4_16 
REMARK    8  A    between atoms: C10_21  and  N5_22 
REMARK    9  A    between atoms: C15_27  and  C16_28 
REMARK   10  A    between atoms: C18_32  and  C19_33 
REMARK   11  A    between atoms: C21_36  and  O3_37 
ROOT
HETATM    1  C7  UNL     1      49.167  40.609  60.590  1.00  0.00     0.283 A 
HETATM    2  N3  UNL     1      50.187  40.942  59.720  1.00  0.00    -0.300 N 
ATOM      3  H3  UNL     1      50.583  40.252  59.082  1.00  0.00     0.171 HD
HETATM    4  C8  UNL     1      50.633  42.193  59.743  1.00  0.00     0.122 A 
HETATM    5  C9  UNL     1      50.098  43.155  60.615  1.00  0.00     0.080 A 
HETATM    6  S1  UNL     1      50.391  44.800  60.932  1.00  0.00    -0.064 SA
HETATM    7  C10 UNL     1      49.222  45.050  62.160  1.00  0.00     0.109 A 
HETATM    8  C21 UNL     1      48.633  43.830  62.285  1.00  0.00     0.128 A 
HETATM    9  C22 UNL     1      49.088  42.842  61.481  1.00  0.00     0.093 A 
HETATM   10  N7  UNL     1      48.669  41.542  61.413  1.00  0.00    -0.311 N 
ATOM     11  H7  UNL     1      47.916  41.260  62.040  1.00  0.00     0.170 HD
ENDROOT
BRANCH   7  12
HETATM   12  N5  UNL     1      48.950  46.284  62.875  1.00  0.00    -0.362 N 
HETATM   13  C11 UNL     1      50.036  47.094  63.302  1.00  0.00     0.124 C 
HETATM   14  C12 UNL     1      49.704  48.388  63.960  1.00  0.00     0.020 C 
HETATM   15  C13 UNL     1      48.383  48.914  63.449  1.00  0.00     0.004 C 
HETATM   16  C14 UNL     1      47.357  47.859  63.859  1.00  0.00     0.032 C 
HETATM   17  C15 UNL     1      47.589  46.614  63.111  1.00  0.00     0.142 C 
BRANCH  17  18
HETATM   18  C16 UNL     1      46.804  46.698  61.819  1.00  0.00     0.074 A 
HETATM   19  N6  UNL     1      47.236  46.942  60.603  1.00  0.00    -0.361 N 
HETATM   20  C17 UNL     1      46.409  46.976  59.608  1.00  0.00     0.103 A 
ATOM     21  H6  UNL     1      48.230  47.107  60.441  1.00  0.00     0.165 HD
HETATM   22  C18 UNL     1      45.082  46.746  59.874  1.00  0.00    -0.001 A 
HETATM   23  S2  UNL     1      45.115  46.495  61.564  1.00  0.00    -0.078 SA
BRANCH  22  24
HETATM   24  C19 UNL     1      43.907  46.720  58.942  1.00  0.00     0.043 C 
HETATM   25  C20 UNL     1      42.644  47.052  59.662  1.00  0.00     0.010 C 
ENDBRANCH  22  24
ENDBRANCH  17  18
ENDBRANCH   7  12
BRANCH   8  26
HETATM   26  O3  UNL     1      47.583  43.645  63.235  1.00  0.00    -0.356 OA
ATOM     27  H3  UNL     1      46.933  44.326  63.357  1.00  0.00     0.218 HD
ENDBRANCH   8  26
BRANCH   4  28
HETATM   28  N4  UNL     1      51.586  42.621  58.975  1.00  0.00    -0.384 N 
ATOM     29  H42 UNL     1      51.305  43.326  58.293  1.00  0.00     0.157 HD
ATOM     30  H41 UNL     1      52.547  42.286  59.037  1.00  0.00     0.157 HD
ENDBRANCH   4  28
BRANCH   1  31
HETATM   31  N2  UNL     1      48.717  39.459  60.610  1.00  0.00    -0.287 NA
BRANCH  31  32
HETATM   32  N1  UNL     1      48.265  38.298  60.628  1.00  0.00    -0.230 N 
HETATM   33  C4  UNL     1      47.219  37.693  61.011  1.00  0.00     0.113 C 
ATOM     34  H1  UNL     1      48.930  37.644  60.216  1.00  0.00     0.202 HD
BRANCH  33  35
HETATM   35  C3  UNL     1      47.096  36.259  60.833  1.00  0.00     0.308 C 
HETATM   36  O2  UNL     1      48.074  35.511  60.581  1.00  0.00    -0.258 OA
BRANCH  35  37
HETATM   37  O1  UNL     1      45.857  35.609  60.933  1.00  0.00    -0.317 OA
BRANCH  37  38
HETATM   38  C2  UNL     1      45.475  34.910  62.094  1.00  0.00     0.175 C 
HETATM   39  C1  UNL     1      44.086  35.358  62.481  1.00  0.00     0.034 C 
ENDBRANCH  37  38
ENDBRANCH  35  37
ENDBRANCH  33  35
BRANCH  33  40
HETATM   40  C5  UNL     1      46.124  38.463  61.643  1.00  0.00     0.061 C 
HETATM   41  C6  UNL     1      46.288  38.449  63.139  1.00  0.00     0.011 C 
ENDBRANCH  33  40
ENDBRANCH  31  32
ENDBRANCH   1  31
TORSDOF 11
ENDMDL
MODEL 5
REMARK VINA RESULT: -5.517016895      2.497      4.227
REMARK  11 active torsions:
REMARK  status: ('A' for Active; 'I' for Inactive)
REMARK    1  A    between atoms: C2_2  and  O1_3 
REMARK    2  A    between atoms: O1_3  and  C3_4 
REMARK    3  A    between atoms: C3_4  and  C4_6 
REMARK    4  A    between atoms: C4_6  and  C5_7 
REMARK    5  A    between atoms: N1_9  and  N2_11 
REMARK    6  A    between atoms: N2_11  and  C7_12 
REMARK    7  A    between atoms: C8_15  and  N4_16 
REMARK    8  A    between atoms: C10_21  and  N5_22 
REMARK    9  A    between atoms: C15_27  and  C16_28 
REMARK   10  A    between atoms: C18_32  and  C19_33 
REMARK   11  A    between atoms: C21_36  and  O3_37 
ROOT
HETATM    1  C7  UNL     1      48.644  40.160  63.007  1.00  0.00     0.283 A 
HETATM    2  N3  UNL     1      49.990  39.882  62.878  1.00  0.00    -0.300 N 
ATOM      3  H3  UNL     1      50.334  38.922  62.883  1.00  0.00     0.171 HD
HETATM    4  C8  UNL     1      50.822  40.909  62.747  1.00  0.00     0.122 A 
HETATM    5  C9  UNL     1      50.365  42.236  62.736  1.00  0.00     0.080 A 
HETATM    6  S1  UNL     1      51.091  43.768  62.595  1.00  0.00    -0.064 SA
HETATM    7  C10 UNL     1      49.687  44.743  62.699  1.00  0.00     0.109 A 
HETATM    8  C21 UNL     1      48.684  43.835  62.842  1.00  0.00     0.128 A 
HETATM    9  C22 UNL     1      49.036  42.529  62.862  1.00  0.00     0.093 A 
HETATM   10  N7  UNL     1      48.227  41.434  62.994  1.00  0.00    -0.311 N 
ATOM     11  H7  UNL     1      47.226  41.600  63.089  1.00  0.00     0.170 HD
ENDROOT
BRANCH   7  12
HETATM   12  N5  UNL     1      49.618  46.192  62.643  1.00  0.00    -0.362 N 
HETATM   13  C11 UNL     1      48.724  46.879  63.507  1.00  0.00     0.124 C 
HETATM   14  C12 UNL     1      48.747  48.368  63.470  1.00  0.00     0.020 C 
HETATM   15  C13 UNL     1      50.119  48.863  63.077  1.00  0.00     0.004 C 
HETATM   16  C14 UNL     1      50.344  48.316  61.668  1.00  0.00     0.032 C 
HETATM   17  C15 UNL     1      50.462  46.850  61.710  1.00  0.00     0.142 C 
BRANCH  17  18
HETATM   18  C16 UNL     1      51.919  46.510  61.941  1.00  0.00     0.074 A 
HETATM   19  N6  UNL     1      52.806  46.046  61.091  1.00  0.00    -0.361 N 
HETATM   20  C17 UNL     1      54.020  45.810  61.473  1.00  0.00     0.103 A 
ATOM     21  H6  UNL     1      52.536  45.871  60.123  1.00  0.00     0.165 HD
HETATM   22  C18 UNL     1      54.336  46.064  62.784  1.00  0.00    -0.001 A 
HETATM   23  S2  UNL     1      52.841  46.631  63.388  1.00  0.00    -0.078 SA
BRANCH  22  24
HETATM   24  C19 UNL     1      55.639  45.892  63.507  1.00  0.00     0.043 C 
HETATM   25  C20 UNL     1      55.420  45.716  64.972  1.00  0.00     0.010 C 
ENDBRANCH  22  24
ENDBRANCH  17  18
ENDBRANCH   7  12
BRANCH   8  26
HETATM   26  O3  UNL     1      47.334  44.284  62.962  1.00  0.00    -0.356 OA
ATOM     27  H3  UNL     1      46.985  44.902  62.330  1.00  0.00     0.218 HD
ENDBRANCH   8  26
BRANCH   4  28
HETATM   28  N4  UNL     1      52.105  40.771  62.619  1.00  0.00    -0.384 N 
ATOM     29  H42 UNL     1      52.610  41.631  62.405  1.00  0.00     0.157 HD
ATOM     30  H41 UNL     1      52.584  39.876  62.722  1.00  0.00     0.157 HD
ENDBRANCH   4  28
BRANCH   1  31
HETATM   31  N2  UNL     1      47.828  39.241  63.134  1.00  0.00    -0.287 NA
BRANCH  31  32
HETATM   32  N1  UNL     1      47.003  38.316  63.260  1.00  0.00    -0.230 N 
HETATM   33  C4  UNL     1      46.087  37.762  62.581  1.00  0.00     0.113 C 
ATOM     34  H1  UNL     1      47.090  37.876  64.176  1.00  0.00     0.202 HD
BRANCH  33  35
HETATM   35  C3  UNL     1      45.330  36.657  63.137  1.00  0.00     0.308 C 
HETATM   36  O2  UNL     1      45.644  36.078  64.209  1.00  0.00    -0.258 OA
BRANCH  35  37
HETATM   37  O1  UNL     1      44.183  36.157  62.502  1.00  0.00    -0.317 OA
BRANCH  37  38
HETATM   38  C2  UNL     1      43.959  34.776  62.350  1.00  0.00     0.175 C 
HETATM   39  C1  UNL     1      44.839  34.273  61.230  1.00  0.00     0.034 C 
ENDBRANCH  37  38
ENDBRANCH  35  37
ENDBRANCH  33  35
BRANCH  33  40
HETATM   40  C5  UNL     1      45.795  38.253  61.216  1.00  0.00     0.061 C 
HETATM   41  C6  UNL     1      46.586  37.463  60.209  1.00  0.00     0.011 C 
ENDBRANCH  33  40
ENDBRANCH  31  32
ENDBRANCH   1  31
TORSDOF 11
ENDMDL
