MODEL 1
REMARK VINA RESULT: -6.034838380      0.000      0.000
REMARK  12 active torsions:
REMARK  status: ('A' for Active; 'I' for Inactive)
REMARK    1  A    between atoms: C2_2  and  O1_3 
REMARK    2  A    between atoms: C2_2  and  C7_8 
REMARK    3  A    between atoms: O1_3  and  C3_4 
REMARK    4  A    between atoms: C7_8  and  C8_10 
REMARK    5  A    between atoms: C7_8  and  C23_34 
REMARK    6  A    between atoms: C8_10  and  O2_11 
REMARK    7  A    between atoms: C8_10  and  C10_13 
REMARK    8  A    between atoms: C10_13  and  O4_15 
REMARK    9  A    between atoms: O4_15  and  C11_16 
REMARK   10  A    between atoms: C17_23  and  O6_24 
REMARK   11  A    between atoms: C20_28  and  O7_29 
REMARK   12  A    between atoms: C23_34  and  O9_37 
ROOT
HETATM    1  C10 UNL     1      49.202  45.544  71.958  1.00  0.00     0.295 C 
HETATM    2  O3  UNL     1      48.046  45.318  71.424  1.00  0.00    -0.262 OA
ENDROOT
BRANCH   1   3
HETATM    3  C8  UNL     1      49.475  45.093  73.336  1.00  0.00     0.249 C 
BRANCH   3   4
HETATM    4  C7  UNL     1      48.779  45.923  74.406  1.00  0.00     0.131 C 
HETATM    5  S1  UNL     1      48.611  47.609  73.843  1.00  0.00    -0.073 SA
BRANCH   4   6
HETATM    6  C2  UNL     1      47.419  45.361  74.668  1.00  0.00     0.064 C 
HETATM    7  C1  UNL     1      46.303  45.783  74.344  1.00  0.00     0.048 C 
BRANCH   6   8
HETATM    8  O1  UNL     1      47.418  44.133  75.410  1.00  0.00    -0.345 OA
BRANCH   8   9
HETATM    9  C3  UNL     1      46.474  43.880  76.429  1.00  0.00     0.056 C 
HETATM   10  C4  UNL     1      45.697  45.078  76.873  1.00  0.00     0.045 C 
HETATM   11  C5  UNL     1      47.135  43.320  77.681  1.00  0.00     0.045 C 
HETATM   12  C6  UNL     1      45.527  42.814  75.932  1.00  0.00     0.045 C 
ENDBRANCH   8   9
ENDBRANCH   6   8
ENDBRANCH   4   6
BRANCH   4  13
HETATM   13  C23 UNL     1      49.599  45.873  75.678  1.00  0.00     0.077 C 
HETATM   14  C24 UNL     1      48.947  46.565  76.847  1.00  0.00     0.047 C 
HETATM   15  C25 UNL     1      50.958  46.584  75.403  1.00  0.00     0.047 C 
BRANCH  13  16
HETATM   16  O9  UNL     1      49.937  44.598  75.991  1.00  0.00    -0.388 OA
ATOM     17  H9  UNL     1      49.194  44.014  75.894  1.00  0.00     0.210 HD
ENDBRANCH  13  16
ENDBRANCH   4  13
ENDBRANCH   3   4
BRANCH   3  18
HETATM   18  O2  UNL     1      48.907  43.781  73.379  1.00  0.00    -0.379 OA
HETATM   19  C9  UNL     1      49.914  42.894  73.075  1.00  0.00     0.202 C 
ENDBRANCH   3  18
ENDBRANCH   1   3
BRANCH   1  20
HETATM   20  O4  UNL     1      50.058  46.201  71.102  1.00  0.00    -0.281 OA
BRANCH  20  21
HETATM   21  C11 UNL     1      51.298  45.750  70.713  1.00  0.00     0.071 C 
HETATM   22  C12 UNL     1      51.462  44.406  70.083  1.00  0.00     0.078 C 
HETATM   23  C13 UNL     1      52.363  46.492  70.888  1.00  0.00     0.095 A 
HETATM   24  C14 UNL     1      52.422  47.844  71.493  1.00  0.00     0.200 A 
HETATM   25  C22 UNL     1      53.717  46.112  70.511  1.00  0.00     0.202 A 
HETATM   26  O5  UNL     1      51.441  48.463  71.921  1.00  0.00    -0.286 OA
HETATM   27  C15 UNL     1      53.835  48.208  71.444  1.00  0.00     0.035 A 
HETATM   28  C16 UNL     1      54.427  49.393  71.896  1.00  0.00     0.053 A 
HETATM   29  C21 UNL     1      54.588  47.213  70.878  1.00  0.00     0.063 A 
HETATM   30  C17 UNL     1      55.785  49.552  71.765  1.00  0.00     0.075 A 
HETATM   31  C18 UNL     1      56.532  48.536  71.191  1.00  0.00     0.005 A 
HETATM   32  C19 UNL     1      58.012  48.653  71.027  1.00  0.00     0.054 C 
HETATM   33  C20 UNL     1      55.963  47.344  70.732  1.00  0.00     0.089 A 
HETATM   34  O8  UNL     1      54.061  45.016  69.962  1.00  0.00    -0.286 OA
BRANCH  30  35
HETATM   35  O6  UNL     1      56.478  50.674  72.171  1.00  0.00    -0.360 OA
ATOM     36  H6  UNL     1      56.779  51.357  71.584  1.00  0.00     0.217 HD
ENDBRANCH  30  35
BRANCH  33  37
HETATM   37  O7  UNL     1      56.740  46.360  70.169  1.00  0.00    -0.359 OA
ATOM     38  H7  UNL     1      57.371  46.563  69.489  1.00  0.00     0.217 HD
ENDBRANCH  33  37
ENDBRANCH  20  21
ENDBRANCH   1  20
TORSDOF 12
ENDMDL
MODEL 2
REMARK VINA RESULT: -5.962147100      1.961      3.895
REMARK  12 active torsions:
REMARK  status: ('A' for Active; 'I' for Inactive)
REMARK    1  A    between atoms: C2_2  and  O1_3 
REMARK    2  A    between atoms: C2_2  and  C7_8 
REMARK    3  A    between atoms: O1_3  and  C3_4 
REMARK    4  A    between atoms: C7_8  and  C8_10 
REMARK    5  A    between atoms: C7_8  and  C23_34 
REMARK    6  A    between atoms: C8_10  and  O2_11 
REMARK    7  A    between atoms: C8_10  and  C10_13 
REMARK    8  A    between atoms: C10_13  and  O4_15 
REMARK    9  A    between atoms: O4_15  and  C11_16 
REMARK   10  A    between atoms: C17_23  and  O6_24 
REMARK   11  A    between atoms: C20_28  and  O7_29 
REMARK   12  A    between atoms: C23_34  and  O9_37 
ROOT
HETATM    1  C10 UNL     1      46.735  45.106  73.931  1.00  0.00     0.295 C 
HETATM    2  O3  UNL     1      45.793  44.270  73.636  1.00  0.00    -0.262 OA
ENDROOT
BRANCH   1   3
HETATM    3  C8  UNL     1      46.961  45.491  75.338  1.00  0.00     0.249 C 
BRANCH   3   4
HETATM    4  C7  UNL     1      47.960  44.604  76.067  1.00  0.00     0.131 C 
HETATM    5  S1  UNL     1      47.890  42.948  75.401  1.00  0.00    -0.073 SA
BRANCH   4   6
HETATM    6  C2  UNL     1      49.341  45.145  75.879  1.00  0.00     0.064 C 
HETATM    7  C1  UNL     1      50.309  44.672  75.273  1.00  0.00     0.048 C 
BRANCH   6   8
HETATM    8  O1  UNL     1      49.567  46.418  76.498  1.00  0.00    -0.345 OA
BRANCH   8   9
HETATM    9  C3  UNL     1      50.768  46.711  77.182  1.00  0.00     0.056 C 
HETATM   10  C4  UNL     1      51.678  45.540  77.373  1.00  0.00     0.045 C 
HETATM   11  C5  UNL     1      50.501  47.267  78.574  1.00  0.00     0.045 C 
HETATM   12  C6  UNL     1      51.487  47.796  76.417  1.00  0.00     0.045 C 
ENDBRANCH   8   9
ENDBRANCH   6   8
ENDBRANCH   4   6
BRANCH   4  13
HETATM   13  C23 UNL     1      47.620  44.590  77.543  1.00  0.00     0.077 C 
HETATM   14  C24 UNL     1      48.633  43.868  78.391  1.00  0.00     0.047 C 
HETATM   15  C25 UNL     1      46.252  43.866  77.716  1.00  0.00     0.047 C 
BRANCH  13  16
HETATM   16  O9  UNL     1      47.402  45.847  78.004  1.00  0.00    -0.388 OA
ATOM     17  H9  UNL     1      47.783  45.965  78.866  1.00  0.00     0.210 HD
ENDBRANCH  13  16
ENDBRANCH   4  13
ENDBRANCH   3   4
BRANCH   3  18
HETATM   18  O2  UNL     1      47.542  46.795  75.240  1.00  0.00    -0.379 OA
HETATM   19  C9  UNL     1      46.505  47.697  75.181  1.00  0.00     0.202 C 
ENDBRANCH   3  18
ENDBRANCH   1   3
BRANCH   1  20
HETATM   20  O4  UNL     1      47.433  45.526  72.820  1.00  0.00    -0.281 OA
BRANCH  20  21
HETATM   21  C11 UNL     1      48.494  44.864  72.247  1.00  0.00     0.071 C 
HETATM   22  C12 UNL     1      48.378  43.429  71.854  1.00  0.00     0.078 C 
HETATM   23  C13 UNL     1      49.629  45.481  72.036  1.00  0.00     0.095 A 
HETATM   24  C14 UNL     1      49.954  46.892  72.353  1.00  0.00     0.200 A 
HETATM   25  C22 UNL     1      50.810  44.876  71.435  1.00  0.00     0.202 A 
HETATM   26  O5  UNL     1      49.168  47.692  72.874  1.00  0.00    -0.286 OA
HETATM   27  C15 UNL     1      51.338  47.059  71.917  1.00  0.00     0.035 A 
HETATM   28  C16 UNL     1      52.124  48.214  71.997  1.00  0.00     0.053 A 
HETATM   29  C21 UNL     1      51.837  45.898  71.385  1.00  0.00     0.063 A 
HETATM   30  C17 UNL     1      53.416  48.174  71.532  1.00  0.00     0.075 A 
HETATM   31  C18 UNL     1      53.906  46.992  70.998  1.00  0.00     0.005 A 
HETATM   32  C19 UNL     1      55.304  46.891  70.482  1.00  0.00     0.054 C 
HETATM   33  C20 UNL     1      53.140  45.827  70.907  1.00  0.00     0.089 A 
HETATM   34  O8  UNL     1      50.910  43.673  71.032  1.00  0.00    -0.286 OA
BRANCH  30  35
HETATM   35  O6  UNL     1      54.283  49.246  71.557  1.00  0.00    -0.360 OA
ATOM     36  H6  UNL     1      54.310  49.927  70.896  1.00  0.00     0.217 HD
ENDBRANCH  30  35
BRANCH  33  37
HETATM   37  O7  UNL     1      53.663  44.675  70.371  1.00  0.00    -0.359 OA
ATOM     38  H7  UNL     1      54.286  44.707  69.654  1.00  0.00     0.217 HD
ENDBRANCH  33  37
ENDBRANCH  20  21
ENDBRANCH   1  20
TORSDOF 12
ENDMDL
MODEL 3
REMARK VINA RESULT: -5.825965467      1.832      3.709
REMARK  12 active torsions:
REMARK  status: ('A' for Active; 'I' for Inactive)
REMARK    1  A    between atoms: C2_2  and  O1_3 
REMARK    2  A    between atoms: C2_2  and  C7_8 
REMARK    3  A    between atoms: O1_3  and  C3_4 
REMARK    4  A    between atoms: C7_8  and  C8_10 
REMARK    5  A    between atoms: C7_8  and  C23_34 
REMARK    6  A    between atoms: C8_10  and  O2_11 
REMARK    7  A    between atoms: C8_10  and  C10_13 
REMARK    8  A    between atoms: C10_13  and  O4_15 
REMARK    9  A    between atoms: O4_15  and  C11_16 
REMARK   10  A    between atoms: C17_23  and  O6_24 
REMARK   11  A    between atoms: C20_28  and  O7_29 
REMARK   12  A    between atoms: C23_34  and  O9_37 
ROOT
HETATM    1  C10 UNL     1      46.987  45.219  73.721  1.00  0.00     0.295 C 
HETATM    2  O3  UNL     1      46.183  44.261  73.391  1.00  0.00    -0.262 OA
ENDROOT
BRANCH   1   3
HETATM    3  C8  UNL     1      47.021  45.700  75.116  1.00  0.00     0.249 C 
BRANCH   3   4
HETATM    4  C7  UNL     1      48.045  44.988  75.989  1.00  0.00     0.131 C 
HETATM    5  S1  UNL     1      48.254  43.308  75.419  1.00  0.00    -0.073 SA
BRANCH   4   6
HETATM    6  C2  UNL     1      49.357  45.697  75.902  1.00  0.00     0.064 C 
HETATM    7  C1  UNL     1      49.747  46.729  76.460  1.00  0.00     0.048 C 
BRANCH   6   8
HETATM    8  O1  UNL     1      50.312  45.072  75.034  1.00  0.00    -0.345 OA
BRANCH   8   9
HETATM    9  C3  UNL     1      51.606  44.723  75.478  1.00  0.00     0.056 C 
HETATM   10  C4  UNL     1      51.707  44.436  76.942  1.00  0.00     0.045 C 
HETATM   11  C5  UNL     1      52.614  45.830  75.197  1.00  0.00     0.045 C 
HETATM   12  C6  UNL     1      52.061  43.519  74.689  1.00  0.00     0.045 C 
ENDBRANCH   8   9
ENDBRANCH   6   8
ENDBRANCH   4   6
BRANCH   4  13
HETATM   13  C23 UNL     1      47.559  44.998  77.423  1.00  0.00     0.077 C 
HETATM   14  C24 UNL     1      48.400  44.163  78.353  1.00  0.00     0.047 C 
HETATM   15  C25 UNL     1      46.112  44.422  77.446  1.00  0.00     0.047 C 
BRANCH  13  16
HETATM   16  O9  UNL     1      47.430  46.266  77.885  1.00  0.00    -0.388 OA
ATOM     17  H9  UNL     1      46.911  46.289  78.680  1.00  0.00     0.210 HD
ENDBRANCH  13  16
ENDBRANCH   4  13
ENDBRANCH   3   4
BRANCH   3  18
HETATM   18  O2  UNL     1      47.442  47.062  74.991  1.00  0.00    -0.379 OA
HETATM   19  C9  UNL     1      46.306  47.830  74.889  1.00  0.00     0.202 C 
ENDBRANCH   3  18
ENDBRANCH   1   3
BRANCH   1  20
HETATM   20  O4  UNL     1      47.741  45.664  72.658  1.00  0.00    -0.281 OA
BRANCH  20  21
HETATM   21  C11 UNL     1      48.806  44.996  72.100  1.00  0.00     0.071 C 
HETATM   22  C12 UNL     1      48.686  43.563  71.699  1.00  0.00     0.078 C 
HETATM   23  C13 UNL     1      49.950  45.604  71.911  1.00  0.00     0.095 A 
HETATM   24  C14 UNL     1      50.280  47.011  72.240  1.00  0.00     0.200 A 
HETATM   25  C22 UNL     1      51.136  44.992  71.329  1.00  0.00     0.202 A 
HETATM   26  O5  UNL     1      49.492  47.815  72.751  1.00  0.00    -0.286 OA
HETATM   27  C15 UNL     1      51.673  47.169  71.829  1.00  0.00     0.035 A 
HETATM   28  C16 UNL     1      52.467  48.317  71.927  1.00  0.00     0.053 A 
HETATM   29  C21 UNL     1      52.172  46.006  71.301  1.00  0.00     0.063 A 
HETATM   30  C17 UNL     1      53.766  48.269  71.485  1.00  0.00     0.075 A 
HETATM   31  C18 UNL     1      54.256  47.085  70.955  1.00  0.00     0.005 A 
HETATM   32  C19 UNL     1      55.662  46.974  70.463  1.00  0.00     0.054 C 
HETATM   33  C20 UNL     1      53.482  45.927  70.846  1.00  0.00     0.089 A 
HETATM   34  O8  UNL     1      51.234  43.789  70.923  1.00  0.00    -0.286 OA
BRANCH  30  35
HETATM   35  O6  UNL     1      54.642  49.334  71.530  1.00  0.00    -0.360 OA
ATOM     36  H6  UNL     1      55.142  49.645  70.785  1.00  0.00     0.217 HD
ENDBRANCH  30  35
BRANCH  33  37
HETATM   37  O7  UNL     1      54.006  44.772  70.314  1.00  0.00    -0.359 OA
ATOM     38  H7  UNL     1      53.455  44.016  70.149  1.00  0.00     0.217 HD
ENDBRANCH  33  37
ENDBRANCH  20  21
ENDBRANCH   1  20
TORSDOF 12
ENDMDL
MODEL 4
REMARK VINA RESULT: -5.707402316      2.805      4.594
REMARK  12 active torsions:
REMARK  status: ('A' for Active; 'I' for Inactive)
REMARK    1  A    between atoms: C2_2  and  O1_3 
REMARK    2  A    between atoms: C2_2  and  C7_8 
REMARK    3  A    between atoms: O1_3  and  C3_4 
REMARK    4  A    between atoms: C7_8  and  C8_10 
REMARK    5  A    between atoms: C7_8  and  C23_34 
REMARK    6  A    between atoms: C8_10  and  O2_11 
REMARK    7  A    between atoms: C8_10  and  C10_13 
REMARK    8  A    between atoms: C10_13  and  O4_15 
REMARK    9  A    between atoms: O4_15  and  C11_16 
REMARK   10  A    between atoms: C17_23  and  O6_24 
REMARK   11  A    between atoms: C20_28  and  O7_29 
REMARK   12  A    between atoms: C23_34  and  O9_37 
ROOT
HETATM    1  C10 UNL     1      49.430  46.255  73.076  1.00  0.00     0.295 C 
HETATM    2  O3  UNL     1      48.942  47.218  72.363  1.00  0.00    -0.262 OA
ENDROOT
BRANCH   1   3
HETATM    3  C8  UNL     1      48.529  45.411  73.885  1.00  0.00     0.249 C 
BRANCH   3   4
HETATM    4  C7  UNL     1      48.105  46.046  75.202  1.00  0.00     0.131 C 
HETATM    5  S1  UNL     1      47.326  47.622  74.885  1.00  0.00    -0.073 SA
BRANCH   4   6
HETATM    6  C2  UNL     1      47.128  45.152  75.896  1.00  0.00     0.064 C 
HETATM    7  C1  UNL     1      46.007  45.397  76.356  1.00  0.00     0.048 C 
BRANCH   6   8
HETATM    8  O1  UNL     1      47.568  43.795  76.044  1.00  0.00    -0.345 OA
BRANCH   8   9
HETATM    9  C3  UNL     1      46.743  42.703  75.697  1.00  0.00     0.056 C 
HETATM   10  C4  UNL     1      45.499  43.071  74.953  1.00  0.00     0.045 C 
HETATM   11  C5  UNL     1      46.284  41.934  76.928  1.00  0.00     0.045 C 
HETATM   12  C6  UNL     1      47.565  41.741  74.873  1.00  0.00     0.045 C 
ENDBRANCH   8   9
ENDBRANCH   6   8
ENDBRANCH   4   6
BRANCH   4  13
HETATM   13  C23 UNL     1      49.328  46.231  76.074  1.00  0.00     0.077 C 
HETATM   14  C24 UNL     1      49.026  46.230  77.550  1.00  0.00     0.047 C 
HETATM   15  C25 UNL     1      49.968  47.607  75.722  1.00  0.00     0.047 C 
BRANCH  13  16
HETATM   16  O9  UNL     1      50.286  45.321  75.771  1.00  0.00    -0.388 OA
ATOM     17  H9  UNL     1      50.250  44.578  76.362  1.00  0.00     0.210 HD
ENDBRANCH  13  16
ENDBRANCH   4  13
ENDBRANCH   3   4
BRANCH   3  18
HETATM   18  O2  UNL     1      47.358  45.296  73.071  1.00  0.00    -0.379 OA
HETATM   19  C9  UNL     1      47.564  44.243  72.210  1.00  0.00     0.202 C 
ENDBRANCH   3  18
ENDBRANCH   1   3
BRANCH   1  20
HETATM   20  O4  UNL     1      50.798  46.151  72.956  1.00  0.00    -0.281 OA
BRANCH  20  21
HETATM   21  C11 UNL     1      51.472  45.767  71.820  1.00  0.00     0.071 C 
HETATM   22  C12 UNL     1      51.687  46.726  70.697  1.00  0.00     0.078 C 
HETATM   23  C13 UNL     1      51.938  44.550  71.700  1.00  0.00     0.095 A 
HETATM   24  C14 UNL     1      51.831  43.449  72.687  1.00  0.00     0.200 A 
HETATM   25  C22 UNL     1      52.665  44.043  70.544  1.00  0.00     0.202 A 
HETATM   26  O5  UNL     1      51.269  43.545  73.785  1.00  0.00    -0.286 OA
HETATM   27  C15 UNL     1      52.512  42.321  72.057  1.00  0.00     0.035 A 
HETATM   28  C16 UNL     1      52.690  41.034  72.577  1.00  0.00     0.053 A 
HETATM   29  C21 UNL     1      52.997  42.659  70.821  1.00  0.00     0.063 A 
HETATM   30  C17 UNL     1      53.362  40.100  71.827  1.00  0.00     0.075 A 
HETATM   31  C18 UNL     1      53.845  40.456  70.578  1.00  0.00     0.005 A 
HETATM   32  C19 UNL     1      54.579  39.480  69.718  1.00  0.00     0.054 C 
HETATM   33  C20 UNL     1      53.681  41.735  70.039  1.00  0.00     0.089 A 
HETATM   34  O8  UNL     1      52.951  44.702  69.494  1.00  0.00    -0.286 OA
BRANCH  30  35
HETATM   35  O6  UNL     1      53.598  38.803  72.233  1.00  0.00    -0.360 OA
ATOM     36  H6  UNL     1      53.076  38.056  71.965  1.00  0.00     0.217 HD
ENDBRANCH  30  35
BRANCH  33  37
HETATM   37  O7  UNL     1      54.175  42.049  68.796  1.00  0.00    -0.359 OA
ATOM     38  H7  UNL     1      54.139  42.939  68.465  1.00  0.00     0.217 HD
ENDBRANCH  33  37
ENDBRANCH  20  21
ENDBRANCH   1  20
TORSDOF 12
ENDMDL
MODEL 5
REMARK VINA RESULT: -5.623121635      1.068      1.691
REMARK  12 active torsions:
REMARK  status: ('A' for Active; 'I' for Inactive)
REMARK    1  A    between atoms: C2_2  and  O1_3 
REMARK    2  A    between atoms: C2_2  and  C7_8 
REMARK    3  A    between atoms: O1_3  and  C3_4 
REMARK    4  A    between atoms: C7_8  and  C8_10 
REMARK    5  A    between atoms: C7_8  and  C23_34 
REMARK    6  A    between atoms: C8_10  and  O2_11 
REMARK    7  A    between atoms: C8_10  and  C10_13 
REMARK    8  A    between atoms: C10_13  and  O4_15 
REMARK    9  A    between atoms: O4_15  and  C11_16 
REMARK   10  A    between atoms: C17_23  and  O6_24 
REMARK   11  A    between atoms: C20_28  and  O7_29 
REMARK   12  A    between atoms: C23_34  and  O9_37 
ROOT
HETATM    1  C10 UNL     1      48.993  45.356  72.011  1.00  0.00     0.295 C 
HETATM    2  O3  UNL     1      47.936  45.046  71.332  1.00  0.00    -0.262 OA
ENDROOT
BRANCH   1   3
HETATM    3  C8  UNL     1      49.135  44.885  73.402  1.00  0.00     0.249 C 
BRANCH   3   4
HETATM    4  C7  UNL     1      48.161  45.532  74.377  1.00  0.00     0.131 C 
HETATM    5  S1  UNL     1      46.485  45.190  73.865  1.00  0.00    -0.073 SA
BRANCH   4   6
HETATM    6  C2  UNL     1      48.376  44.971  75.745  1.00  0.00     0.064 C 
HETATM    7  C1  UNL     1      49.422  44.771  76.372  1.00  0.00     0.048 C 
BRANCH   6   8
HETATM    8  O1  UNL     1      47.170  44.616  76.435  1.00  0.00    -0.345 OA
BRANCH   8   9
HETATM    9  C3  UNL     1      46.908  43.290  76.843  1.00  0.00     0.056 C 
HETATM   10  C4  UNL     1      47.788  42.258  76.213  1.00  0.00     0.045 C 
HETATM   11  C5  UNL     1      45.478  42.876  76.522  1.00  0.00     0.045 C 
HETATM   12  C6  UNL     1      47.044  43.228  78.345  1.00  0.00     0.045 C 
ENDBRANCH   8   9
ENDBRANCH   6   8
ENDBRANCH   4   6
BRANCH   4  13
HETATM   13  C23 UNL     1      48.408  47.026  74.398  1.00  0.00     0.077 C 
HETATM   14  C24 UNL     1      49.719  47.414  75.030  1.00  0.00     0.047 C 
HETATM   15  C25 UNL     1      47.267  47.691  75.225  1.00  0.00     0.047 C 
BRANCH  13  16
HETATM   16  O9  UNL     1      48.287  47.558  73.157  1.00  0.00    -0.388 OA
ATOM     17  H9  UNL     1      48.263  48.507  73.193  1.00  0.00     0.210 HD
ENDBRANCH  13  16
ENDBRANCH   4  13
ENDBRANCH   3   4
BRANCH   3  18
HETATM   18  O2  UNL     1      48.798  43.497  73.322  1.00  0.00    -0.379 OA
HETATM   19  C9  UNL     1      49.978  42.797  73.224  1.00  0.00     0.202 C 
ENDBRANCH   3  18
ENDBRANCH   1   3
BRANCH   1  20
HETATM   20  O4  UNL     1      49.882  46.116  71.284  1.00  0.00    -0.281 OA
BRANCH  20  21
HETATM   21  C11 UNL     1      51.111  45.692  70.834  1.00  0.00     0.071 C 
HETATM   22  C12 UNL     1      51.268  44.363  70.173  1.00  0.00     0.078 C 
HETATM   23  C13 UNL     1      52.170  46.447  70.978  1.00  0.00     0.095 A 
HETATM   24  C14 UNL     1      52.235  47.789  71.605  1.00  0.00     0.200 A 
HETATM   25  C22 UNL     1      53.513  46.097  70.537  1.00  0.00     0.202 A 
HETATM   26  O5  UNL     1      51.264  48.384  72.087  1.00  0.00    -0.286 OA
HETATM   27  C15 UNL     1      53.639  48.177  71.504  1.00  0.00     0.035 A 
HETATM   28  C16 UNL     1      54.231  49.363  71.952  1.00  0.00     0.053 A 
HETATM   29  C21 UNL     1      54.382  47.204  70.887  1.00  0.00     0.063 A 
HETATM   30  C17 UNL     1      55.580  49.546  71.767  1.00  0.00     0.075 A 
HETATM   31  C18 UNL     1      56.317  48.553  71.143  1.00  0.00     0.005 A 
HETATM   32  C19 UNL     1      57.787  48.696  70.918  1.00  0.00     0.054 C 
HETATM   33  C20 UNL     1      55.748  47.361  70.685  1.00  0.00     0.089 A 
HETATM   34  O8  UNL     1      53.850  45.017  69.953  1.00  0.00    -0.286 OA
BRANCH  30  35
HETATM   35  O6  UNL     1      56.272  50.671  72.165  1.00  0.00    -0.360 OA
ATOM     36  H6  UNL     1      56.969  50.669  72.810  1.00  0.00     0.217 HD
ENDBRANCH  30  35
BRANCH  33  37
HETATM   37  O7  UNL     1      56.514  46.399  70.071  1.00  0.00    -0.359 OA
ATOM     38  H7  UNL     1      56.383  46.179  69.156  1.00  0.00     0.217 HD
ENDBRANCH  33  37
ENDBRANCH  20  21
ENDBRANCH   1  20
TORSDOF 12
ENDMDL
