MODEL 1
REMARK VINA RESULT: -3.877250700      0.000      0.000
REMARK  2 active torsions:
REMARK  status: ('A' for Active; 'I' for Inactive)
REMARK    1  A    between atoms: C5_8  and  C6_9 
REMARK    2  A    between atoms: C6_9  and  O1_10 
ROOT
HETATM    1  C1  UNL     1      -9.760  28.982  38.104  1.00  0.00     0.014 C 
HETATM    2  C2  UNL     1      -8.899  29.187  36.946  1.00  0.00     0.044 C 
HETATM    3  C3  UNL     1      -7.752  30.137  37.017  1.00  0.00     0.200 C 
HETATM    4  N1  UNL     1      -7.074  29.157  37.823  1.00  0.00    -0.065 N 
ATOM      5  H11 UNL     1      -7.200  29.020  38.826  1.00  0.00     0.278 HD
ATOM      6  H12 UNL     1      -6.086  29.173  38.076  1.00  0.00     0.278 HD
HETATM    7  C4  UNL     1      -7.661  28.356  36.788  1.00  0.00     0.200 C 
HETATM    8  C5  UNL     1      -7.243  29.413  35.819  1.00  0.00     0.071 C 
ENDROOT
BRANCH   8   9
HETATM    9  C6  UNL     1      -5.858  29.536  35.409  1.00  0.00     0.173 C 
BRANCH   9  10
HETATM   10  O1  UNL     1      -5.798  29.458  33.997  1.00  0.00    -0.400 OA
ATOM     11  H1  UNL     1      -6.024  28.573  33.734  1.00  0.00     0.209 HD
ENDBRANCH   9  10
ENDBRANCH   8   9
TORSDOF 2
ENDMDL
MODEL 2
REMARK VINA RESULT: -3.826481123      1.279      1.283
REMARK  2 active torsions:
REMARK  status: ('A' for Active; 'I' for Inactive)
REMARK    1  A    between atoms: C5_8  and  C6_9 
REMARK    2  A    between atoms: C6_9  and  O1_10 
ROOT
HETATM    1  C1  UNL     1      -8.687  28.215  38.085  1.00  0.00     0.014 C 
HETATM    2  C2  UNL     1      -8.528  28.887  36.802  1.00  0.00     0.044 C 
HETATM    3  C3  UNL     1      -7.796  30.184  36.716  1.00  0.00     0.200 C 
HETATM    4  N1  UNL     1      -6.581  29.436  36.904  1.00  0.00    -0.065 N 
ATOM      5  H11 UNL     1      -6.205  29.126  37.800  1.00  0.00     0.278 HD
ATOM      6  H12 UNL     1      -5.635  29.794  36.771  1.00  0.00     0.278 HD
HETATM    7  C4  UNL     1      -7.307  28.621  35.973  1.00  0.00     0.200 C 
HETATM    8  C5  UNL     1      -7.685  29.879  35.262  1.00  0.00     0.071 C 
ENDROOT
BRANCH   8   9
HETATM    9  C6  UNL     1      -6.727  30.575  34.427  1.00  0.00     0.173 C 
BRANCH   9  10
HETATM   10  O1  UNL     1      -7.389  31.025  33.261  1.00  0.00    -0.400 OA
ATOM     11  H1  UNL     1      -6.875  30.769  32.504  1.00  0.00     0.209 HD
ENDBRANCH   9  10
ENDBRANCH   8   9
TORSDOF 2
ENDMDL
MODEL 3
REMARK VINA RESULT: -3.808859909      1.812      1.929
REMARK  2 active torsions:
REMARK  status: ('A' for Active; 'I' for Inactive)
REMARK    1  A    between atoms: C5_8  and  C6_9 
REMARK    2  A    between atoms: C6_9  and  O1_10 
ROOT
HETATM    1  C1  UNL     1      -8.091  27.716  38.780  1.00  0.00     0.014 C 
HETATM    2  C2  UNL     1      -8.505  28.587  37.688  1.00  0.00     0.044 C 
HETATM    3  C3  UNL     1      -7.886  29.935  37.522  1.00  0.00     0.200 C 
HETATM    4  N1  UNL     1      -6.707  29.263  37.044  1.00  0.00    -0.065 N 
ATOM      5  H11 UNL     1      -5.979  28.849  37.628  1.00  0.00     0.278 HD
ATOM      6  H12 UNL     1      -5.913  29.708  36.585  1.00  0.00     0.278 HD
HETATM    7  C4  UNL     1      -7.761  28.546  36.386  1.00  0.00     0.200 C 
HETATM    8  C5  UNL     1      -8.414  29.865  36.131  1.00  0.00     0.071 C 
ENDROOT
BRANCH   8   9
HETATM    9  C6  UNL     1      -7.913  30.753  35.101  1.00  0.00     0.173 C 
BRANCH   9  10
HETATM   10  O1  UNL     1      -8.965  31.606  34.691  1.00  0.00    -0.400 OA
ATOM     11  H1  UNL     1      -8.865  32.442  35.132  1.00  0.00     0.209 HD
ENDBRANCH   9  10
ENDBRANCH   8   9
TORSDOF 2
ENDMDL
MODEL 4
REMARK VINA RESULT: -3.771514215      2.429      3.339
REMARK  2 active torsions:
REMARK  status: ('A' for Active; 'I' for Inactive)
REMARK    1  A    between atoms: C5_8  and  C6_9 
REMARK    2  A    between atoms: C6_9  and  O1_10 
ROOT
HETATM    1  C1  UNL     1      -7.224  30.977  33.720  1.00  0.00     0.014 C 
HETATM    2  C2  UNL     1      -6.999  30.554  35.096  1.00  0.00     0.044 C 
HETATM    3  C3  UNL     1      -8.116  30.579  36.085  1.00  0.00     0.200 C 
HETATM    4  N1  UNL     1      -8.649  29.422  35.416  1.00  0.00    -0.065 N 
ATOM      5  H11 UNL     1      -9.217  29.433  34.568  1.00  0.00     0.278 HD
ATOM      6  H12 UNL     1      -9.400  28.827  35.763  1.00  0.00     0.278 HD
HETATM    7  C4  UNL     1      -7.247  29.125  35.481  1.00  0.00     0.200 C 
HETATM    8  C5  UNL     1      -7.263  29.650  36.879  1.00  0.00     0.071 C 
ENDROOT
BRANCH   8   9
HETATM    9  C6  UNL     1      -7.827  28.865  37.958  1.00  0.00     0.173 C 
BRANCH   9  10
HETATM   10  O1  UNL     1      -6.873  28.783  39.000  1.00  0.00    -0.400 OA
ATOM     11  H1  UNL     1      -7.335  28.743  39.830  1.00  0.00     0.209 HD
ENDBRANCH   9  10
ENDBRANCH   8   9
TORSDOF 2
ENDMDL
MODEL 5
REMARK VINA RESULT: -3.767908263      1.794      1.992
REMARK  2 active torsions:
REMARK  status: ('A' for Active; 'I' for Inactive)
REMARK    1  A    between atoms: C5_8  and  C6_9 
REMARK    2  A    between atoms: C6_9  and  O1_10 
ROOT
HETATM    1  C1  UNL     1     -10.487  30.648  35.229  1.00  0.00     0.014 C 
HETATM    2  C2  UNL     1      -9.184  30.090  34.891  1.00  0.00     0.044 C 
HETATM    3  C3  UNL     1      -7.940  30.877  35.132  1.00  0.00     0.200 C 
HETATM    4  N1  UNL     1      -8.117  30.603  36.534  1.00  0.00    -0.065 N 
ATOM      5  H11 UNL     1      -8.729  31.116  37.169  1.00  0.00     0.278 HD
ATOM      6  H12 UNL     1      -7.426  30.769  37.265  1.00  0.00     0.278 HD
HETATM    7  C4  UNL     1      -8.410  29.335  35.930  1.00  0.00     0.200 C 
HETATM    8  C5  UNL     1      -7.243  29.565  35.028  1.00  0.00     0.071 C 
ENDROOT
BRANCH   8   9
HETATM    9  C6  UNL     1      -5.887  29.404  35.515  1.00  0.00     0.173 C 
BRANCH   9  10
HETATM   10  O1  UNL     1      -5.413  28.133  35.113  1.00  0.00    -0.400 OA
ATOM     11  H1  UNL     1      -4.887  27.769  35.816  1.00  0.00     0.209 HD
ENDBRANCH   9  10
ENDBRANCH   8   9
TORSDOF 2
ENDMDL
