MODEL 1
REMARK VINA RESULT: -3.516136795      0.000      0.000
REMARK  1 active torsions:
REMARK  status: ('A' for Active; 'I' for Inactive)
REMARK    1  A    between atoms: C2_2  and  N1_3 
ROOT
HETATM    1  N1  UNL     1      -8.222  29.925  36.149  1.00  0.00    -0.040 N 
HETATM    2  C3  UNL     1      -6.852  29.566  36.240  1.00  0.00     0.468 C 
HETATM    3  N2  UNL     1      -6.742  29.273  37.687  1.00  0.00    -0.043 N 
ATOM      4  H21 UNL     1      -6.097  29.862  38.215  1.00  0.00     0.279 HD
ATOM      5  H22 UNL     1      -6.272  28.403  37.934  1.00  0.00     0.279 HD
HETATM    6  C4  UNL     1      -8.120  29.369  38.050  1.00  0.00     0.239 C 
HETATM    7  C5  UNL     1      -8.538  30.651  37.379  1.00  0.00     0.274 C 
HETATM    8  C6  UNL     1      -8.836  28.769  36.835  1.00  0.00     0.274 C 
ENDROOT
BRANCH   1   9
HETATM    9  C2  UNL     1      -8.798  30.347  34.959  1.00  0.00     0.235 C 
HETATM   10  C1  UNL     1      -7.815  30.876  33.940  1.00  0.00     0.035 C 
ENDBRANCH   1   9
TORSDOF 1
ENDMDL
MODEL 2
REMARK VINA RESULT: -3.381089661      0.759      1.169
REMARK  1 active torsions:
REMARK  status: ('A' for Active; 'I' for Inactive)
REMARK    1  A    between atoms: C2_2  and  N1_3 
ROOT
HETATM    1  N1  UNL     1      -8.355  29.884  35.971  1.00  0.00    -0.040 N 
HETATM    2  C3  UNL     1      -6.995  29.556  35.736  1.00  0.00     0.468 C 
HETATM    3  N2  UNL     1      -6.534  29.298  37.118  1.00  0.00    -0.043 N 
ATOM      4  H21 UNL     1      -5.797  29.912  37.467  1.00  0.00     0.279 HD
ATOM      5  H22 UNL     1      -5.996  28.444  37.260  1.00  0.00     0.279 HD
HETATM    6  C4  UNL     1      -7.787  29.373  37.800  1.00  0.00     0.239 C 
HETATM    7  C5  UNL     1      -8.386  30.631  37.228  1.00  0.00     0.274 C 
HETATM    8  C6  UNL     1      -8.757  28.731  36.803  1.00  0.00     0.274 C 
ENDROOT
BRANCH   1   9
HETATM    9  C2  UNL     1      -9.211  30.267  34.946  1.00  0.00     0.235 C 
HETATM   10  C1  UNL     1     -10.582  30.707  35.407  1.00  0.00     0.035 C 
ENDBRANCH   1   9
TORSDOF 1
ENDMDL
MODEL 3
REMARK VINA RESULT: -3.293559289      1.342      2.597
REMARK  1 active torsions:
REMARK  status: ('A' for Active; 'I' for Inactive)
REMARK    1  A    between atoms: C2_2  and  N1_3 
ROOT
HETATM    1  N1  UNL     1      -7.990  30.171  35.784  1.00  0.00    -0.040 N 
HETATM    2  C3  UNL     1      -8.404  31.076  34.773  1.00  0.00     0.468 C 
HETATM    3  N2  UNL     1      -9.840  31.217  35.104  1.00  0.00    -0.043 N 
ATOM      4  H21 UNL     1     -10.498  30.910  34.387  1.00  0.00     0.279 HD
ATOM      5  H22 UNL     1     -10.201  32.170  35.138  1.00  0.00     0.279 HD
HETATM    6  C4  UNL     1      -9.868  30.491  36.334  1.00  0.00     0.239 C 
HETATM    7  C5  UNL     1      -9.102  29.242  35.984  1.00  0.00     0.274 C 
HETATM    8  C6  UNL     1      -8.527  30.857  36.978  1.00  0.00     0.274 C 
ENDROOT
BRANCH   1   9
HETATM    9  C2  UNL     1      -6.692  29.682  35.852  1.00  0.00     0.235 C 
HETATM   10  C1  UNL     1      -5.839  30.000  34.646  1.00  0.00     0.035 C 
ENDBRANCH   1   9
TORSDOF 1
ENDMDL
MODEL 4
REMARK VINA RESULT: -3.209766475      1.316      1.453
REMARK  1 active torsions:
REMARK  status: ('A' for Active; 'I' for Inactive)
REMARK    1  A    between atoms: C2_2  and  N1_3 
ROOT
HETATM    1  N1  UNL     1      -8.863  29.804  37.228  1.00  0.00    -0.040 N 
HETATM    2  C3  UNL     1      -7.675  29.731  36.455  1.00  0.00     0.468 C 
HETATM    3  N2  UNL     1      -6.729  29.191  37.458  1.00  0.00    -0.043 N 
ATOM      4  H21 UNL     1      -5.935  29.788  37.691  1.00  0.00     0.279 HD
ATOM      5  H22 UNL     1      -6.151  28.408  37.153  1.00  0.00     0.279 HD
HETATM    6  C4  UNL     1      -7.645  28.921  38.520  1.00  0.00     0.239 C 
HETATM    7  C5  UNL     1      -8.451  30.192  38.577  1.00  0.00     0.274 C 
HETATM    8  C6  UNL     1      -8.894  28.432  37.780  1.00  0.00     0.274 C 
ENDROOT
BRANCH   1   9
HETATM    9  C2  UNL     1     -10.047  30.319  36.718  1.00  0.00     0.235 C 
HETATM   10  C1  UNL     1      -9.999  30.657  35.246  1.00  0.00     0.035 C 
ENDBRANCH   1   9
TORSDOF 1
ENDMDL
MODEL 5
REMARK VINA RESULT: -3.113373578      1.157      2.189
REMARK  1 active torsions:
REMARK  status: ('A' for Active; 'I' for Inactive)
REMARK    1  A    between atoms: C2_2  and  N1_3 
ROOT
HETATM    1  N1  UNL     1      -7.485  29.736  36.096  1.00  0.00    -0.040 N 
HETATM    2  C3  UNL     1      -8.473  30.531  35.459  1.00  0.00     0.468 C 
HETATM    3  N2  UNL     1      -9.659  30.203  36.283  1.00  0.00    -0.043 N 
ATOM      4  H21 UNL     1     -10.434  29.754  35.794  1.00  0.00     0.279 HD
ATOM      5  H22 UNL     1     -10.217  30.995  36.601  1.00  0.00     0.279 HD
HETATM    6  C4  UNL     1      -9.027  29.430  37.304  1.00  0.00     0.239 C 
HETATM    7  C5  UNL     1      -8.152  28.500  36.504  1.00  0.00     0.274 C 
HETATM    8  C6  UNL     1      -7.689  30.150  37.501  1.00  0.00     0.274 C 
ENDROOT
BRANCH   1   9
HETATM    9  C2  UNL     1      -6.179  29.667  35.629  1.00  0.00     0.235 C 
HETATM   10  C1  UNL     1      -5.972  30.262  34.256  1.00  0.00     0.035 C 
ENDBRANCH   1   9
TORSDOF 1
ENDMDL
