MODEL 1
REMARK VINA RESULT: -4.357980093      0.000      0.000
REMARK  3 active torsions:
REMARK  status: ('A' for Active; 'I' for Inactive)
REMARK    1  A    between atoms: N1_3  and  C3_4 
REMARK    2  A    between atoms: C3_4  and  C4_5 
REMARK    3  A    between atoms: C5_6  and  C6_7 
ROOT
HETATM    1  C1  UNL     1      -8.437  30.257  39.748  1.00  0.00     0.032 C 
HETATM    2  C2  UNL     1      -7.922  29.291  39.239  1.00  0.00    -0.011 C 
HETATM    3  N1  UNL     1      -7.309  28.174  38.657  1.00  0.00    -0.150 NA
ENDROOT
BRANCH   3   4
HETATM    4  C3  UNL     1      -8.064  27.853  37.460  1.00  0.00     0.219 C 
BRANCH   4   5
HETATM    5  C4  UNL     1      -7.623  28.800  36.427  1.00  0.00    -0.076 C 
HETATM    6  C5  UNL     1      -7.258  29.593  35.581  1.00  0.00    -0.014 C 
BRANCH   6   7
HETATM    7  C6  UNL     1      -6.832  30.532  34.604  1.00  0.00    -0.015 C 
HETATM    8  C7  UNL     1      -6.462  31.343  33.783  1.00  0.00    -0.097 C 
HETATM    9  C8  UNL     1      -6.022  32.341  32.800  1.00  0.00     0.113 C 
ENDBRANCH   6   7
ENDBRANCH   4   5
ENDBRANCH   3   4
TORSDOF 3
ENDMDL
MODEL 2
REMARK VINA RESULT: -4.104082559      1.722      2.602
REMARK  3 active torsions:
REMARK  status: ('A' for Active; 'I' for Inactive)
REMARK    1  A    between atoms: N1_3  and  C3_4 
REMARK    2  A    between atoms: C3_4  and  C4_5 
REMARK    3  A    between atoms: C5_6  and  C6_7 
ROOT
HETATM    1  C1  UNL     1      -8.005  24.185  38.614  1.00  0.00     0.032 C 
HETATM    2  C2  UNL     1      -7.760  25.366  38.613  1.00  0.00    -0.011 C 
HETATM    3  N1  UNL     1      -7.463  26.735  38.626  1.00  0.00    -0.150 NA
ENDROOT
BRANCH   3   4
HETATM    4  C3  UNL     1      -8.605  27.421  38.050  1.00  0.00     0.219 C 
BRANCH   4   5
HETATM    5  C4  UNL     1      -8.070  28.313  37.012  1.00  0.00    -0.076 C 
HETATM    6  C5  UNL     1      -7.625  29.061  36.163  1.00  0.00    -0.014 C 
BRANCH   6   7
HETATM    7  C6  UNL     1      -7.103  29.945  35.182  1.00  0.00    -0.015 C 
HETATM    8  C7  UNL     1      -6.655  30.712  34.356  1.00  0.00    -0.097 C 
HETATM    9  C8  UNL     1      -6.126  31.656  33.364  1.00  0.00     0.113 C 
ENDBRANCH   6   7
ENDBRANCH   4   5
ENDBRANCH   3   4
TORSDOF 3
ENDMDL
MODEL 3
REMARK VINA RESULT: -4.015038867      1.692      5.363
REMARK  3 active torsions:
REMARK  status: ('A' for Active; 'I' for Inactive)
REMARK    1  A    between atoms: N1_3  and  C3_4 
REMARK    2  A    between atoms: C3_4  and  C4_5 
REMARK    3  A    between atoms: C5_6  and  C6_7 
ROOT
HETATM    1  C1  UNL     1      -6.179  30.995  33.858  1.00  0.00     0.032 C 
HETATM    2  C2  UNL     1      -6.129  30.236  34.795  1.00  0.00    -0.011 C 
HETATM    3  N1  UNL     1      -6.054  29.351  35.878  1.00  0.00    -0.150 NA
ENDROOT
BRANCH   3   4
HETATM    4  C3  UNL     1      -7.397  28.856  36.115  1.00  0.00     0.219 C 
BRANCH   4   5
HETATM    5  C4  UNL     1      -7.879  29.532  37.327  1.00  0.00    -0.076 C 
HETATM    6  C5  UNL     1      -8.278  30.102  38.324  1.00  0.00    -0.014 C 
BRANCH   6   7
HETATM    7  C6  UNL     1      -8.750  30.782  39.478  1.00  0.00    -0.015 C 
HETATM    8  C7  UNL     1      -9.142  31.375  40.460  1.00  0.00    -0.097 C 
HETATM    9  C8  UNL     1      -9.597  32.099  41.654  1.00  0.00     0.113 C 
ENDBRANCH   6   7
ENDBRANCH   4   5
ENDBRANCH   3   4
TORSDOF 3
ENDMDL
MODEL 4
REMARK VINA RESULT: -3.992811746      2.002      5.723
REMARK  3 active torsions:
REMARK  status: ('A' for Active; 'I' for Inactive)
REMARK    1  A    between atoms: N1_3  and  C3_4 
REMARK    2  A    between atoms: C3_4  and  C4_5 
REMARK    3  A    between atoms: C5_6  and  C6_7 
ROOT
HETATM    1  C1  UNL     1      -6.023  32.694  32.830  1.00  0.00     0.032 C 
HETATM    2  C2  UNL     1      -6.590  31.756  33.335  1.00  0.00    -0.011 C 
HETATM    3  N1  UNL     1      -7.263  30.676  33.920  1.00  0.00    -0.150 NA
ENDROOT
BRANCH   3   4
HETATM    4  C3  UNL     1      -6.266  29.878  34.608  1.00  0.00     0.219 C 
BRANCH   4   5
HETATM    5  C4  UNL     1      -6.815  29.587  35.939  1.00  0.00    -0.076 C 
HETATM    6  C5  UNL     1      -7.258  29.342  37.044  1.00  0.00    -0.014 C 
BRANCH   6   7
HETATM    7  C6  UNL     1      -7.760  29.051  38.341  1.00  0.00    -0.015 C 
HETATM    8  C7  UNL     1      -8.185  28.786  39.445  1.00  0.00    -0.097 C 
HETATM    9  C8  UNL     1      -8.709  28.448  40.774  1.00  0.00     0.113 C 
ENDBRANCH   6   7
ENDBRANCH   4   5
ENDBRANCH   3   4
TORSDOF 3
ENDMDL
MODEL 5
REMARK VINA RESULT: -3.988592083      2.296      5.633
REMARK  3 active torsions:
REMARK  status: ('A' for Active; 'I' for Inactive)
REMARK    1  A    between atoms: N1_3  and  C3_4 
REMARK    2  A    between atoms: C3_4  and  C4_5 
REMARK    3  A    between atoms: C5_6  and  C6_7 
ROOT
HETATM    1  C1  UNL     1      -6.182  32.343  32.947  1.00  0.00     0.032 C 
HETATM    2  C2  UNL     1      -6.520  31.381  33.591  1.00  0.00    -0.011 C 
HETATM    3  N1  UNL     1      -6.899  30.255  34.334  1.00  0.00    -0.150 NA
ENDROOT
BRANCH   3   4
HETATM    4  C3  UNL     1      -8.342  30.308  34.478  1.00  0.00     0.219 C 
BRANCH   4   5
HETATM    5  C4  UNL     1      -8.606  30.531  35.906  1.00  0.00    -0.076 C 
HETATM    6  C5  UNL     1      -8.819  30.727  37.086  1.00  0.00    -0.014 C 
BRANCH   6   7
HETATM    7  C6  UNL     1      -9.061  30.972  38.464  1.00  0.00    -0.015 C 
HETATM    8  C7  UNL     1      -9.263  31.197  39.638  1.00  0.00    -0.097 C 
HETATM    9  C8  UNL     1      -9.490  31.480  41.061  1.00  0.00     0.113 C 
ENDBRANCH   6   7
ENDBRANCH   4   5
ENDBRANCH   3   4
TORSDOF 3
ENDMDL
