MODEL 1
REMARK VINA RESULT: -4.285435453      0.000      0.000
REMARK  0 active torsions:
REMARK  status: ('A' for Active; 'I' for Inactive)
ROOT
HETATM    1  C1  UNL     1      -6.147  30.966  34.161  1.00  0.00     0.055 C 
HETATM    2  C2  UNL     1      -7.363  31.366  33.340  1.00  0.00     0.236 C 
HETATM    3  N1  UNL     1      -8.484  31.424  34.267  1.00  0.00    -0.051 N 
ATOM      4  H11 UNL     1      -9.306  31.850  33.839  1.00  0.00     0.279 HD
ATOM      5  H12 UNL     1      -8.326  32.107  35.008  1.00  0.00     0.279 HD
HETATM    6  C3  UNL     1      -8.782  30.094  34.811  1.00  0.00     0.467 C 
HETATM    7  N2  UNL     1      -7.671  29.667  35.591  1.00  0.00    -0.040 N 
HETATM    8  C4  UNL     1      -6.443  29.706  34.881  1.00  0.00     0.241 C 
HETATM    9  C5  UNL     1      -7.787  28.573  36.527  1.00  0.00     0.267 A 
HETATM   10  C6  UNL     1      -7.754  29.953  36.995  1.00  0.00     0.267 A 
ENDROOT
TORSDOF 0
ENDMDL
MODEL 2
REMARK VINA RESULT: -3.978358762      1.297      2.021
REMARK  0 active torsions:
REMARK  status: ('A' for Active; 'I' for Inactive)
ROOT
HETATM    1  C1  UNL     1      -8.223  30.780  34.285  1.00  0.00     0.055 C 
HETATM    2  C2  UNL     1      -6.788  30.809  33.782  1.00  0.00     0.236 C 
HETATM    3  N1  UNL     1      -6.135  29.629  34.331  1.00  0.00    -0.051 N 
ATOM      4  H11 UNL     1      -5.219  29.474  33.910  1.00  0.00     0.279 HD
ATOM      5  H12 UNL     1      -6.592  28.769  34.027  1.00  0.00     0.279 HD
HETATM    6  C3  UNL     1      -6.052  29.711  35.794  1.00  0.00     0.467 C 
HETATM    7  N2  UNL     1      -7.374  29.690  36.322  1.00  0.00    -0.040 N 
HETATM    8  C4  UNL     1      -8.214  30.688  35.763  1.00  0.00     0.241 C 
HETATM    9  C5  UNL     1      -7.621  29.411  37.717  1.00  0.00     0.267 A 
HETATM   10  C6  UNL     1      -7.868  28.396  36.701  1.00  0.00     0.267 A 
ENDROOT
TORSDOF 0
ENDMDL
MODEL 3
REMARK VINA RESULT: -3.814687834      1.235      1.382
REMARK  0 active torsions:
REMARK  status: ('A' for Active; 'I' for Inactive)
ROOT
HETATM    1  C1  UNL     1      -6.962  30.284  34.839  1.00  0.00     0.055 C 
HETATM    2  C2  UNL     1      -7.961  30.810  33.820  1.00  0.00     0.236 C 
HETATM    3  N1  UNL     1      -8.998  31.496  34.578  1.00  0.00    -0.051 N 
ATOM      4  H11 UNL     1      -9.620  32.027  33.969  1.00  0.00     0.279 HD
ATOM      5  H12 UNL     1      -8.618  32.270  35.123  1.00  0.00     0.279 HD
HETATM    6  C3  UNL     1      -9.740  30.552  35.421  1.00  0.00     0.467 C 
HETATM    7  N2  UNL     1      -8.848  30.023  36.397  1.00  0.00    -0.040 N 
HETATM    8  C4  UNL     1      -7.678  29.452  35.833  1.00  0.00     0.241 C 
HETATM    9  C5  UNL     1      -9.339  29.344  37.573  1.00  0.00     0.267 A 
HETATM   10  C6  UNL     1      -8.835  30.709  37.658  1.00  0.00     0.267 A 
ENDROOT
TORSDOF 0
ENDMDL
MODEL 4
REMARK VINA RESULT: -3.796324717      1.461      3.578
REMARK  0 active torsions:
REMARK  status: ('A' for Active; 'I' for Inactive)
ROOT
HETATM    1  C1  UNL     1      -8.619  30.613  38.215  1.00  0.00     0.055 C 
HETATM    2  C2  UNL     1      -7.779  29.388  38.543  1.00  0.00     0.236 C 
HETATM    3  N1  UNL     1      -6.867  29.202  37.422  1.00  0.00    -0.051 N 
ATOM      4  H11 UNL     1      -6.151  28.507  37.631  1.00  0.00     0.279 HD
ATOM      5  H12 UNL     1      -6.262  30.013  37.290  1.00  0.00     0.279 HD
HETATM    6  C3  UNL     1      -7.605  28.871  36.198  1.00  0.00     0.467 C 
HETATM    7  N2  UNL     1      -8.414  29.988  35.843  1.00  0.00    -0.040 N 
HETATM    8  C4  UNL     1      -9.264  30.417  36.896  1.00  0.00     0.241 C 
HETATM    9  C5  UNL     1      -8.986  30.111  34.523  1.00  0.00     0.267 A 
HETATM   10  C6  UNL     1      -7.826  30.905  34.909  1.00  0.00     0.267 A 
ENDROOT
TORSDOF 0
ENDMDL
MODEL 5
REMARK VINA RESULT: -3.765478834      1.220      1.927
REMARK  0 active torsions:
REMARK  status: ('A' for Active; 'I' for Inactive)
ROOT
HETATM    1  C1  UNL     1      -5.627  29.896  35.359  1.00  0.00     0.055 C 
HETATM    2  C2  UNL     1      -5.245  30.664  34.103  1.00  0.00     0.236 C 
HETATM    3  N1  UNL     1      -6.267  31.685  33.918  1.00  0.00    -0.051 N 
ATOM      4  H11 UNL     1      -6.002  32.357  33.198  1.00  0.00     0.279 HD
ATOM      5  H12 UNL     1      -6.312  32.321  34.714  1.00  0.00     0.279 HD
HETATM    6  C3  UNL     1      -7.571  31.074  33.638  1.00  0.00     0.467 C 
HETATM    7  N2  UNL     1      -7.979  30.337  34.786  1.00  0.00    -0.040 N 
HETATM    8  C4  UNL     1      -7.011  29.391  35.214  1.00  0.00     0.241 C 
HETATM    9  C5  UNL     1      -9.348  29.913  34.958  1.00  0.00     0.267 A 
HETATM   10  C6  UNL     1      -8.820  31.044  35.709  1.00  0.00     0.267 A 
ENDROOT
TORSDOF 0
ENDMDL
