MODEL 1
REMARK VINA RESULT: -4.191228488      0.000      0.000
REMARK  0 active torsions:
REMARK  status: ('A' for Active; 'I' for Inactive)
ROOT
HETATM    1  C1  UNL     1      -6.194  31.791  33.370  1.00  0.00     0.042 C 
HETATM    2  C2  UNL     1      -7.185  30.721  33.812  1.00  0.00     0.210 C 
HETATM    3  C3  UNL     1      -6.738  30.022  35.066  1.00  0.00     0.272 C 
HETATM    4  N1  UNL     1      -7.882  29.964  35.924  1.00  0.00    -0.038 N 
HETATM    5  C4  UNL     1      -8.237  28.776  36.626  1.00  0.00     0.267 A 
HETATM    6  C5  UNL     1      -7.615  29.938  37.325  1.00  0.00     0.267 A 
HETATM    7  C6  UNL     1      -8.917  30.767  35.357  1.00  0.00     0.468 C 
HETATM    8  N2  UNL     1      -8.408  31.408  34.177  1.00  0.00    -0.045 N 
ATOM      9  H21 UNL     1      -9.088  31.444  33.417  1.00  0.00     0.279 HD
ATOM     10  H22 UNL     1      -8.283  32.414  34.290  1.00  0.00     0.279 HD
ENDROOT
TORSDOF 0
ENDMDL
MODEL 2
REMARK VINA RESULT: -3.775555158      1.042      1.059
REMARK  0 active torsions:
REMARK  status: ('A' for Active; 'I' for Inactive)
ROOT
HETATM    1  C1  UNL     1      -4.858  31.006  34.376  1.00  0.00     0.042 C 
HETATM    2  C2  UNL     1      -6.094  30.123  34.492  1.00  0.00     0.210 C 
HETATM    3  C3  UNL     1      -6.302  29.626  35.896  1.00  0.00     0.272 C 
HETATM    4  N1  UNL     1      -7.689  29.823  36.192  1.00  0.00    -0.038 N 
HETATM    5  C4  UNL     1      -8.473  28.816  36.824  1.00  0.00     0.267 A 
HETATM    6  C5  UNL     1      -8.015  30.027  37.565  1.00  0.00     0.267 A 
HETATM    7  C6  UNL     1      -8.272  30.596  35.143  1.00  0.00     0.468 C 
HETATM    8  N2  UNL     1      -7.239  30.967  34.216  1.00  0.00    -0.045 N 
ATOM      9  H21 UNL     1      -7.542  30.924  33.243  1.00  0.00     0.279 HD
ATOM     10  H22 UNL     1      -7.018  31.962  34.241  1.00  0.00     0.279 HD
ENDROOT
TORSDOF 0
ENDMDL
MODEL 3
REMARK VINA RESULT: -3.712572857      1.277      2.825
REMARK  0 active torsions:
REMARK  status: ('A' for Active; 'I' for Inactive)
ROOT
HETATM    1  C1  UNL     1     -10.070  30.409  35.189  1.00  0.00     0.042 C 
HETATM    2  C2  UNL     1      -8.713  31.102  35.158  1.00  0.00     0.210 C 
HETATM    3  C3  UNL     1      -7.600  30.180  35.576  1.00  0.00     0.272 C 
HETATM    4  N1  UNL     1      -6.551  30.355  34.618  1.00  0.00    -0.038 N 
HETATM    5  C4  UNL     1      -5.189  30.494  35.012  1.00  0.00     0.267 A 
HETATM    6  C5  UNL     1      -5.700  29.230  34.406  1.00  0.00     0.267 A 
HETATM    7  C6  UNL     1      -7.045  31.156  33.544  1.00  0.00     0.468 C 
HETATM    8  N2  UNL     1      -8.437  31.423  33.773  1.00  0.00    -0.045 N 
ATOM      9  H21 UNL     1      -8.707  32.374  33.522  1.00  0.00     0.279 HD
ATOM     10  H22 UNL     1      -9.051  30.935  33.119  1.00  0.00     0.279 HD
ENDROOT
TORSDOF 0
ENDMDL
MODEL 4
REMARK VINA RESULT: -3.708437401      1.440      1.785
REMARK  0 active torsions:
REMARK  status: ('A' for Active; 'I' for Inactive)
ROOT
HETATM    1  C1  UNL     1      -5.455  29.879  35.225  1.00  0.00     0.042 C 
HETATM    2  C2  UNL     1      -6.927  29.504  35.337  1.00  0.00     0.210 C 
HETATM    3  C3  UNL     1      -7.417  29.562  36.758  1.00  0.00     0.272 C 
HETATM    4  N1  UNL     1      -8.666  30.260  36.726  1.00  0.00    -0.038 N 
HETATM    5  C4  UNL     1      -9.805  29.796  37.445  1.00  0.00     0.267 A 
HETATM    6  C5  UNL     1      -9.017  30.974  37.909  1.00  0.00     0.267 A 
HETATM    7  C6  UNL     1      -8.849  30.805  35.419  1.00  0.00     0.468 C 
HETATM    8  N2  UNL     1      -7.676  30.528  34.637  1.00  0.00    -0.045 N 
ATOM      9  H21 UNL     1      -7.889  30.278  33.672  1.00  0.00     0.279 HD
ATOM     10  H22 UNL     1      -7.122  31.362  34.438  1.00  0.00     0.279 HD
ENDROOT
TORSDOF 0
ENDMDL
MODEL 5
REMARK VINA RESULT: -3.565775941      1.900      2.738
REMARK  0 active torsions:
REMARK  status: ('A' for Active; 'I' for Inactive)
ROOT
HETATM    1  C1  UNL     1      -3.749  32.296  33.747  1.00  0.00     0.042 C 
HETATM    2  C2  UNL     1      -5.010  31.742  33.097  1.00  0.00     0.210 C 
HETATM    3  C3  UNL     1      -5.801  30.881  34.043  1.00  0.00     0.272 C 
HETATM    4  N1  UNL     1      -7.166  31.295  33.917  1.00  0.00    -0.038 N 
HETATM    5  C4  UNL     1      -8.230  30.353  33.812  1.00  0.00     0.267 A 
HETATM    6  C5  UNL     1      -7.985  31.115  35.071  1.00  0.00     0.267 A 
HETATM    7  C6  UNL     1      -7.211  32.479  33.122  1.00  0.00     0.468 C 
HETATM    8  N2  UNL     1      -5.866  32.874  32.809  1.00  0.00    -0.045 N 
ATOM      9  H21 UNL     1      -5.764  33.221  31.855  1.00  0.00     0.279 HD
ATOM     10  H22 UNL     1      -5.577  33.726  33.290  1.00  0.00     0.279 HD
ENDROOT
TORSDOF 0
ENDMDL
