MODEL 1
REMARK VINA RESULT: -7.947277835      0.000      0.000
REMARK  8 active torsions:
REMARK  status: ('A' for Active; 'I' for Inactive)
REMARK    1  A    between atoms: O1_1  and  N1_3 
REMARK    2  A    between atoms: N1_3  and  C1_5 
REMARK    3  A    between atoms: C1_5  and  O2_6 
REMARK    4  A    between atoms: C1_5  and  C2_8 
REMARK    5  A    between atoms: C6_12  and  N2_13 
REMARK    6  A    between atoms: C11_22  and  O3_23 
REMARK    7  A    between atoms: O3_23  and  C12_24 
REMARK    8  A    between atoms: C12_24  and  C13_25 
ROOT
HETATM    1  N2  UNL     1      47.389  51.430  35.290  1.00  0.00    -0.336 N 
HETATM    2  C7  UNL     1      46.492  52.429  35.348  1.00  0.00     0.184 A 
HETATM    3  N3  UNL     1      45.834  52.541  34.183  1.00  0.00    -0.348 N 
ATOM      4  H3  UNL     1      45.104  53.219  33.967  1.00  0.00     0.167 HD
HETATM    5  C8  UNL     1      46.305  51.612  33.362  1.00  0.00     0.102 A 
HETATM    6  C9  UNL     1      45.982  51.281  32.039  1.00  0.00     0.186 A 
HETATM    7  F1  UNL     1      45.045  51.947  31.362  1.00  0.00    -0.200 F 
HETATM    8  C10 UNL     1      46.668  50.238  31.452  1.00  0.00     0.190 A 
HETATM    9  F2  UNL     1      46.422  49.846  30.170  1.00  0.00    -0.200 F 
HETATM   10  C11 UNL     1      47.638  49.542  32.140  1.00  0.00     0.112 A 
HETATM   11  C18 UNL     1      47.957  49.872  33.452  1.00  0.00     0.072 A 
HETATM   12  C19 UNL     1      47.275  50.918  34.052  1.00  0.00     0.068 A 
ENDROOT
BRANCH   1  13
HETATM   13  C6  UNL     1      48.281  51.015  36.361  1.00  0.00     0.091 C 
HETATM   14  C5  UNL     1      49.552  51.820  36.360  1.00  0.00     0.026 C 
HETATM   15  C4  UNL     1      49.551  52.990  37.286  1.00  0.00     0.003 C 
HETATM   16  C3  UNL     1      49.384  52.563  38.751  1.00  0.00     0.013 C 
HETATM   17  C2  UNL     1      48.811  51.173  38.718  1.00  0.00     0.064 C 
HETATM   18  C20 UNL     1      47.647  51.096  37.714  1.00  0.00     0.038 C 
BRANCH  17  19
HETATM   19  C1  UNL     1      48.440  50.643  40.027  1.00  0.00     0.139 C 
BRANCH  19  20
HETATM   20  N1  UNL     1      49.095  50.861  41.074  1.00  0.00    -0.251 N 
ATOM     21  H1  UNL     1      48.648  51.514  41.718  1.00  0.00     0.196 HD
BRANCH  20  22
HETATM   22  O1  UNL     1      50.270  50.396  41.498  1.00  0.00    -0.288 OA
ATOM     23  H1  UNL     1      50.872  50.711  42.162  1.00  0.00     0.244 HD
ENDBRANCH  20  22
ENDBRANCH  19  20
BRANCH  19  24
HETATM   24  O2  UNL     1      47.276  49.847  40.069  1.00  0.00    -0.348 OA
ATOM     25  H2  UNL     1      46.568  50.001  39.455  1.00  0.00     0.219 HD
ENDBRANCH  19  24
ENDBRANCH  17  19
ENDBRANCH   1  13
BRANCH  10  26
HETATM   26  O3  UNL     1      48.306  48.512  31.539  1.00  0.00    -0.347 OA
BRANCH  26  27
HETATM   27  C12 UNL     1      49.721  48.417  31.576  1.00  0.00     0.180 C 
BRANCH  27  28
HETATM   28  C13 UNL     1      50.159  47.011  31.908  1.00  0.00     0.014 C 
HETATM   29  C14 UNL     1      51.641  46.834  31.701  1.00  0.00     0.033 C 
HETATM   30  C15 UNL     1      52.057  45.410  31.540  1.00  0.00     0.168 C 
HETATM   31  O4  UNL     1      51.346  44.738  30.554  1.00  0.00    -0.391 OA
HETATM   32  C16 UNL     1      50.398  45.550  29.943  1.00  0.00     0.168 C 
HETATM   33  C17 UNL     1      49.438  46.046  31.018  1.00  0.00     0.033 C 
ENDBRANCH  27  28
ENDBRANCH  26  27
ENDBRANCH  10  26
TORSDOF 8
ENDMDL
MODEL 2
REMARK VINA RESULT: -7.891873904      1.254      1.510
REMARK  8 active torsions:
REMARK  status: ('A' for Active; 'I' for Inactive)
REMARK    1  A    between atoms: O1_1  and  N1_3 
REMARK    2  A    between atoms: N1_3  and  C1_5 
REMARK    3  A    between atoms: C1_5  and  O2_6 
REMARK    4  A    between atoms: C1_5  and  C2_8 
REMARK    5  A    between atoms: C6_12  and  N2_13 
REMARK    6  A    between atoms: C11_22  and  O3_23 
REMARK    7  A    between atoms: O3_23  and  C12_24 
REMARK    8  A    between atoms: C12_24  and  C13_25 
ROOT
HETATM    1  N2  UNL     1      47.196  51.096  34.574  1.00  0.00    -0.336 N 
HETATM    2  C7  UNL     1      46.103  51.857  34.756  1.00  0.00     0.184 A 
HETATM    3  N3  UNL     1      45.375  51.912  33.630  1.00  0.00    -0.348 N 
ATOM      4  H3  UNL     1      44.500  52.422  33.504  1.00  0.00     0.167 HD
HETATM    5  C8  UNL     1      45.994  51.185  32.711  1.00  0.00     0.102 A 
HETATM    6  C9  UNL     1      45.682  50.899  31.375  1.00  0.00     0.186 A 
HETATM    7  F1  UNL     1      44.584  51.388  30.796  1.00  0.00    -0.200 F 
HETATM    8  C10 UNL     1      46.549  50.091  30.671  1.00  0.00     0.190 A 
HETATM    9  F2  UNL     1      46.327  49.760  29.368  1.00  0.00    -0.200 F 
HETATM   10  C11 UNL     1      47.686  49.580  31.257  1.00  0.00     0.112 A 
HETATM   11  C18 UNL     1      47.995  49.864  32.582  1.00  0.00     0.072 A 
HETATM   12  C19 UNL     1      47.131  50.675  33.300  1.00  0.00     0.068 A 
ENDROOT
BRANCH   1  13
HETATM   13  C6  UNL     1      48.215  50.808  35.571  1.00  0.00     0.091 C 
HETATM   14  C5  UNL     1      49.308  51.842  35.553  1.00  0.00     0.026 C 
HETATM   15  C4  UNL     1      49.144  52.942  36.547  1.00  0.00     0.003 C 
HETATM   16  C3  UNL     1      49.153  52.419  37.990  1.00  0.00     0.013 C 
HETATM   17  C2  UNL     1      48.852  50.947  37.902  1.00  0.00     0.064 C 
HETATM   18  C20 UNL     1      47.664  50.698  36.957  1.00  0.00     0.038 C 
BRANCH  17  19
HETATM   19  C1  UNL     1      48.671  50.291  39.194  1.00  0.00     0.139 C 
BRANCH  19  20
HETATM   20  N1  UNL     1      49.010  50.805  40.286  1.00  0.00    -0.251 N 
ATOM     21  H1  UNL     1      48.447  51.610  40.562  1.00  0.00     0.196 HD
BRANCH  20  22
HETATM   22  O1  UNL     1      49.974  50.492  41.152  1.00  0.00    -0.288 OA
ATOM     23  H1  UNL     1      50.701  49.884  41.094  1.00  0.00     0.244 HD
ENDBRANCH  20  22
ENDBRANCH  19  20
BRANCH  19  24
HETATM   24  O2  UNL     1      48.080  49.010  39.164  1.00  0.00    -0.348 OA
ATOM     25  H2  UNL     1      47.899  48.585  38.334  1.00  0.00     0.219 HD
ENDBRANCH  19  24
ENDBRANCH  17  19
ENDBRANCH   1  13
BRANCH  10  26
HETATM   26  O3  UNL     1      48.534  48.781  30.540  1.00  0.00    -0.347 OA
BRANCH  26  27
HETATM   27  C12 UNL     1      49.103  47.607  31.096  1.00  0.00     0.180 C 
BRANCH  27  28
HETATM   28  C13 UNL     1      48.835  46.409  30.218  1.00  0.00     0.014 C 
HETATM   29  C14 UNL     1      50.069  45.560  30.056  1.00  0.00     0.033 C 
HETATM   30  C15 UNL     1      50.028  44.666  28.861  1.00  0.00     0.168 C 
HETATM   31  O4  UNL     1      49.745  45.340  27.680  1.00  0.00    -0.391 OA
HETATM   32  C16 UNL     1      49.556  46.702  27.884  1.00  0.00     0.168 C 
HETATM   33  C17 UNL     1      48.401  46.877  28.863  1.00  0.00     0.033 C 
ENDBRANCH  27  28
ENDBRANCH  26  27
ENDBRANCH  10  26
TORSDOF 8
ENDMDL
MODEL 3
REMARK VINA RESULT: -7.665179165      3.741      7.272
REMARK  8 active torsions:
REMARK  status: ('A' for Active; 'I' for Inactive)
REMARK    1  A    between atoms: O1_1  and  N1_3 
REMARK    2  A    between atoms: N1_3  and  C1_5 
REMARK    3  A    between atoms: C1_5  and  O2_6 
REMARK    4  A    between atoms: C1_5  and  C2_8 
REMARK    5  A    between atoms: C6_12  and  N2_13 
REMARK    6  A    between atoms: C11_22  and  O3_23 
REMARK    7  A    between atoms: O3_23  and  C12_24 
REMARK    8  A    between atoms: C12_24  and  C13_25 
ROOT
HETATM    1  N2  UNL     1      47.502  50.346  29.599  1.00  0.00    -0.336 N 
HETATM    2  C7  UNL     1      47.790  49.775  28.417  1.00  0.00     0.184 A 
HETATM    3  N3  UNL     1      48.345  48.567  28.599  1.00  0.00    -0.348 N 
ATOM      4  H3  UNL     1      48.654  47.930  27.865  1.00  0.00     0.167 HD
HETATM    5  C8  UNL     1      48.419  48.348  29.905  1.00  0.00     0.102 A 
HETATM    6  C9  UNL     1      48.905  47.263  30.646  1.00  0.00     0.186 A 
HETATM    7  F1  UNL     1      49.417  46.185  30.051  1.00  0.00    -0.200 F 
HETATM    8  C10 UNL     1      48.839  47.344  32.021  1.00  0.00     0.190 A 
HETATM    9  F2  UNL     1      49.287  46.338  32.824  1.00  0.00    -0.200 F 
HETATM   10  C11 UNL     1      48.313  48.452  32.649  1.00  0.00     0.112 A 
HETATM   11  C18 UNL     1      47.831  49.527  31.912  1.00  0.00     0.072 A 
HETATM   12  C19 UNL     1      47.893  49.458  30.529  1.00  0.00     0.068 A 
ENDROOT
BRANCH   1  13
HETATM   13  C6  UNL     1      46.893  51.652  29.795  1.00  0.00     0.091 C 
HETATM   14  C5  UNL     1      45.430  51.532  30.122  1.00  0.00     0.026 C 
HETATM   15  C4  UNL     1      45.112  51.553  31.580  1.00  0.00     0.003 C 
HETATM   16  C3  UNL     1      45.532  52.872  32.241  1.00  0.00     0.013 C 
HETATM   17  C2  UNL     1      46.535  53.502  31.314  1.00  0.00     0.064 C 
HETATM   18  C20 UNL     1      47.570  52.460  30.856  1.00  0.00     0.038 C 
BRANCH  17  19
HETATM   19  C1  UNL     1      47.169  54.708  31.841  1.00  0.00     0.139 C 
BRANCH  19  20
HETATM   20  N1  UNL     1      47.006  55.849  31.348  1.00  0.00    -0.251 N 
ATOM     21  H1  UNL     1      46.833  55.849  30.343  1.00  0.00     0.196 HD
BRANCH  20  22
HETATM   22  O1  UNL     1      47.020  57.062  31.900  1.00  0.00    -0.288 OA
ATOM     23  H1  UNL     1      46.665  57.893  31.606  1.00  0.00     0.244 HD
ENDBRANCH  20  22
ENDBRANCH  19  20
BRANCH  19  24
HETATM   24  O2  UNL     1      48.002  54.531  32.967  1.00  0.00    -0.348 OA
ATOM     25  H2  UNL     1      48.946  54.595  32.879  1.00  0.00     0.219 HD
ENDBRANCH  19  24
ENDBRANCH  17  19
ENDBRANCH   1  13
BRANCH  10  26
HETATM   26  O3  UNL     1      48.257  48.511  34.014  1.00  0.00    -0.347 OA
BRANCH  26  27
HETATM   27  C12 UNL     1      47.361  49.380  34.688  1.00  0.00     0.180 C 
BRANCH  27  28
HETATM   28  C13 UNL     1      48.108  50.487  35.390  1.00  0.00     0.014 C 
HETATM   29  C14 UNL     1      48.037  50.334  36.887  1.00  0.00     0.033 C 
HETATM   30  C15 UNL     1      48.317  51.597  37.633  1.00  0.00     0.168 C 
HETATM   31  O4  UNL     1      47.532  52.665  37.216  1.00  0.00    -0.391 OA
HETATM   32  C16 UNL     1      46.665  52.312  36.190  1.00  0.00     0.168 C 
HETATM   33  C17 UNL     1      47.500  51.805  35.020  1.00  0.00     0.033 C 
ENDBRANCH  27  28
ENDBRANCH  26  27
ENDBRANCH  10  26
TORSDOF 8
ENDMDL
MODEL 4
REMARK VINA RESULT: -7.625127139      4.274      6.225
REMARK  8 active torsions:
REMARK  status: ('A' for Active; 'I' for Inactive)
REMARK    1  A    between atoms: O1_1  and  N1_3 
REMARK    2  A    between atoms: N1_3  and  C1_5 
REMARK    3  A    between atoms: C1_5  and  O2_6 
REMARK    4  A    between atoms: C1_5  and  C2_8 
REMARK    5  A    between atoms: C6_12  and  N2_13 
REMARK    6  A    between atoms: C11_22  and  O3_23 
REMARK    7  A    between atoms: O3_23  and  C12_24 
REMARK    8  A    between atoms: C12_24  and  C13_25 
ROOT
HETATM    1  N2  UNL     1      48.821  51.598  33.764  1.00  0.00    -0.336 N 
HETATM    2  C7  UNL     1      48.628  52.400  34.825  1.00  0.00     0.184 A 
HETATM    3  N3  UNL     1      49.754  52.504  35.548  1.00  0.00    -0.348 N 
ATOM      4  H3  UNL     1      49.873  53.052  36.400  1.00  0.00     0.167 HD
HETATM    5  C8  UNL     1      50.684  51.767  34.957  1.00  0.00     0.102 A 
HETATM    6  C9  UNL     1      52.025  51.518  35.278  1.00  0.00     0.186 A 
HETATM    7  F1  UNL     1      52.597  52.060  36.355  1.00  0.00    -0.200 F 
HETATM    8  C10 UNL     1      52.742  50.688  34.442  1.00  0.00     0.190 A 
HETATM    9  F2  UNL     1      54.051  50.388  34.676  1.00  0.00    -0.200 F 
HETATM   10  C11 UNL     1      52.163  50.121  33.328  1.00  0.00     0.112 A 
HETATM   11  C18 UNL     1      50.833  50.369  33.010  1.00  0.00     0.072 A 
HETATM   12  C19 UNL     1      50.103  51.202  33.843  1.00  0.00     0.068 A 
ENDROOT
BRANCH   1  13
HETATM   13  C6  UNL     1      47.828  51.253  32.758  1.00  0.00     0.091 C 
HETATM   14  C5  UNL     1      46.911  50.163  33.244  1.00  0.00     0.026 C 
HETATM   15  C4  UNL     1      45.630  50.643  33.839  1.00  0.00     0.003 C 
HETATM   16  C3  UNL     1      44.780  51.419  32.824  1.00  0.00     0.013 C 
HETATM   17  C2  UNL     1      45.718  51.835  31.725  1.00  0.00     0.064 C 
HETATM   18  C20 UNL     1      47.010  52.425  32.317  1.00  0.00     0.038 C 
BRANCH  17  19
HETATM   19  C1  UNL     1      45.122  52.718  30.726  1.00  0.00     0.139 C 
BRANCH  19  20
HETATM   20  N1  UNL     1      45.017  53.959  30.871  1.00  0.00    -0.251 N 
ATOM     21  H1  UNL     1      45.904  54.460  30.831  1.00  0.00     0.196 HD
BRANCH  20  22
HETATM   22  O1  UNL     1      43.957  54.741  31.069  1.00  0.00    -0.288 OA
ATOM     23  H1  UNL     1      43.831  55.509  31.614  1.00  0.00     0.244 HD
ENDBRANCH  20  22
ENDBRANCH  19  20
BRANCH  19  24
HETATM   24  O2  UNL     1      44.649  52.097  29.550  1.00  0.00    -0.348 OA
ATOM     25  H2  UNL     1      43.900  51.513  29.584  1.00  0.00     0.219 HD
ENDBRANCH  19  24
ENDBRANCH  17  19
ENDBRANCH   1  13
BRANCH  10  26
HETATM   26  O3  UNL     1      52.893  49.300  32.513  1.00  0.00    -0.347 OA
BRANCH  26  27
HETATM   27  C12 UNL     1      52.271  48.395  31.615  1.00  0.00     0.180 C 
BRANCH  27  28
HETATM   28  C13 UNL     1      52.261  46.996  32.181  1.00  0.00     0.014 C 
HETATM   29  C14 UNL     1      53.543  46.268  31.872  1.00  0.00     0.033 C 
HETATM   30  C15 UNL     1      53.427  44.783  31.963  1.00  0.00     0.168 C 
HETATM   31  O4  UNL     1      52.381  44.267  31.207  1.00  0.00    -0.391 OA
HETATM   32  C16 UNL     1      51.675  45.260  30.539  1.00  0.00     0.168 C 
HETATM   33  C17 UNL     1      51.124  46.228  31.580  1.00  0.00     0.033 C 
ENDBRANCH  27  28
ENDBRANCH  26  27
ENDBRANCH  10  26
TORSDOF 8
ENDMDL
MODEL 5
REMARK VINA RESULT: -7.564464624      4.525      6.519
REMARK  8 active torsions:
REMARK  status: ('A' for Active; 'I' for Inactive)
REMARK    1  A    between atoms: O1_1  and  N1_3 
REMARK    2  A    between atoms: N1_3  and  C1_5 
REMARK    3  A    between atoms: C1_5  and  O2_6 
REMARK    4  A    between atoms: C1_5  and  C2_8 
REMARK    5  A    between atoms: C6_12  and  N2_13 
REMARK    6  A    between atoms: C11_22  and  O3_23 
REMARK    7  A    between atoms: O3_23  and  C12_24 
REMARK    8  A    between atoms: C12_24  and  C13_25 
ROOT
HETATM    1  N2  UNL     1      48.772  51.635  33.864  1.00  0.00    -0.336 N 
HETATM    2  C7  UNL     1      48.527  52.359  34.969  1.00  0.00     0.184 A 
HETATM    3  N3  UNL     1      49.644  52.495  35.701  1.00  0.00    -0.348 N 
ATOM      4  H3  UNL     1      49.727  52.999  36.583  1.00  0.00     0.167 HD
HETATM    5  C8  UNL     1      50.621  51.857  35.071  1.00  0.00     0.102 A 
HETATM    6  C9  UNL     1      51.976  51.679  35.381  1.00  0.00     0.186 A 
HETATM    7  F1  UNL     1      52.511  52.195  36.489  1.00  0.00    -0.200 F 
HETATM    8  C10 UNL     1      52.746  50.949  34.500  1.00  0.00     0.190 A 
HETATM    9  F2  UNL     1      54.072  50.724  34.720  1.00  0.00    -0.200 F 
HETATM   10  C11 UNL     1      52.206  50.411  33.353  1.00  0.00     0.112 A 
HETATM   11  C18 UNL     1      50.862  50.589  33.046  1.00  0.00     0.072 A 
HETATM   12  C19 UNL     1      50.078  51.321  33.924  1.00  0.00     0.068 A 
ENDROOT
BRANCH   1  13
HETATM   13  C6  UNL     1      47.804  51.284  32.836  1.00  0.00     0.091 C 
HETATM   14  C5  UNL     1      46.894  50.177  33.295  1.00  0.00     0.026 C 
HETATM   15  C4  UNL     1      45.596  50.633  33.870  1.00  0.00     0.003 C 
HETATM   16  C3  UNL     1      44.753  51.404  32.845  1.00  0.00     0.013 C 
HETATM   17  C2  UNL     1      45.706  51.844  31.767  1.00  0.00     0.064 C 
HETATM   18  C20 UNL     1      46.978  52.447  32.389  1.00  0.00     0.038 C 
BRANCH  17  19
HETATM   19  C1  UNL     1      45.116  52.726  30.765  1.00  0.00     0.139 C 
BRANCH  19  20
HETATM   20  N1  UNL     1      45.007  53.967  30.910  1.00  0.00    -0.251 N 
ATOM     21  H1  UNL     1      45.898  54.463  30.943  1.00  0.00     0.196 HD
BRANCH  20  22
HETATM   22  O1  UNL     1      43.940  54.755  31.030  1.00  0.00    -0.288 OA
ATOM     23  H1  UNL     1      43.773  55.642  30.732  1.00  0.00     0.244 HD
ENDBRANCH  20  22
ENDBRANCH  19  20
BRANCH  19  24
HETATM   24  O2  UNL     1      44.653  52.105  29.584  1.00  0.00    -0.348 OA
ATOM     25  H2  UNL     1      45.254  51.616  29.034  1.00  0.00     0.219 HD
ENDBRANCH  19  24
ENDBRANCH  17  19
ENDBRANCH   1  13
BRANCH  10  26
HETATM   26  O3  UNL     1      52.987  49.690  32.494  1.00  0.00    -0.347 OA
BRANCH  26  27
HETATM   27  C12 UNL     1      52.699  48.338  32.178  1.00  0.00     0.180 C 
BRANCH  27  28
HETATM   28  C13 UNL     1      53.566  47.399  32.980  1.00  0.00     0.014 C 
HETATM   29  C14 UNL     1      54.927  47.991  33.236  1.00  0.00     0.033 C 
HETATM   30  C15 UNL     1      55.967  46.978  33.582  1.00  0.00     0.168 C 
HETATM   31  O4  UNL     1      56.054  45.945  32.657  1.00  0.00    -0.391 OA
HETATM   32  C16 UNL     1      55.143  46.090  31.618  1.00  0.00     0.168 C 
HETATM   33  C17 UNL     1      53.743  46.120  32.220  1.00  0.00     0.033 C 
ENDBRANCH  27  28
ENDBRANCH  26  27
ENDBRANCH  10  26
TORSDOF 8
ENDMDL
