MODEL 1
REMARK VINA RESULT: -7.172531485      0.000      0.000
REMARK  8 active torsions:
REMARK  status: ('A' for Active; 'I' for Inactive)
REMARK    1  A    between atoms: C2_2  and  O1_3 
REMARK    2  A    between atoms: O1_3  and  C3_4 
REMARK    3  A    between atoms: C3_4  and  C4_6 
REMARK    4  A    between atoms: C5_7  and  N1_8 
REMARK       I    between atoms: N1_8  and  C6_10 
REMARK    5  A    between atoms: C6_10  and  C7_12 
REMARK    6  A    between atoms: C7_12  and  O4_13 
REMARK    7  A    between atoms: O4_13  and  C8_14 
REMARK       I    between atoms: C8_14  and  N2_16 
REMARK    8  A    between atoms: N2_16  and  C9_18 
ROOT
HETATM    1  N1  UNL     1      53.748  51.968  36.177  1.00  0.00    -0.319 N 
ATOM      2  H1  UNL     1      53.379  51.701  37.089  1.00  0.00     0.169 HD
HETATM    3  C6  UNL     1      52.907  52.237  35.071  1.00  0.00     0.246 C 
HETATM    4  O3  UNL     1      53.361  52.551  33.975  1.00  0.00    -0.271 OA
ENDROOT
BRANCH   1   5
HETATM    5  C5  UNL     1      55.175  52.098  35.925  1.00  0.00     0.094 A 
HETATM    6  C4  UNL     1      56.116  51.171  35.585  1.00  0.00     0.080 A 
HETATM    7  C12 UNL     1      57.393  51.618  35.441  1.00  0.00    -0.030 A 
HETATM    8  C10 UNL     1      57.610  52.946  35.649  1.00  0.00    -0.012 A 
HETATM    9  C13 UNL     1      58.553  50.713  35.044  1.00  0.00     0.050 C 
HETATM   10  S1  UNL     1      56.084  53.566  36.033  1.00  0.00    -0.076 SA
HETATM   11  C11 UNL     1      58.924  53.694  35.566  1.00  0.00     0.057 C 
BRANCH   6  12
HETATM   12  C3  UNL     1      55.742  49.725  35.372  1.00  0.00     0.296 C 
HETATM   13  O2  UNL     1      54.907  49.405  34.472  1.00  0.00    -0.259 OA
BRANCH  12  14
HETATM   14  O1  UNL     1      56.257  48.717  36.106  1.00  0.00    -0.318 OA
BRANCH  14  15
HETATM   15  C2  UNL     1      56.760  47.503  35.623  1.00  0.00     0.174 C 
HETATM   16  C1  UNL     1      57.284  46.625  36.739  1.00  0.00     0.034 C 
ENDBRANCH  14  15
ENDBRANCH  12  14
ENDBRANCH   6  12
ENDBRANCH   1   5
BRANCH   3  17
HETATM   17  C7  UNL     1      51.431  52.130  35.248  1.00  0.00     0.283 C 
BRANCH  17  18
HETATM   18  O4  UNL     1      50.997  53.012  36.259  1.00  0.00    -0.295 OA
BRANCH  18  19
HETATM   19  C8  UNL     1      49.984  52.704  37.150  1.00  0.00     0.364 C 
HETATM   20  O5  UNL     1      49.415  53.698  37.702  1.00  0.00    -0.238 OA
HETATM   21  N2  UNL     1      49.627  51.363  37.412  1.00  0.00    -0.288 N 
ATOM     22  H2  UNL     1      50.153  50.639  36.920  1.00  0.00     0.169 HD
BRANCH  21  23
HETATM   23  C9  UNL     1      48.604  50.930  38.296  1.00  0.00     0.271 C 
HETATM   24 CL1  UNL     1      48.616  49.127  38.349  1.00  0.00    -0.060 Cl
HETATM   25 CL2  UNL     1      48.913  51.538  39.962  1.00  0.00    -0.060 Cl
HETATM   26 CL3  UNL     1      47.010  51.481  37.737  1.00  0.00    -0.060 Cl
ENDBRANCH  21  23
ENDBRANCH  18  19
ENDBRANCH  17  18
ENDBRANCH   3  17
TORSDOF 8
ENDMDL
MODEL 2
REMARK VINA RESULT: -7.124906825      4.327      8.131
REMARK  8 active torsions:
REMARK  status: ('A' for Active; 'I' for Inactive)
REMARK    1  A    between atoms: C2_2  and  O1_3 
REMARK    2  A    between atoms: O1_3  and  C3_4 
REMARK    3  A    between atoms: C3_4  and  C4_6 
REMARK    4  A    between atoms: C5_7  and  N1_8 
REMARK       I    between atoms: N1_8  and  C6_10 
REMARK    5  A    between atoms: C6_10  and  C7_12 
REMARK    6  A    between atoms: C7_12  and  O4_13 
REMARK    7  A    between atoms: O4_13  and  C8_14 
REMARK       I    between atoms: C8_14  and  N2_16 
REMARK    8  A    between atoms: N2_16  and  C9_18 
ROOT
HETATM    1  N1  UNL     1      51.544  51.339  35.949  1.00  0.00    -0.319 N 
ATOM      2  H1  UNL     1      51.797  50.576  36.577  1.00  0.00     0.169 HD
HETATM    3  C6  UNL     1      52.503  52.241  35.431  1.00  0.00     0.246 C 
HETATM    4  O3  UNL     1      52.187  53.161  34.682  1.00  0.00    -0.271 OA
ENDROOT
BRANCH   1   5
HETATM    5  C5  UNL     1      50.171  51.572  35.526  1.00  0.00     0.094 A 
HETATM    6  C4  UNL     1      49.095  52.071  36.198  1.00  0.00     0.080 A 
HETATM    7  C12 UNL     1      47.922  52.143  35.513  1.00  0.00    -0.030 A 
HETATM    8  C10 UNL     1      47.934  51.711  34.222  1.00  0.00    -0.012 A 
HETATM    9  C13 UNL     1      46.636  52.695  36.115  1.00  0.00     0.050 C 
HETATM   10  S1  UNL     1      49.531  51.218  33.958  1.00  0.00    -0.076 SA
HETATM   11  C11 UNL     1      46.775  51.671  33.247  1.00  0.00     0.057 C 
BRANCH   6  12
HETATM   12  C3  UNL     1      49.217  52.528  37.632  1.00  0.00     0.296 C 
HETATM   13  O2  UNL     1      49.607  53.705  37.898  1.00  0.00    -0.259 OA
BRANCH  12  14
HETATM   14  O1  UNL     1      48.930  51.731  38.683  1.00  0.00    -0.318 OA
BRANCH  14  15
HETATM   15  C2  UNL     1      48.354  50.457  38.633  1.00  0.00     0.174 C 
HETATM   16  C1  UNL     1      47.960  49.960  40.007  1.00  0.00     0.034 C 
ENDBRANCH  14  15
ENDBRANCH  12  14
ENDBRANCH   6  12
ENDBRANCH   1   5
BRANCH   3  17
HETATM   17  C7  UNL     1      53.933  52.068  35.815  1.00  0.00     0.283 C 
BRANCH  17  18
HETATM   18  O4  UNL     1      54.199  50.713  36.101  1.00  0.00    -0.295 OA
BRANCH  18  19
HETATM   19  C8  UNL     1      55.216  49.996  35.497  1.00  0.00     0.364 C 
HETATM   20  O5  UNL     1      55.569  50.403  34.346  1.00  0.00    -0.238 OA
HETATM   21  N2  UNL     1      55.806  48.886  36.142  1.00  0.00    -0.288 N 
ATOM     22  H2  UNL     1      55.444  48.638  37.063  1.00  0.00     0.169 HD
BRANCH  21  23
HETATM   23  C9  UNL     1      56.858  48.085  35.625  1.00  0.00     0.271 C 
HETATM   24 CL1  UNL     1      57.201  46.760  36.801  1.00  0.00    -0.060 Cl
HETATM   25 CL2  UNL     1      56.366  47.330  34.066  1.00  0.00    -0.060 Cl
HETATM   26 CL3  UNL     1      58.332  49.048  35.393  1.00  0.00    -0.060 Cl
ENDBRANCH  21  23
ENDBRANCH  18  19
ENDBRANCH  17  18
ENDBRANCH   3  17
TORSDOF 8
ENDMDL
MODEL 3
REMARK VINA RESULT: -7.066809152      4.351      8.136
REMARK  8 active torsions:
REMARK  status: ('A' for Active; 'I' for Inactive)
REMARK    1  A    between atoms: C2_2  and  O1_3 
REMARK    2  A    between atoms: O1_3  and  C3_4 
REMARK    3  A    between atoms: C3_4  and  C4_6 
REMARK    4  A    between atoms: C5_7  and  N1_8 
REMARK       I    between atoms: N1_8  and  C6_10 
REMARK    5  A    between atoms: C6_10  and  C7_12 
REMARK    6  A    between atoms: C7_12  and  O4_13 
REMARK    7  A    between atoms: O4_13  and  C8_14 
REMARK       I    between atoms: C8_14  and  N2_16 
REMARK    8  A    between atoms: N2_16  and  C9_18 
ROOT
HETATM    1  N1  UNL     1      51.519  51.328  35.957  1.00  0.00    -0.319 N 
ATOM      2  H1  UNL     1      51.780  50.592  36.613  1.00  0.00     0.169 HD
HETATM    3  C6  UNL     1      52.472  52.206  35.388  1.00  0.00     0.246 C 
HETATM    4  O3  UNL     1      52.147  53.093  34.605  1.00  0.00    -0.271 OA
ENDROOT
BRANCH   1   5
HETATM    5  C5  UNL     1      50.141  51.547  35.543  1.00  0.00     0.094 A 
HETATM    6  C4  UNL     1      49.066  52.041  36.221  1.00  0.00     0.080 A 
HETATM    7  C12 UNL     1      47.887  52.098  35.545  1.00  0.00    -0.030 A 
HETATM    8  C10 UNL     1      47.892  51.656  34.257  1.00  0.00    -0.012 A 
HETATM    9  C13 UNL     1      46.601  52.644  36.154  1.00  0.00     0.050 C 
HETATM   10  S1  UNL     1      49.490  51.175  33.984  1.00  0.00    -0.076 SA
HETATM   11  C11 UNL     1      46.725  51.599  33.293  1.00  0.00     0.057 C 
BRANCH   6  12
HETATM   12  C3  UNL     1      49.196  52.510  37.650  1.00  0.00     0.296 C 
HETATM   13  O2  UNL     1      49.602  53.684  37.905  1.00  0.00    -0.259 OA
BRANCH  12  14
HETATM   14  O1  UNL     1      48.899  51.728  38.709  1.00  0.00    -0.318 OA
BRANCH  14  15
HETATM   15  C2  UNL     1      48.367  50.434  38.669  1.00  0.00     0.174 C 
HETATM   16  C1  UNL     1      47.944  49.954  40.041  1.00  0.00     0.034 C 
ENDBRANCH  14  15
ENDBRANCH  12  14
ENDBRANCH   6  12
ENDBRANCH   1   5
BRANCH   3  17
HETATM   17  C7  UNL     1      53.907  52.046  35.758  1.00  0.00     0.283 C 
BRANCH  17  18
HETATM   18  O4  UNL     1      54.185  50.695  36.056  1.00  0.00    -0.295 OA
BRANCH  18  19
HETATM   19  C8  UNL     1      55.200  49.978  35.450  1.00  0.00     0.364 C 
HETATM   20  O5  UNL     1      55.541  50.375  34.292  1.00  0.00    -0.238 OA
HETATM   21  N2  UNL     1      55.803  48.878  36.101  1.00  0.00    -0.288 N 
ATOM     22  H2  UNL     1      55.450  48.638  37.028  1.00  0.00     0.169 HD
BRANCH  21  23
HETATM   23  C9  UNL     1      56.854  48.078  35.582  1.00  0.00     0.271 C 
HETATM   24 CL1  UNL     1      58.321  49.110  35.394  1.00  0.00    -0.060 Cl
HETATM   25 CL2  UNL     1      57.255  46.746  36.725  1.00  0.00    -0.060 Cl
HETATM   26 CL3  UNL     1      56.414  47.404  33.998  1.00  0.00    -0.060 Cl
ENDBRANCH  21  23
ENDBRANCH  18  19
ENDBRANCH  17  18
ENDBRANCH   3  17
TORSDOF 8
ENDMDL
MODEL 4
REMARK VINA RESULT: -7.059503831      4.326      8.131
REMARK  8 active torsions:
REMARK  status: ('A' for Active; 'I' for Inactive)
REMARK    1  A    between atoms: C2_2  and  O1_3 
REMARK    2  A    between atoms: O1_3  and  C3_4 
REMARK    3  A    between atoms: C3_4  and  C4_6 
REMARK    4  A    between atoms: C5_7  and  N1_8 
REMARK       I    between atoms: N1_8  and  C6_10 
REMARK    5  A    between atoms: C6_10  and  C7_12 
REMARK    6  A    between atoms: C7_12  and  O4_13 
REMARK    7  A    between atoms: O4_13  and  C8_14 
REMARK       I    between atoms: C8_14  and  N2_16 
REMARK    8  A    between atoms: N2_16  and  C9_18 
ROOT
HETATM    1  N1  UNL     1      51.524  51.343  35.952  1.00  0.00    -0.319 N 
ATOM      2  H1  UNL     1      51.789  50.617  36.618  1.00  0.00     0.169 HD
HETATM    3  C6  UNL     1      52.474  52.216  35.371  1.00  0.00     0.246 C 
HETATM    4  O3  UNL     1      52.145  53.092  34.576  1.00  0.00    -0.271 OA
ENDROOT
BRANCH   1   5
HETATM    5  C5  UNL     1      50.145  51.550  35.536  1.00  0.00     0.094 A 
HETATM    6  C4  UNL     1      49.065  52.035  36.213  1.00  0.00     0.080 A 
HETATM    7  C12 UNL     1      47.887  52.082  35.535  1.00  0.00    -0.030 A 
HETATM    8  C10 UNL     1      47.898  51.642  34.246  1.00  0.00    -0.012 A 
HETATM    9  C13 UNL     1      46.596  52.616  36.142  1.00  0.00     0.050 C 
HETATM   10  S1  UNL     1      49.501  51.175  33.976  1.00  0.00    -0.076 SA
HETATM   11  C11 UNL     1      46.734  51.575  33.280  1.00  0.00     0.057 C 
BRANCH   6  12
HETATM   12  C3  UNL     1      49.189  52.503  37.642  1.00  0.00     0.296 C 
HETATM   13  O2  UNL     1      49.558  53.689  37.898  1.00  0.00    -0.259 OA
BRANCH  12  14
HETATM   14  O1  UNL     1      48.925  51.708  38.701  1.00  0.00    -0.318 OA
BRANCH  14  15
HETATM   15  C2  UNL     1      48.362  50.427  38.664  1.00  0.00     0.174 C 
HETATM   16  C1  UNL     1      47.910  49.969  40.034  1.00  0.00     0.034 C 
ENDBRANCH  14  15
ENDBRANCH  12  14
ENDBRANCH   6  12
ENDBRANCH   1   5
BRANCH   3  17
HETATM   17  C7  UNL     1      53.909  52.067  35.742  1.00  0.00     0.283 C 
BRANCH  17  18
HETATM   18  O4  UNL     1      54.190  50.724  36.069  1.00  0.00    -0.295 OA
BRANCH  18  19
HETATM   19  C8  UNL     1      55.210  49.998  35.481  1.00  0.00     0.364 C 
HETATM   20  O5  UNL     1      55.576  50.393  34.330  1.00  0.00    -0.238 OA
HETATM   21  N2  UNL     1      55.789  48.890  36.141  1.00  0.00    -0.288 N 
ATOM     22  H2  UNL     1      55.417  48.652  37.060  1.00  0.00     0.169 HD
BRANCH  21  23
HETATM   23  C9  UNL     1      56.842  48.080  35.640  1.00  0.00     0.271 C 
HETATM   24 CL1  UNL     1      56.332  47.396  34.051  1.00  0.00    -0.060 Cl
HETATM   25 CL2  UNL     1      58.323  49.068  35.370  1.00  0.00    -0.060 Cl
HETATM   26 CL3  UNL     1      57.200  46.746  36.756  1.00  0.00    -0.060 Cl
ENDBRANCH  21  23
ENDBRANCH  18  19
ENDBRANCH  17  18
ENDBRANCH   3  17
TORSDOF 8
ENDMDL
MODEL 5
REMARK VINA RESULT: -7.055182585      0.748      1.420
REMARK  8 active torsions:
REMARK  status: ('A' for Active; 'I' for Inactive)
REMARK    1  A    between atoms: C2_2  and  O1_3 
REMARK    2  A    between atoms: O1_3  and  C3_4 
REMARK    3  A    between atoms: C3_4  and  C4_6 
REMARK    4  A    between atoms: C5_7  and  N1_8 
REMARK       I    between atoms: N1_8  and  C6_10 
REMARK    5  A    between atoms: C6_10  and  C7_12 
REMARK    6  A    between atoms: C7_12  and  O4_13 
REMARK    7  A    between atoms: O4_13  and  C8_14 
REMARK       I    between atoms: C8_14  and  N2_16 
REMARK    8  A    between atoms: N2_16  and  C9_18 
ROOT
HETATM    1  N1  UNL     1      53.785  52.216  36.210  1.00  0.00    -0.319 N 
ATOM      2  H1  UNL     1      53.408  52.051  37.144  1.00  0.00     0.169 HD
HETATM    3  C6  UNL     1      52.957  52.313  35.067  1.00  0.00     0.246 C 
HETATM    4  O3  UNL     1      53.421  52.504  33.947  1.00  0.00    -0.271 OA
ENDROOT
BRANCH   1   5
HETATM    5  C5  UNL     1      55.212  52.368  35.965  1.00  0.00     0.094 A 
HETATM    6  C4  UNL     1      56.185  51.445  35.720  1.00  0.00     0.080 A 
HETATM    7  C12 UNL     1      57.450  51.918  35.553  1.00  0.00    -0.030 A 
HETATM    8  C10 UNL     1      57.623  53.265  35.646  1.00  0.00    -0.012 A 
HETATM    9  C13 UNL     1      58.643  51.019  35.251  1.00  0.00     0.050 C 
HETATM   10  S1  UNL     1      56.074  53.868  35.955  1.00  0.00    -0.076 SA
HETATM   11  C11 UNL     1      58.916  54.044  35.513  1.00  0.00     0.057 C 
BRANCH   6  12
HETATM   12  C3  UNL     1      55.858  49.975  35.630  1.00  0.00     0.296 C 
HETATM   13  O2  UNL     1      55.428  49.350  36.647  1.00  0.00    -0.259 OA
BRANCH  12  14
HETATM   14  O1  UNL     1      56.004  49.258  34.496  1.00  0.00    -0.318 OA
BRANCH  14  15
HETATM   15  C2  UNL     1      56.612  48.004  34.373  1.00  0.00     0.174 C 
HETATM   16  C1  UNL     1      55.716  47.008  33.669  1.00  0.00     0.034 C 
ENDBRANCH  14  15
ENDBRANCH  12  14
ENDBRANCH   6  12
ENDBRANCH   1   5
BRANCH   3  17
HETATM   17  C7  UNL     1      51.483  52.172  35.234  1.00  0.00     0.283 C 
BRANCH  17  18
HETATM   18  O4  UNL     1      51.019  53.056  36.230  1.00  0.00    -0.295 OA
BRANCH  18  19
HETATM   19  C8  UNL     1      50.017  52.730  37.126  1.00  0.00     0.364 C 
HETATM   20  O5  UNL     1      49.460  53.712  37.711  1.00  0.00    -0.238 OA
HETATM   21  N2  UNL     1      49.656  51.384  37.357  1.00  0.00    -0.288 N 
ATOM     22  H2  UNL     1      50.171  50.671  36.840  1.00  0.00     0.169 HD
BRANCH  21  23
HETATM   23  C9  UNL     1      48.642  50.934  38.243  1.00  0.00     0.271 C 
HETATM   24 CL1  UNL     1      47.049  51.520  37.635  1.00  0.00    -0.060 Cl
HETATM   25 CL2  UNL     1      48.594  49.134  38.283  1.00  0.00    -0.060 Cl
HETATM   26 CL3  UNL     1      48.905  51.569  39.881  1.00  0.00    -0.060 Cl
ENDBRANCH  21  23
ENDBRANCH  18  19
ENDBRANCH  17  18
ENDBRANCH   3  17
TORSDOF 8
ENDMDL
