MODEL 1
REMARK VINA RESULT: -7.024544634      0.000      0.000
REMARK  5 active torsions:
REMARK  status: ('A' for Active; 'I' for Inactive)
REMARK    1  A    between atoms: C2_2  and  C3_3 
REMARK    2  A    between atoms: C3_3  and  N1_4 
REMARK    3  A    between atoms: C10_18  and  C11_19 
REMARK    4  A    between atoms: C13_21  and  O1_22 
REMARK    5  A    between atoms: O1_22  and  C14_23 
ROOT
HETATM    1  N1  UNL     1      46.893  50.693  34.049  1.00  0.00    -0.345 N 
HETATM    2  C4  UNL     1      47.131  49.448  33.396  1.00  0.00     0.194 C 
HETATM    3  C5  UNL     1      47.385  48.425  34.406  1.00  0.00     0.084 C 
HETATM    4  N2  UNL     1      47.586  47.615  35.199  1.00  0.00    -0.195 NA
HETATM    5  C6  UNL     1      48.466  49.691  32.642  1.00  0.00     0.050 C 
HETATM    6  C7  UNL     1      49.148  50.492  33.718  1.00  0.00     0.053 C 
HETATM    7  C8  UNL     1      50.469  51.027  33.383  1.00  0.00     0.091 C 
HETATM    8  S1  UNL     1      50.429  52.427  32.245  1.00  0.00    -0.094 SA
HETATM    9  C9  UNL     1      48.829  53.202  32.538  1.00  0.00     0.135 C 
HETATM   10  N3  UNL     1      48.471  54.193  31.789  1.00  0.00    -0.380 N 
ATOM     11  H31 UNL     1      47.565  54.632  31.956  1.00  0.00     0.158 HD
ATOM     12  H32 UNL     1      49.059  54.558  31.040  1.00  0.00     0.158 HD
HETATM   13  N4  UNL     1      48.011  52.694  33.582  1.00  0.00    -0.340 N 
ATOM     14  H4  UNL     1      47.286  53.321  33.930  1.00  0.00     0.164 HD
HETATM   15  C10 UNL     1      48.083  51.417  34.199  1.00  0.00     0.148 C 
ENDROOT
BRANCH   1  16
HETATM   16  C3  UNL     1      45.635  51.279  34.005  1.00  0.00     0.062 C 
BRANCH  16  17
HETATM   17  C2  UNL     1      44.806  51.080  32.766  1.00  0.00     0.040 C 
HETATM   18  C1  UNL     1      45.272  51.946  31.600  1.00  0.00     0.010 C 
ENDBRANCH  16  17
ENDBRANCH   1  16
BRANCH  15  19
HETATM   19  C11 UNL     1      48.419  51.701  35.646  1.00  0.00     0.037 A 
HETATM   20  C12 UNL     1      47.988  51.059  36.756  1.00  0.00     0.059 A 
HETATM   21  C13 UNL     1      48.430  51.515  37.963  1.00  0.00     0.116 A 
HETATM   22  C17 UNL     1      49.269  52.578  37.937  1.00  0.00     0.191 A 
HETATM   23  F1  UNL     1      49.902  53.307  38.907  1.00  0.00    -0.195 F 
HETATM   24  S2  UNL     1      49.429  52.926  36.250  1.00  0.00    -0.057 SA
BRANCH  21  25
HETATM   25  O1  UNL     1      48.020  50.894  39.162  1.00  0.00    -0.343 OA
BRANCH  25  26
HETATM   26  C14 UNL     1      48.660  50.001  39.961  1.00  0.00     0.121 C 
HETATM   27  C15 UNL     1      49.439  50.680  41.099  1.00  0.00     0.040 C 
HETATM   28  C16 UNL     1      47.728  48.989  40.621  1.00  0.00     0.040 C 
ENDBRANCH  25  26
ENDBRANCH  21  25
ENDBRANCH  15  19
TORSDOF 5
ENDMDL
MODEL 2
REMARK VINA RESULT: -6.921135518      1.898      3.117
REMARK  5 active torsions:
REMARK  status: ('A' for Active; 'I' for Inactive)
REMARK    1  A    between atoms: C2_2  and  C3_3 
REMARK    2  A    between atoms: C3_3  and  N1_4 
REMARK    3  A    between atoms: C10_18  and  C11_19 
REMARK    4  A    between atoms: C13_21  and  O1_22 
REMARK    5  A    between atoms: O1_22  and  C14_23 
ROOT
HETATM    1  N1  UNL     1      47.612  49.137  33.639  1.00  0.00    -0.345 N 
HETATM    2  C4  UNL     1      48.178  48.849  32.363  1.00  0.00     0.194 C 
HETATM    3  C5  UNL     1      49.634  48.852  32.480  1.00  0.00     0.084 C 
HETATM    4  N2  UNL     1      50.782  48.855  32.567  1.00  0.00    -0.195 NA
HETATM    5  C6  UNL     1      47.783  50.085  31.511  1.00  0.00     0.050 C 
HETATM    6  C7  UNL     1      47.998  51.126  32.576  1.00  0.00     0.053 C 
HETATM    7  C8  UNL     1      47.646  52.501  32.214  1.00  0.00     0.091 C 
HETATM    8  S1  UNL     1      45.869  52.811  32.145  1.00  0.00    -0.094 SA
HETATM    9  C9  UNL     1      45.159  51.626  33.301  1.00  0.00     0.135 C 
HETATM   10  N3  UNL     1      43.872  51.547  33.398  1.00  0.00    -0.380 N 
ATOM     11  H31 UNL     1      43.470  50.875  34.052  1.00  0.00     0.158 HD
ATOM     12  H32 UNL     1      43.241  52.130  32.849  1.00  0.00     0.158 HD
HETATM   13  N4  UNL     1      46.037  50.814  34.066  1.00  0.00    -0.340 N 
ATOM     14  H4  UNL     1      45.645  50.399  34.910  1.00  0.00     0.164 HD
HETATM   15  C10 UNL     1      47.399  50.513  33.795  1.00  0.00     0.148 C 
ENDROOT
BRANCH   1  16
HETATM   16  C3  UNL     1      46.896  48.165  34.324  1.00  0.00     0.062 C 
BRANCH  16  17
HETATM   17  C2  UNL     1      47.664  47.039  34.962  1.00  0.00     0.040 C 
HETATM   18  C1  UNL     1      47.886  45.867  34.011  1.00  0.00     0.010 C 
ENDBRANCH  16  17
ENDBRANCH   1  16
BRANCH  15  19
HETATM   19  C11 UNL     1      48.168  51.098  34.959  1.00  0.00     0.037 A 
HETATM   20  C12 UNL     1      47.861  51.067  36.276  1.00  0.00     0.059 A 
HETATM   21  C13 UNL     1      48.717  51.682  37.140  1.00  0.00     0.116 A 
HETATM   22  C17 UNL     1      49.808  52.270  36.594  1.00  0.00     0.191 A 
HETATM   23  F1  UNL     1      50.865  52.970  37.112  1.00  0.00    -0.195 F 
HETATM   24  S2  UNL     1      49.628  51.964  34.901  1.00  0.00    -0.057 SA
BRANCH  21  25
HETATM   25  O1  UNL     1      48.458  51.691  38.528  1.00  0.00    -0.343 OA
BRANCH  25  26
HETATM   26  C14 UNL     1      48.159  50.676  39.379  1.00  0.00     0.121 C 
HETATM   27  C15 UNL     1      48.638  49.311  38.861  1.00  0.00     0.040 C 
HETATM   28  C16 UNL     1      48.762  50.844  40.771  1.00  0.00     0.040 C 
ENDBRANCH  25  26
ENDBRANCH  21  25
ENDBRANCH  15  19
TORSDOF 5
ENDMDL
MODEL 3
REMARK VINA RESULT: -6.683290676      1.790      2.591
REMARK  5 active torsions:
REMARK  status: ('A' for Active; 'I' for Inactive)
REMARK    1  A    between atoms: C2_2  and  C3_3 
REMARK    2  A    between atoms: C3_3  and  N1_4 
REMARK    3  A    between atoms: C10_18  and  C11_19 
REMARK    4  A    between atoms: C13_21  and  O1_22 
REMARK    5  A    between atoms: O1_22  and  C14_23 
ROOT
HETATM    1  N1  UNL     1      47.096  52.276  32.724  1.00  0.00    -0.345 N 
HETATM    2  C4  UNL     1      46.049  51.465  32.197  1.00  0.00     0.194 C 
HETATM    3  C5  UNL     1      45.057  51.234  33.244  1.00  0.00     0.084 C 
HETATM    4  N2  UNL     1      44.274  51.048  34.067  1.00  0.00    -0.195 NA
HETATM    5  C6  UNL     1      46.753  50.109  31.924  1.00  0.00     0.050 C 
HETATM    6  C7  UNL     1      47.614  50.090  33.157  1.00  0.00     0.053 C 
HETATM    7  C8  UNL     1      48.551  48.970  33.272  1.00  0.00     0.091 C 
HETATM    8  S1  UNL     1      49.977  49.088  32.170  1.00  0.00    -0.094 SA
HETATM    9  C9  UNL     1      50.203  50.857  31.912  1.00  0.00     0.135 C 
HETATM   10  N3  UNL     1      51.108  51.253  31.079  1.00  0.00    -0.380 N 
ATOM     11  H31 UNL     1      51.236  52.255  30.933  1.00  0.00     0.158 HD
ATOM     12  H32 UNL     1      51.703  50.606  30.561  1.00  0.00     0.158 HD
HETATM   13  N4  UNL     1      49.376  51.758  32.633  1.00  0.00    -0.340 N 
ATOM     14  H4  UNL     1      49.720  52.715  32.717  1.00  0.00     0.164 HD
HETATM   15  C10 UNL     1      48.127  51.486  33.251  1.00  0.00     0.148 C 
ENDROOT
BRANCH   1  16
HETATM   16  C3  UNL     1      47.280  53.572  32.262  1.00  0.00     0.062 C 
BRANCH  16  17
HETATM   17  C2  UNL     1      46.674  53.943  30.935  1.00  0.00     0.040 C 
HETATM   18  C1  UNL     1      47.136  55.309  30.440  1.00  0.00     0.010 C 
ENDBRANCH  16  17
ENDBRANCH   1  16
BRANCH  15  19
HETATM   19  C11 UNL     1      48.359  51.732  34.726  1.00  0.00     0.037 A 
HETATM   20  C12 UNL     1      47.665  51.252  35.783  1.00  0.00     0.059 A 
HETATM   21  C13 UNL     1      48.067  51.631  37.029  1.00  0.00     0.116 A 
HETATM   22  C17 UNL     1      49.137  52.460  37.093  1.00  0.00     0.191 A 
HETATM   23  F1  UNL     1      49.817  53.049  38.125  1.00  0.00    -0.195 F 
HETATM   24  S2  UNL     1      49.563  52.700  35.434  1.00  0.00    -0.057 SA
BRANCH  21  25
HETATM   25  O1  UNL     1      47.388  51.170  38.177  1.00  0.00    -0.343 OA
BRANCH  25  26
HETATM   26  C14 UNL     1      47.743  50.241  39.102  1.00  0.00     0.121 C 
HETATM   27  C15 UNL     1      48.664  49.155  38.525  1.00  0.00     0.040 C 
HETATM   28  C16 UNL     1      48.471  50.825  40.310  1.00  0.00     0.040 C 
ENDBRANCH  25  26
ENDBRANCH  21  25
ENDBRANCH  15  19
TORSDOF 5
ENDMDL
MODEL 4
REMARK VINA RESULT: -6.643142911      3.599      5.734
REMARK  5 active torsions:
REMARK  status: ('A' for Active; 'I' for Inactive)
REMARK    1  A    between atoms: C2_2  and  C3_3 
REMARK    2  A    between atoms: C3_3  and  N1_4 
REMARK    3  A    between atoms: C10_18  and  C11_19 
REMARK    4  A    between atoms: C13_21  and  O1_22 
REMARK    5  A    between atoms: O1_22  and  C14_23 
ROOT
HETATM    1  N1  UNL     1      47.034  51.896  32.454  1.00  0.00    -0.345 N 
HETATM    2  C4  UNL     1      47.834  52.922  31.870  1.00  0.00     0.194 C 
HETATM    3  C5  UNL     1      48.692  52.329  30.849  1.00  0.00     0.084 C 
HETATM    4  N2  UNL     1      49.372  51.866  30.043  1.00  0.00    -0.195 NA
HETATM    5  C6  UNL     1      48.751  53.367  33.041  1.00  0.00     0.050 C 
HETATM    6  C7  UNL     1      49.003  51.999  33.614  1.00  0.00     0.053 C 
HETATM    7  C8  UNL     1      49.795  51.952  34.846  1.00  0.00     0.091 C 
HETATM    8  S1  UNL     1      48.902  52.501  36.316  1.00  0.00    -0.094 SA
HETATM    9  C9  UNL     1      47.173  52.145  35.953  1.00  0.00     0.135 C 
HETATM   10  N3  UNL     1      46.270  52.520  36.799  1.00  0.00    -0.380 N 
ATOM     11  H31 UNL     1      45.291  52.318  36.593  1.00  0.00     0.158 HD
ATOM     12  H32 UNL     1      46.495  53.008  37.665  1.00  0.00     0.158 HD
HETATM   13  N4  UNL     1      46.860  51.465  34.747  1.00  0.00    -0.340 N 
ATOM     14  H4  UNL     1      45.951  51.004  34.714  1.00  0.00     0.164 HD
HETATM   15  C10 UNL     1      47.662  51.350  33.581  1.00  0.00     0.148 C 
ENDROOT
BRANCH   1  16
HETATM   16  C3  UNL     1      45.660  51.878  32.254  1.00  0.00     0.062 C 
BRANCH  16  17
HETATM   17  C2  UNL     1      45.150  51.530  30.882  1.00  0.00     0.040 C 
HETATM   18  C1  UNL     1      45.888  50.348  30.263  1.00  0.00     0.010 C 
ENDBRANCH  16  17
ENDBRANCH   1  16
BRANCH  15  19
HETATM   19  C11 UNL     1      47.935  49.868  33.439  1.00  0.00     0.037 A 
HETATM   20  C12 UNL     1      48.656  49.227  32.491  1.00  0.00     0.059 A 
HETATM   21  C13 UNL     1      48.748  47.870  32.575  1.00  0.00     0.116 A 
HETATM   22  C17 UNL     1      48.103  47.283  33.612  1.00  0.00     0.191 A 
HETATM   23  F1  UNL     1      47.957  45.985  34.023  1.00  0.00    -0.195 F 
HETATM   24  S2  UNL     1      47.384  48.616  34.448  1.00  0.00    -0.057 SA
BRANCH  21  25
HETATM   25  O1  UNL     1      49.483  47.136  31.618  1.00  0.00    -0.343 OA
BRANCH  25  26
HETATM   26  C14 UNL     1      50.618  46.402  31.747  1.00  0.00     0.121 C 
HETATM   27  C15 UNL     1      50.870  45.487  30.538  1.00  0.00     0.040 C 
HETATM   28  C16 UNL     1      51.878  47.245  31.919  1.00  0.00     0.040 C 
ENDBRANCH  25  26
ENDBRANCH  21  25
ENDBRANCH  15  19
TORSDOF 5
ENDMDL
MODEL 5
REMARK VINA RESULT: -6.455488121      3.646      5.960
REMARK  5 active torsions:
REMARK  status: ('A' for Active; 'I' for Inactive)
REMARK    1  A    between atoms: C2_2  and  C3_3 
REMARK    2  A    between atoms: C3_3  and  N1_4 
REMARK    3  A    between atoms: C10_18  and  C11_19 
REMARK    4  A    between atoms: C13_21  and  O1_22 
REMARK    5  A    between atoms: O1_22  and  C14_23 
ROOT
HETATM    1  N1  UNL     1      48.939  51.582  35.065  1.00  0.00    -0.345 N 
HETATM    2  C4  UNL     1      48.255  51.830  36.291  1.00  0.00     0.194 C 
HETATM    3  C5  UNL     1      48.235  50.601  37.078  1.00  0.00     0.084 C 
HETATM    4  N2  UNL     1      48.215  49.634  37.703  1.00  0.00    -0.195 NA
HETATM    5  C6  UNL     1      46.797  52.107  35.834  1.00  0.00     0.050 C 
HETATM    6  C7  UNL     1      46.734  51.059  34.756  1.00  0.00     0.053 C 
HETATM    7  C8  UNL     1      45.501  51.021  33.967  1.00  0.00     0.091 C 
HETATM    8  S1  UNL     1      45.344  52.374  32.782  1.00  0.00    -0.094 SA
HETATM    9  C9  UNL     1      47.042  52.827  32.386  1.00  0.00     0.135 C 
HETATM   10  N3  UNL     1      47.251  53.846  31.619  1.00  0.00    -0.380 N 
ATOM     11  H31 UNL     1      48.213  54.103  31.395  1.00  0.00     0.158 HD
ATOM     12  H32 UNL     1      46.494  54.405  31.226  1.00  0.00     0.158 HD
HETATM   13  N4  UNL     1      48.096  52.049  32.933  1.00  0.00    -0.340 N 
ATOM     14  H4  UNL     1      48.997  52.116  32.460  1.00  0.00     0.164 HD
HETATM   15  C10 UNL     1      48.045  51.187  34.061  1.00  0.00     0.148 C 
ENDROOT
BRANCH   1  16
HETATM   16  C3  UNL     1      50.164  52.184  34.811  1.00  0.00     0.062 C 
BRANCH  16  17
HETATM   17  C2  UNL     1      51.403  51.520  35.348  1.00  0.00     0.040 C 
HETATM   18  C1  UNL     1      52.217  50.827  34.259  1.00  0.00     0.010 C 
ENDBRANCH  16  17
ENDBRANCH   1  16
BRANCH  15  19
HETATM   19  C11 UNL     1      48.348  49.809  33.515  1.00  0.00     0.037 A 
HETATM   20  C12 UNL     1      49.143  49.467  32.475  1.00  0.00     0.059 A 
HETATM   21  C13 UNL     1      49.247  48.144  32.166  1.00  0.00     0.116 A 
HETATM   22  C17 UNL     1      48.539  47.285  32.939  1.00  0.00     0.191 A 
HETATM   23  F1  UNL     1      48.383  45.925  32.943  1.00  0.00    -0.195 F 
HETATM   24  S2  UNL     1      47.744  48.322  34.073  1.00  0.00    -0.057 SA
BRANCH  21  25
HETATM   25  O1  UNL     1      50.058  47.715  31.093  1.00  0.00    -0.343 OA
BRANCH  25  26
HETATM   26  C14 UNL     1      51.290  47.144  31.088  1.00  0.00     0.121 C 
HETATM   27  C15 UNL     1      52.187  47.664  32.222  1.00  0.00     0.040 C 
HETATM   28  C16 UNL     1      51.262  45.624  31.225  1.00  0.00     0.040 C 
ENDBRANCH  25  26
ENDBRANCH  21  25
ENDBRANCH  15  19
TORSDOF 5
ENDMDL
