MODEL 1
REMARK VINA RESULT: -7.348083102      0.000      0.000
REMARK  7 active torsions:
REMARK  status: ('A' for Active; 'I' for Inactive)
REMARK    1  A    between atoms: C2_2  and  O1_3 
REMARK    2  A    between atoms: C2_2  and  N1_5 
REMARK    3  A    between atoms: N1_5  and  C3_7 
REMARK    4  A    between atoms: C6_12  and  C7_13 
REMARK    5  A    between atoms: C7_13  and  S2_14 
REMARK    6  A    between atoms: S2_14  and  C8_15 
REMARK    7  A    between atoms: C9_18  and  C10_19 
ROOT
HETATM    1  C7  UNL     1      45.820  51.105  34.332  1.00  0.00     0.123 C 
ENDROOT
BRANCH   1   2
HETATM    2  C6  UNL     1      46.352  50.762  32.948  1.00  0.00    -0.013 A 
HETATM    3  C3  UNL     1      47.432  49.978  32.736  1.00  0.00     0.080 A 
HETATM    4  S1  UNL     1      47.434  49.680  31.054  1.00  0.00    -0.065 SA
HETATM    5  C4  UNL     1      46.059  50.529  30.621  1.00  0.00     0.054 A 
HETATM    6 BR1  UNL     1      45.312  50.793  28.833  1.00  0.00    -0.043 Br
HETATM    7  C5  UNL     1      45.599  51.055  31.803  1.00  0.00     0.037 A 
BRANCH   3   8
HETATM    8  N1  UNL     1      48.444  49.457  33.640  1.00  0.00    -0.358 N 
ATOM      9  H1  UNL     1      49.375  49.862  33.733  1.00  0.00     0.162 HD
BRANCH   8  10
HETATM   10  C2  UNL     1      48.014  48.346  34.369  1.00  0.00     0.214 C 
HETATM   11  C1  UNL     1      47.931  47.012  33.698  1.00  0.00     0.063 C 
BRANCH  10  12
HETATM   12  O1  UNL     1      47.639  48.405  35.623  1.00  0.00    -0.377 OA
ATOM     13  H1  UNL     1      46.707  48.477  35.791  1.00  0.00     0.212 HD
ENDBRANCH  10  12
ENDBRANCH   8  10
ENDBRANCH   3   8
ENDBRANCH   1   2
BRANCH   1  14
HETATM   14  S2  UNL     1      46.607  52.675  34.833  1.00  0.00    -0.088 SA
BRANCH  14  15
HETATM   15  C8  UNL     1      47.593  52.345  36.252  1.00  0.00     0.160 A 
HETATM   16  N2  UNL     1      47.754  51.217  36.936  1.00  0.00    -0.324 N 
HETATM   17  C9  UNL     1      48.575  51.356  37.978  1.00  0.00     0.102 A 
ATOM     18  H2  UNL     1      47.297  50.339  36.691  1.00  0.00     0.169 HD
HETATM   19  N3  UNL     1      48.950  52.658  37.933  1.00  0.00    -0.287 N 
HETATM   20  N4  UNL     1      48.376  53.252  36.907  1.00  0.00    -0.278 N 
ATOM     21  H3  UNL     1      49.582  53.109  38.595  1.00  0.00     0.188 HD
ATOM     22  H4  UNL     1      48.497  54.230  36.646  1.00  0.00     0.189 HD
BRANCH  17  23
HETATM   23  C10 UNL     1      49.046  50.420  39.035  1.00  0.00     0.055 A 
HETATM   24  C11 UNL     1      48.102  49.252  39.301  1.00  0.00     0.012 A 
HETATM   25  C12 UNL     1      47.770  49.844  40.639  1.00  0.00     0.002 A 
HETATM   26  C13 UNL     1      48.735  50.965  40.413  1.00  0.00     0.012 A 
ENDBRANCH  17  23
ENDBRANCH  14  15
ENDBRANCH   1  14
TORSDOF 7
ENDMDL
MODEL 2
REMARK VINA RESULT: -7.295020629      0.975      1.308
REMARK  7 active torsions:
REMARK  status: ('A' for Active; 'I' for Inactive)
REMARK    1  A    between atoms: C2_2  and  O1_3 
REMARK    2  A    between atoms: C2_2  and  N1_5 
REMARK    3  A    between atoms: N1_5  and  C3_7 
REMARK    4  A    between atoms: C6_12  and  C7_13 
REMARK    5  A    between atoms: C7_13  and  S2_14 
REMARK    6  A    between atoms: S2_14  and  C8_15 
REMARK    7  A    between atoms: C9_18  and  C10_19 
ROOT
HETATM    1  C7  UNL     1      45.998  50.986  34.084  1.00  0.00     0.123 C 
ENDROOT
BRANCH   1   2
HETATM    2  C6  UNL     1      46.467  50.662  32.673  1.00  0.00    -0.013 A 
HETATM    3  C3  UNL     1      47.513  49.853  32.400  1.00  0.00     0.080 A 
HETATM    4  S1  UNL     1      47.443  49.597  30.713  1.00  0.00    -0.065 SA
HETATM    5  C4  UNL     1      46.077  50.494  30.355  1.00  0.00     0.054 A 
HETATM    6 BR1  UNL     1      45.270  50.823  28.604  1.00  0.00    -0.043 Br
HETATM    7  C5  UNL     1      45.679  51.004  31.566  1.00  0.00     0.037 A 
BRANCH   3   8
HETATM    8  N1  UNL     1      48.545  49.281  33.252  1.00  0.00    -0.358 N 
ATOM      9  H1  UNL     1      49.451  49.721  33.408  1.00  0.00     0.162 HD
BRANCH   8  10
HETATM   10  C2  UNL     1      48.169  48.070  33.836  1.00  0.00     0.214 C 
HETATM   11  C1  UNL     1      48.355  46.796  33.074  1.00  0.00     0.063 C 
BRANCH  10  12
HETATM   12  O1  UNL     1      47.622  47.978  35.023  1.00  0.00    -0.377 OA
ATOM     13  H1  UNL     1      48.170  48.194  35.768  1.00  0.00     0.212 HD
ENDBRANCH  10  12
ENDBRANCH   8  10
ENDBRANCH   3   8
ENDBRANCH   1   2
BRANCH   1  14
HETATM   14  S2  UNL     1      47.277  52.048  34.841  1.00  0.00    -0.088 SA
BRANCH  14  15
HETATM   15  C8  UNL     1      47.757  51.302  36.359  1.00  0.00     0.160 A 
HETATM   16  N2  UNL     1      47.217  51.405  37.569  1.00  0.00    -0.324 N 
HETATM   17  C9  UNL     1      47.875  50.701  38.491  1.00  0.00     0.102 A 
ATOM     18  H2  UNL     1      46.388  51.963  37.771  1.00  0.00     0.169 HD
HETATM   19  N3  UNL     1      48.890  50.121  37.805  1.00  0.00    -0.287 N 
HETATM   20  N4  UNL     1      48.825  50.468  36.536  1.00  0.00    -0.278 N 
ATOM     21  H3  UNL     1      49.597  49.508  38.210  1.00  0.00     0.188 HD
ATOM     22  H4  UNL     1      49.467  50.164  35.804  1.00  0.00     0.189 HD
BRANCH  17  23
HETATM   23  C10 UNL     1      47.685  50.513  39.955  1.00  0.00     0.055 A 
HETATM   24  C11 UNL     1      48.812  51.084  40.810  1.00  0.00     0.012 A 
HETATM   25  C12 UNL     1      49.231  49.688  41.166  1.00  0.00     0.002 A 
HETATM   26  C13 UNL     1      48.095  49.117  40.376  1.00  0.00     0.012 A 
ENDBRANCH  17  23
ENDBRANCH  14  15
ENDBRANCH   1  14
TORSDOF 7
ENDMDL
MODEL 3
REMARK VINA RESULT: -7.277805929      2.355      2.954
REMARK  7 active torsions:
REMARK  status: ('A' for Active; 'I' for Inactive)
REMARK    1  A    between atoms: C2_2  and  O1_3 
REMARK    2  A    between atoms: C2_2  and  N1_5 
REMARK    3  A    between atoms: N1_5  and  C3_7 
REMARK    4  A    between atoms: C6_12  and  C7_13 
REMARK    5  A    between atoms: C7_13  and  S2_14 
REMARK    6  A    between atoms: S2_14  and  C8_15 
REMARK    7  A    between atoms: C9_18  and  C10_19 
ROOT
HETATM    1  C7  UNL     1      45.401  51.380  33.581  1.00  0.00     0.123 C 
ENDROOT
BRANCH   1   2
HETATM    2  C6  UNL     1      45.536  51.850  32.140  1.00  0.00    -0.013 A 
HETATM    3  C3  UNL     1      46.210  52.963  31.777  1.00  0.00     0.080 A 
HETATM    4  S1  UNL     1      46.302  52.884  30.073  1.00  0.00    -0.065 SA
HETATM    5  C4  UNL     1      45.508  51.434  29.820  1.00  0.00     0.054 A 
HETATM    6 BR1  UNL     1      45.084  50.566  28.120  1.00  0.00    -0.043 Br
HETATM    7  C5  UNL     1      45.162  51.013  31.081  1.00  0.00     0.037 A 
BRANCH   3   8
HETATM    8  N1  UNL     1      46.763  54.059  32.557  1.00  0.00    -0.358 N 
ATOM      9  H1  UNL     1      46.276  54.943  32.705  1.00  0.00     0.162 HD
BRANCH   8  10
HETATM   10  C2  UNL     1      48.027  53.781  33.082  1.00  0.00     0.214 C 
HETATM   11  C1  UNL     1      49.148  53.430  32.156  1.00  0.00     0.063 C 
BRANCH  10  12
HETATM   12  O1  UNL     1      48.290  53.776  34.365  1.00  0.00    -0.377 OA
ATOM     13  H1  UNL     1      47.562  53.620  34.954  1.00  0.00     0.212 HD
ENDBRANCH  10  12
ENDBRANCH   8  10
ENDBRANCH   3   8
ENDBRANCH   1   2
BRANCH   1  14
HETATM   14  S2  UNL     1      46.867  50.353  33.947  1.00  0.00    -0.088 SA
BRANCH  14  15
HETATM   15  C8  UNL     1      47.346  50.684  35.607  1.00  0.00     0.160 A 
HETATM   16  N2  UNL     1      48.093  49.965  36.439  1.00  0.00    -0.324 N 
HETATM   17  C9  UNL     1      48.226  50.534  37.638  1.00  0.00     0.102 A 
ATOM     18  H2  UNL     1      48.518  49.073  36.187  1.00  0.00     0.169 HD
HETATM   19  N3  UNL     1      47.515  51.683  37.540  1.00  0.00    -0.287 N 
HETATM   20  N4  UNL     1      46.993  51.784  36.335  1.00  0.00    -0.278 N 
ATOM     21  H3  UNL     1      47.401  52.368  38.288  1.00  0.00     0.188 HD
ATOM     22  H4  UNL     1      46.419  52.558  36.001  1.00  0.00     0.189 HD
BRANCH  17  23
HETATM   23  C10 UNL     1      48.926  50.126  38.886  1.00  0.00     0.055 A 
HETATM   24  C11 UNL     1      48.127  49.172  39.768  1.00  0.00     0.012 A 
HETATM   25  C12 UNL     1      47.964  50.266  40.780  1.00  0.00     0.002 A 
HETATM   26  C13 UNL     1      48.795  51.194  39.951  1.00  0.00     0.012 A 
ENDBRANCH  17  23
ENDBRANCH  14  15
ENDBRANCH   1  14
TORSDOF 7
ENDMDL
MODEL 4
REMARK VINA RESULT: -7.225854961      3.049      3.637
REMARK  7 active torsions:
REMARK  status: ('A' for Active; 'I' for Inactive)
REMARK    1  A    between atoms: C2_2  and  O1_3 
REMARK    2  A    between atoms: C2_2  and  N1_5 
REMARK    3  A    between atoms: N1_5  and  C3_7 
REMARK    4  A    between atoms: C6_12  and  C7_13 
REMARK    5  A    between atoms: C7_13  and  S2_14 
REMARK    6  A    between atoms: S2_14  and  C8_15 
REMARK    7  A    between atoms: C9_18  and  C10_19 
ROOT
HETATM    1  C7  UNL     1      48.754  51.274  33.821  1.00  0.00     0.123 C 
ENDROOT
BRANCH   1   2
HETATM    2  C6  UNL     1      48.446  52.390  32.832  1.00  0.00    -0.013 A 
HETATM    3  C3  UNL     1      47.406  53.241  32.966  1.00  0.00     0.080 A 
HETATM    4  S1  UNL     1      47.669  54.445  31.784  1.00  0.00    -0.065 SA
HETATM    5  C4  UNL     1      49.105  53.885  31.134  1.00  0.00     0.054 A 
HETATM    6 BR1  UNL     1      50.132  54.629  29.645  1.00  0.00    -0.043 Br
HETATM    7  C5  UNL     1      49.376  52.742  31.846  1.00  0.00     0.037 A 
BRANCH   3   8
HETATM    8  N1  UNL     1      46.256  53.233  33.856  1.00  0.00    -0.358 N 
ATOM      9  H1  UNL     1      46.264  53.649  34.787  1.00  0.00     0.162 HD
BRANCH   8  10
HETATM   10  C2  UNL     1      45.138  52.600  33.309  1.00  0.00     0.214 C 
HETATM   11  C1  UNL     1      45.016  51.112  33.401  1.00  0.00     0.063 C 
BRANCH  10  12
HETATM   12  O1  UNL     1      44.184  53.237  32.676  1.00  0.00    -0.377 OA
ATOM     13  H1  UNL     1      43.291  52.975  32.866  1.00  0.00     0.212 HD
ENDBRANCH  10  12
ENDBRANCH   8  10
ENDBRANCH   3   8
ENDBRANCH   1   2
BRANCH   1  14
HETATM   14  S2  UNL     1      50.150  51.845  34.852  1.00  0.00    -0.088 SA
BRANCH  14  15
HETATM   15  C8  UNL     1      49.616  51.824  36.528  1.00  0.00     0.160 A 
HETATM   16  N2  UNL     1      48.864  50.938  37.173  1.00  0.00    -0.324 N 
HETATM   17  C9  UNL     1      48.651  51.270  38.447  1.00  0.00     0.102 A 
ATOM     18  H2  UNL     1      48.490  50.094  36.739  1.00  0.00     0.169 HD
HETATM   19  N3  UNL     1      49.318  52.440  38.601  1.00  0.00    -0.287 N 
HETATM   20  N4  UNL     1      49.900  52.774  37.467  1.00  0.00    -0.278 N 
ATOM     21  H3  UNL     1      49.363  52.981  39.465  1.00  0.00     0.188 HD
ATOM     22  H4  UNL     1      50.469  53.607  37.316  1.00  0.00     0.189 HD
BRANCH  17  23
HETATM   23  C10 UNL     1      47.877  50.636  39.548  1.00  0.00     0.055 A 
HETATM   24  C11 UNL     1      48.454  50.880  40.939  1.00  0.00     0.012 A 
HETATM   25  C12 UNL     1      48.840  49.433  41.016  1.00  0.00     0.002 A 
HETATM   26  C13 UNL     1      48.227  49.169  39.677  1.00  0.00     0.012 A 
ENDBRANCH  17  23
ENDBRANCH  14  15
ENDBRANCH   1  14
TORSDOF 7
ENDMDL
MODEL 5
REMARK VINA RESULT: -7.179880572      2.396      3.221
REMARK  7 active torsions:
REMARK  status: ('A' for Active; 'I' for Inactive)
REMARK    1  A    between atoms: C2_2  and  O1_3 
REMARK    2  A    between atoms: C2_2  and  N1_5 
REMARK    3  A    between atoms: N1_5  and  C3_7 
REMARK    4  A    between atoms: C6_12  and  C7_13 
REMARK    5  A    between atoms: C7_13  and  S2_14 
REMARK    6  A    between atoms: S2_14  and  C8_15 
REMARK    7  A    between atoms: C9_18  and  C10_19 
ROOT
HETATM    1  C7  UNL     1      45.939  51.167  34.562  1.00  0.00     0.123 C 
ENDROOT
BRANCH   1   2
HETATM    2  C6  UNL     1      46.597  50.504  33.361  1.00  0.00    -0.013 A 
HETATM    3  C3  UNL     1      46.229  50.739  32.082  1.00  0.00     0.080 A 
HETATM    4  S1  UNL     1      47.435  49.991  31.133  1.00  0.00    -0.065 SA
HETATM    5  C4  UNL     1      48.417  49.399  32.351  1.00  0.00     0.054 A 
HETATM    6 BR1  UNL     1      50.043  48.326  32.181  1.00  0.00    -0.043 Br
HETATM    7  C5  UNL     1      47.790  49.785  33.510  1.00  0.00     0.037 A 
BRANCH   3   8
HETATM    8  N1  UNL     1      45.085  51.436  31.516  1.00  0.00    -0.358 N 
ATOM      9  H1  UNL     1      44.337  50.965  31.007  1.00  0.00     0.162 HD
BRANCH   8  10
HETATM   10  C2  UNL     1      45.112  52.815  31.737  1.00  0.00     0.214 C 
HETATM   11  C1  UNL     1      46.159  53.647  31.069  1.00  0.00     0.063 C 
BRANCH  10  12
HETATM   12  O1  UNL     1      44.281  53.434  32.538  1.00  0.00    -0.377 OA
ATOM     13  H1  UNL     1      43.965  52.949  33.290  1.00  0.00     0.212 HD
ENDBRANCH  10  12
ENDBRANCH   8  10
ENDBRANCH   3   8
ENDBRANCH   1   2
BRANCH   1  14
HETATM   14  S2  UNL     1      46.927  52.650  34.961  1.00  0.00    -0.088 SA
BRANCH  14  15
HETATM   15  C8  UNL     1      47.839  52.303  36.425  1.00  0.00     0.160 A 
HETATM   16  N2  UNL     1      47.917  51.182  37.135  1.00  0.00    -0.324 N 
HETATM   17  C9  UNL     1      48.702  51.303  38.207  1.00  0.00     0.102 A 
ATOM     18  H2  UNL     1      47.429  50.322  36.887  1.00  0.00     0.169 HD
HETATM   19  N3  UNL     1      49.141  52.584  38.154  1.00  0.00    -0.287 N 
HETATM   20  N4  UNL     1      48.637  53.185  37.096  1.00  0.00    -0.278 N 
ATOM     21  H3  UNL     1      49.767  53.018  38.833  1.00  0.00     0.188 HD
ATOM     22  H4  UNL     1      48.815  54.151  36.822  1.00  0.00     0.189 HD
BRANCH  17  23
HETATM   23  C10 UNL     1      49.085  50.367  39.299  1.00  0.00     0.055 A 
HETATM   24  C11 UNL     1      48.049  49.285  39.588  1.00  0.00     0.012 A 
HETATM   25  C12 UNL     1      47.749  49.944  40.901  1.00  0.00     0.002 A 
HETATM   26  C13 UNL     1      48.802  50.978  40.655  1.00  0.00     0.012 A 
ENDBRANCH  17  23
ENDBRANCH  14  15
ENDBRANCH   1  14
TORSDOF 7
ENDMDL
