MODEL 1
REMARK VINA RESULT: -6.818367180      0.000      0.000
REMARK  7 active torsions:
REMARK  status: ('A' for Active; 'I' for Inactive)
REMARK    1  A    between atoms: C5_6  and  C6_7 
REMARK       I    between atoms: C6_7  and  N1_9 
REMARK    2  A    between atoms: N1_9  and  C7_11 
REMARK    3  A    between atoms: C7_11  and  N2_13 
REMARK    4  A    between atoms: N2_13  and  C8_15 
REMARK    5  A    between atoms: C8_15  and  C10_17 
REMARK    6  A    between atoms: C11_20  and  S2_21 
REMARK    7  A    between atoms: S2_21  and  C12_22 
ROOT
HETATM    1  N2  UNL     1      50.619  50.457  33.889  1.00  0.00    -0.357 N 
ATOM      2  H2  UNL     1      50.828  49.572  34.352  1.00  0.00     0.162 HD
ENDROOT
BRANCH   1   3
HETATM    3  C7  UNL     1      50.417  50.486  32.483  1.00  0.00     0.175 C 
HETATM    4  S1  UNL     1      51.637  49.997  31.503  1.00  0.00    -0.041 SA
BRANCH   3   5
HETATM    5  N1  UNL     1      49.177  50.939  31.927  1.00  0.00    -0.300 N 
HETATM    6  C6  UNL     1      47.980  50.238  32.099  1.00  0.00     0.260 C 
HETATM    7  O2  UNL     1      48.033  49.155  32.772  1.00  0.00    -0.267 OA
ATOM      8  H1  UNL     1      49.167  51.804  31.387  1.00  0.00     0.171 HD
BRANCH   6   9
HETATM    9  C5  UNL     1      46.669  50.598  31.595  1.00  0.00     0.063 A 
HETATM   10  C2  UNL     1      45.543  50.904  32.268  1.00  0.00     0.064 A 
HETATM   11  C1  UNL     1      45.311  50.917  33.735  1.00  0.00     0.077 C 
HETATM   12  O1  UNL     1      44.580  51.215  31.393  1.00  0.00    -0.326 OA
HETATM   13  C3  UNL     1      45.051  51.120  30.159  1.00  0.00     0.143 A 
HETATM   14  C4  UNL     1      46.363  50.733  30.226  1.00  0.00     0.044 A 
ENDBRANCH   6   9
ENDBRANCH   3   5
ENDBRANCH   1   3
BRANCH   1  15
HETATM   15  C8  UNL     1      50.533  51.641  34.651  1.00  0.00     0.131 C 
HETATM   16  C9  UNL     1      51.767  52.056  35.367  1.00  0.00     0.039 C 
BRANCH  15  17
HETATM   17  C10 UNL     1      49.400  51.534  35.675  1.00  0.00     0.046 A 
HETATM   18  N3  UNL     1      49.479  50.774  36.722  1.00  0.00    -0.346 N 
HETATM   19  C11 UNL     1      48.477  50.722  37.578  1.00  0.00     0.117 A 
ATOM     20  H3  UNL     1      50.317  50.215  36.884  1.00  0.00     0.167 HD
HETATM   21  S3  UNL     1      47.343  51.796  36.893  1.00  0.00    -0.068 SA
HETATM   22  C13 UNL     1      48.236  52.264  35.519  1.00  0.00     0.006 A 
HETATM   23  C14 UNL     1      47.897  53.210  34.406  1.00  0.00     0.058 C 
BRANCH  19  24
HETATM   24  S2  UNL     1      48.354  49.742  39.099  1.00  0.00    -0.035 SA
BRANCH  24  25
HETATM   25  C12 UNL     1      48.906  50.789  40.474  1.00  0.00     0.422 C 
HETATM   26  F1  UNL     1      49.123  52.069  40.010  1.00  0.00    -0.202 F 
HETATM   27  F2  UNL     1      47.928  50.771  41.447  1.00  0.00    -0.202 F 
ENDBRANCH  24  25
ENDBRANCH  19  24
ENDBRANCH  15  17
ENDBRANCH   1  15
TORSDOF 7
ENDMDL
MODEL 2
REMARK VINA RESULT: -6.780786384      4.339      7.390
REMARK  7 active torsions:
REMARK  status: ('A' for Active; 'I' for Inactive)
REMARK    1  A    between atoms: C5_6  and  C6_7 
REMARK       I    between atoms: C6_7  and  N1_9 
REMARK    2  A    between atoms: N1_9  and  C7_11 
REMARK    3  A    between atoms: C7_11  and  N2_13 
REMARK    4  A    between atoms: N2_13  and  C8_15 
REMARK    5  A    between atoms: C8_15  and  C10_17 
REMARK    6  A    between atoms: C11_20  and  S2_21 
REMARK    7  A    between atoms: S2_21  and  C12_22 
ROOT
HETATM    1  N2  UNL     1      48.419  49.435  33.999  1.00  0.00    -0.357 N 
ATOM      2  H2  UNL     1      49.424  49.605  34.036  1.00  0.00     0.162 HD
ENDROOT
BRANCH   1   3
HETATM    3  C7  UNL     1      47.525  50.361  34.602  1.00  0.00     0.175 C 
HETATM    4  S1  UNL     1      46.104  50.683  33.853  1.00  0.00    -0.041 SA
BRANCH   3   5
HETATM    5  N1  UNL     1      47.858  51.007  35.837  1.00  0.00    -0.300 N 
HETATM    6  C6  UNL     1      48.163  50.290  36.997  1.00  0.00     0.260 C 
HETATM    7  O2  UNL     1      48.125  49.017  36.921  1.00  0.00    -0.267 OA
ATOM      8  H1  UNL     1      47.873  52.027  35.870  1.00  0.00     0.171 HD
BRANCH   6   9
HETATM    9  C5  UNL     1      48.521  50.828  38.296  1.00  0.00     0.063 A 
HETATM   10  C2  UNL     1      49.111  51.997  38.610  1.00  0.00     0.064 A 
HETATM   11  C1  UNL     1      49.609  53.061  37.700  1.00  0.00     0.077 C 
HETATM   12  O1  UNL     1      49.209  52.095  39.940  1.00  0.00    -0.326 OA
HETATM   13  C3  UNL     1      48.695  51.014  40.506  1.00  0.00     0.143 A 
HETATM   14  C4  UNL     1      48.247  50.180  39.517  1.00  0.00     0.044 A 
ENDBRANCH   6   9
ENDBRANCH   3   5
ENDBRANCH   1   3
BRANCH   1  15
HETATM   15  C8  UNL     1      47.928  48.282  33.349  1.00  0.00     0.131 C 
HETATM   16  C9  UNL     1      47.682  47.095  34.208  1.00  0.00     0.039 C 
BRANCH  15  17
HETATM   17  C10 UNL     1      48.872  47.866  32.218  1.00  0.00     0.046 A 
HETATM   18  N3  UNL     1      49.807  46.983  32.382  1.00  0.00    -0.346 N 
HETATM   19  C11 UNL     1      50.589  46.654  31.374  1.00  0.00     0.117 A 
ATOM     20  H3  UNL     1      49.936  46.542  33.293  1.00  0.00     0.167 HD
HETATM   21  S3  UNL     1      49.999  47.631  30.106  1.00  0.00    -0.068 SA
HETATM   22  C13 UNL     1      48.753  48.423  30.958  1.00  0.00     0.006 A 
HETATM   23  C14 UNL     1      47.762  49.455  30.509  1.00  0.00     0.058 C 
BRANCH  19  24
HETATM   24  S2  UNL     1      51.953  45.459  31.359  1.00  0.00    -0.035 SA
BRANCH  24  25
HETATM   25  C12 UNL     1      53.403  46.268  32.090  1.00  0.00     0.422 C 
HETATM   26  F1  UNL     1      52.983  47.276  32.932  1.00  0.00    -0.202 F 
HETATM   27  F2  UNL     1      54.127  45.315  32.775  1.00  0.00    -0.202 F 
ENDBRANCH  24  25
ENDBRANCH  19  24
ENDBRANCH  15  17
ENDBRANCH   1  15
TORSDOF 7
ENDMDL
MODEL 3
REMARK VINA RESULT: -6.494860148      1.756      1.974
REMARK  7 active torsions:
REMARK  status: ('A' for Active; 'I' for Inactive)
REMARK    1  A    between atoms: C5_6  and  C6_7 
REMARK       I    between atoms: C6_7  and  N1_9 
REMARK    2  A    between atoms: N1_9  and  C7_11 
REMARK    3  A    between atoms: C7_11  and  N2_13 
REMARK    4  A    between atoms: N2_13  and  C8_15 
REMARK    5  A    between atoms: C8_15  and  C10_17 
REMARK    6  A    between atoms: C11_20  and  S2_21 
REMARK    7  A    between atoms: S2_21  and  C12_22 
ROOT
HETATM    1  N2  UNL     1      49.179  50.025  33.623  1.00  0.00    -0.357 N 
ATOM      2  H2  UNL     1      50.047  49.582  33.321  1.00  0.00     0.162 HD
ENDROOT
BRANCH   1   3
HETATM    3  C7  UNL     1      47.940  49.357  33.425  1.00  0.00     0.175 C 
HETATM    4  S1  UNL     1      47.715  47.896  34.132  1.00  0.00    -0.041 SA
BRANCH   3   5
HETATM    5  N1  UNL     1      46.909  49.941  32.619  1.00  0.00    -0.300 N 
HETATM    6  C6  UNL     1      47.096  50.235  31.266  1.00  0.00     0.260 C 
HETATM    7  O2  UNL     1      48.239  49.970  30.765  1.00  0.00    -0.267 OA
ATOM      8  H1  UNL     1      46.008  50.149  33.048  1.00  0.00     0.171 HD
BRANCH   6   9
HETATM    9  C5  UNL     1      46.131  50.815  30.350  1.00  0.00     0.063 A 
HETATM   10  C2  UNL     1      45.361  51.910  30.492  1.00  0.00     0.064 A 
HETATM   11  C1  UNL     1      45.247  52.821  31.660  1.00  0.00     0.077 C 
HETATM   12  O1  UNL     1      44.650  52.095  29.374  1.00  0.00    -0.326 OA
HETATM   13  C3  UNL     1      44.939  51.143  28.501  1.00  0.00     0.143 A 
HETATM   14  C4  UNL     1      45.867  50.307  29.062  1.00  0.00     0.044 A 
ENDBRANCH   6   9
ENDBRANCH   3   5
ENDBRANCH   1   3
BRANCH   1  15
HETATM   15  C8  UNL     1      49.218  51.297  34.233  1.00  0.00     0.131 C 
HETATM   16  C9  UNL     1      50.565  51.895  34.427  1.00  0.00     0.039 C 
BRANCH  15  17
HETATM   17  C10 UNL     1      48.514  51.258  35.592  1.00  0.00     0.046 A 
HETATM   18  N3  UNL     1      48.905  50.484  36.555  1.00  0.00    -0.346 N 
HETATM   19  C11 UNL     1      48.267  50.493  37.709  1.00  0.00     0.117 A 
ATOM     20  H3  UNL     1      49.706  49.868  36.420  1.00  0.00     0.167 HD
HETATM   21  S3  UNL     1      47.040  51.649  37.452  1.00  0.00    -0.068 SA
HETATM   22  C13 UNL     1      47.421  52.067  35.844  1.00  0.00     0.006 A 
HETATM   23  C14 UNL     1      46.776  53.045  34.907  1.00  0.00     0.058 C 
BRANCH  19  24
HETATM   24  S2  UNL     1      48.622  49.510  39.191  1.00  0.00    -0.035 SA
BRANCH  24  25
HETATM   25  C12 UNL     1      48.639  50.639  40.611  1.00  0.00     0.422 C 
HETATM   26  F1  UNL     1      47.560  50.363  41.423  1.00  0.00    -0.202 F 
HETATM   27  F2  UNL     1      49.829  50.463  41.286  1.00  0.00    -0.202 F 
ENDBRANCH  24  25
ENDBRANCH  19  24
ENDBRANCH  15  17
ENDBRANCH   1  15
TORSDOF 7
ENDMDL
MODEL 4
REMARK VINA RESULT: -6.490850876      4.029      6.898
REMARK  7 active torsions:
REMARK  status: ('A' for Active; 'I' for Inactive)
REMARK    1  A    between atoms: C5_6  and  C6_7 
REMARK       I    between atoms: C6_7  and  N1_9 
REMARK    2  A    between atoms: N1_9  and  C7_11 
REMARK    3  A    between atoms: C7_11  and  N2_13 
REMARK    4  A    between atoms: N2_13  and  C8_15 
REMARK    5  A    between atoms: C8_15  and  C10_17 
REMARK    6  A    between atoms: C11_20  and  S2_21 
REMARK    7  A    between atoms: S2_21  and  C12_22 
ROOT
HETATM    1  N2  UNL     1      52.128  50.703  35.233  1.00  0.00    -0.357 N 
ATOM      2  H2  UNL     1      51.968  49.921  35.868  1.00  0.00     0.162 HD
ENDROOT
BRANCH   1   3
HETATM    3  C7  UNL     1      53.131  50.604  34.231  1.00  0.00     0.175 C 
HETATM    4  S1  UNL     1      52.916  49.537  33.006  1.00  0.00    -0.041 SA
BRANCH   3   5
HETATM    5  N1  UNL     1      54.312  51.413  34.290  1.00  0.00    -0.300 N 
HETATM    6  C6  UNL     1      55.263  51.274  35.304  1.00  0.00     0.260 C 
HETATM    7  O2  UNL     1      55.036  50.392  36.198  1.00  0.00    -0.267 OA
ATOM      8  H1  UNL     1      54.464  52.116  33.566  1.00  0.00     0.171 HD
BRANCH   6   9
HETATM    9  C5  UNL     1      56.495  52.024  35.465  1.00  0.00     0.063 A 
HETATM   10  C2  UNL     1      56.680  53.303  35.842  1.00  0.00     0.064 A 
HETATM   11  C1  UNL     1      55.660  54.335  36.161  1.00  0.00     0.077 C 
HETATM   12  O1  UNL     1      57.992  53.560  35.895  1.00  0.00    -0.326 OA
HETATM   13  C3  UNL     1      58.671  52.474  35.562  1.00  0.00     0.143 A 
HETATM   14  C4  UNL     1      57.779  51.474  35.280  1.00  0.00     0.044 A 
ENDBRANCH   6   9
ENDBRANCH   3   5
ENDBRANCH   1   3
BRANCH   1  15
HETATM   15  C8  UNL     1      51.350  51.874  35.357  1.00  0.00     0.131 C 
HETATM   16  C9  UNL     1      51.969  53.001  36.103  1.00  0.00     0.039 C 
BRANCH  15  17
HETATM   17  C10 UNL     1      50.003  51.553  36.009  1.00  0.00     0.046 A 
HETATM   18  N3  UNL     1      49.905  50.841  37.088  1.00  0.00    -0.346 N 
HETATM   19  C11 UNL     1      48.721  50.598  37.614  1.00  0.00     0.117 A 
ATOM     20  H3  UNL     1      50.746  50.468  37.530  1.00  0.00     0.167 HD
HETATM   21  S3  UNL     1      47.663  51.406  36.548  1.00  0.00    -0.068 SA
HETATM   22  C13 UNL     1      48.823  52.026  35.464  1.00  0.00     0.006 A 
HETATM   23  C14 UNL     1      48.663  52.865  34.231  1.00  0.00     0.058 C 
BRANCH  19  24
HETATM   24  S2  UNL     1      48.333  49.638  39.103  1.00  0.00    -0.035 SA
BRANCH  24  25
HETATM   25  C12 UNL     1      48.815  50.633  40.541  1.00  0.00     0.422 C 
HETATM   26  F1  UNL     1      49.088  51.920  40.131  1.00  0.00    -0.202 F 
HETATM   27  F2  UNL     1      47.776  50.609  41.448  1.00  0.00    -0.202 F 
ENDBRANCH  24  25
ENDBRANCH  19  24
ENDBRANCH  15  17
ENDBRANCH   1  15
TORSDOF 7
ENDMDL
MODEL 5
REMARK VINA RESULT: -6.481053277      4.801      7.337
REMARK  7 active torsions:
REMARK  status: ('A' for Active; 'I' for Inactive)
REMARK    1  A    between atoms: C5_6  and  C6_7 
REMARK       I    between atoms: C6_7  and  N1_9 
REMARK    2  A    between atoms: N1_9  and  C7_11 
REMARK    3  A    between atoms: C7_11  and  N2_13 
REMARK    4  A    between atoms: N2_13  and  C8_15 
REMARK    5  A    between atoms: C8_15  and  C10_17 
REMARK    6  A    between atoms: C11_20  and  S2_21 
REMARK    7  A    between atoms: S2_21  and  C12_22 
ROOT
HETATM    1  N2  UNL     1      49.263  48.050  32.916  1.00  0.00    -0.357 N 
ATOM      2  H2  UNL     1      50.164  48.027  33.393  1.00  0.00     0.162 HD
ENDROOT
BRANCH   1   3
HETATM    3  C7  UNL     1      48.493  49.245  32.922  1.00  0.00     0.175 C 
HETATM    4  S1  UNL     1      47.659  49.649  31.570  1.00  0.00    -0.041 SA
BRANCH   3   5
HETATM    5  N1  UNL     1      48.450  50.087  34.081  1.00  0.00    -0.300 N 
HETATM    6  C6  UNL     1      47.987  49.631  35.318  1.00  0.00     0.260 C 
HETATM    7  O2  UNL     1      47.588  48.420  35.380  1.00  0.00    -0.267 OA
ATOM      8  H1  UNL     1      48.767  51.053  34.000  1.00  0.00     0.171 HD
BRANCH   6   9
HETATM    9  C5  UNL     1      47.903  50.381  36.557  1.00  0.00     0.063 A 
HETATM   10  C2  UNL     1      47.375  51.597  36.793  1.00  0.00     0.064 A 
HETATM   11  C1  UNL     1      46.760  52.546  35.829  1.00  0.00     0.077 C 
HETATM   12  O1  UNL     1      47.481  51.876  38.097  1.00  0.00    -0.326 OA
HETATM   13  C3  UNL     1      48.067  50.867  38.722  1.00  0.00     0.143 A 
HETATM   14  C4  UNL     1      48.356  49.897  37.801  1.00  0.00     0.044 A 
ENDBRANCH   6   9
ENDBRANCH   3   5
ENDBRANCH   1   3
BRANCH   1  15
HETATM   15  C8  UNL     1      48.791  46.895  32.257  1.00  0.00     0.131 C 
HETATM   16  C9  UNL     1      48.171  45.853  33.114  1.00  0.00     0.039 C 
BRANCH  15  17
HETATM   17  C10 UNL     1      49.919  46.243  31.453  1.00  0.00     0.046 A 
HETATM   18  N3  UNL     1      51.049  45.903  31.990  1.00  0.00    -0.346 N 
HETATM   19  C11 UNL     1      51.986  45.338  31.255  1.00  0.00     0.117 A 
ATOM     20  H3  UNL     1      51.212  46.074  32.983  1.00  0.00     0.167 HD
HETATM   21  S3  UNL     1      51.263  45.269  29.712  1.00  0.00    -0.068 SA
HETATM   22  C13 UNL     1      49.765  45.982  30.103  1.00  0.00     0.006 A 
HETATM   23  C14 UNL     1      48.566  46.274  29.251  1.00  0.00     0.058 C 
BRANCH  19  24
HETATM   24  S2  UNL     1      53.631  44.781  31.775  1.00  0.00    -0.035 SA
BRANCH  24  25
HETATM   25  C12 UNL     1      54.481  46.198  32.526  1.00  0.00     0.422 C 
HETATM   26  F1  UNL     1      53.557  46.988  33.176  1.00  0.00    -0.202 F 
HETATM   27  F2  UNL     1      55.429  45.715  33.403  1.00  0.00    -0.202 F 
ENDBRANCH  24  25
ENDBRANCH  19  24
ENDBRANCH  15  17
ENDBRANCH   1  15
TORSDOF 7
ENDMDL
