MODEL 1
REMARK VINA RESULT: -6.155730359      0.000      0.000
REMARK  5 active torsions:
REMARK  status: ('A' for Active; 'I' for Inactive)
REMARK    1  A    between atoms: O1_1  and  C1_3 
REMARK    2  A    between atoms: C1_3  and  C2_4 
REMARK    3  A    between atoms: C2_4  and  C3_5 
REMARK    4  A    between atoms: C9_12  and  O3_13 
REMARK    5  A    between atoms: C10_15  and  O4_16 
ROOT
HETATM    1  C3  UNL     1      58.761  52.075  36.885  1.00  0.00    -0.008 C 
HETATM    2  C4  UNL     1      59.047  51.158  35.732  1.00  0.00     0.031 C 
HETATM    3  C5  UNL     1      58.602  49.757  36.126  1.00  0.00     0.169 C 
HETATM    4  O2  UNL     1      57.738  49.766  37.195  1.00  0.00    -0.380 OA
HETATM    5  C6  UNL     1      56.736  50.729  37.137  1.00  0.00     0.064 C 
HETATM    6  C7  UNL     1      55.816  50.508  35.984  1.00  0.00     0.041 C 
HETATM    7  C8  UNL     1      54.732  49.504  36.257  1.00  0.00     0.037 C 
HETATM    8  C9  UNL     1      53.879  49.882  37.439  1.00  0.00     0.147 C 
HETATM    9  C10 UNL     1      54.542  50.897  38.341  1.00  0.00     0.149 C 
HETATM   10  C11 UNL     1      56.015  50.614  38.482  1.00  0.00     0.072 C 
HETATM   11  C12 UNL     1      57.260  52.144  37.041  1.00  0.00     0.043 C 
ENDROOT
BRANCH   9  12
HETATM   12  O4  UNL     1      54.296  52.195  37.958  1.00  0.00    -0.393 OA
ATOM     13  H4  UNL     1      55.019  52.582  37.476  1.00  0.00     0.210 HD
ENDBRANCH   9  12
BRANCH   1  14
HETATM   14  C2  UNL     1      59.387  53.422  36.800  1.00  0.00     0.031 C 
BRANCH  14  15
HETATM   15  C1  UNL     1      58.874  54.418  37.801  1.00  0.00     0.164 C 
BRANCH  15  16
HETATM   16  O1  UNL     1      59.271  54.186  39.094  1.00  0.00    -0.401 OA
ATOM     17  H1  UNL     1      58.824  53.466  39.523  1.00  0.00     0.209 HD
ENDBRANCH  15  16
ENDBRANCH  14  15
ENDBRANCH   1  14
BRANCH   8  18
HETATM   18  O3  UNL     1      53.669  48.715  38.181  1.00  0.00    -0.393 OA
ATOM     19  H3  UNL     1      54.002  48.879  39.055  1.00  0.00     0.210 HD
ENDBRANCH   8  18
TORSDOF 5
ENDMDL
MODEL 2
REMARK VINA RESULT: -6.002319753      1.806      5.423
REMARK  5 active torsions:
REMARK  status: ('A' for Active; 'I' for Inactive)
REMARK    1  A    between atoms: O1_1  and  C1_3 
REMARK    2  A    between atoms: C1_3  and  C2_4 
REMARK    3  A    between atoms: C2_4  and  C3_5 
REMARK    4  A    between atoms: C9_12  and  O3_13 
REMARK    5  A    between atoms: C10_15  and  O4_16 
ROOT
HETATM    1  C3  UNL     1      55.413  50.036  37.730  1.00  0.00    -0.008 C 
HETATM    2  C4  UNL     1      55.530  51.211  38.656  1.00  0.00     0.031 C 
HETATM    3  C5  UNL     1      56.964  51.267  39.161  1.00  0.00     0.169 C 
HETATM    4  O2  UNL     1      57.823  50.534  38.376  1.00  0.00    -0.380 OA
HETATM    5  C6  UNL     1      57.653  50.694  37.005  1.00  0.00     0.064 C 
HETATM    6  C7  UNL     1      57.935  52.092  36.567  1.00  0.00     0.041 C 
HETATM    7  C8  UNL     1      59.394  52.374  36.344  1.00  0.00     0.037 C 
HETATM    8  C9  UNL     1      60.010  51.456  35.322  1.00  0.00     0.147 C 
HETATM    9  C10 UNL     1      59.194  50.206  35.087  1.00  0.00     0.149 C 
HETATM   10  C11 UNL     1      58.619  49.686  36.379  1.00  0.00     0.072 C 
HETATM   11  C12 UNL     1      56.267  50.333  36.520  1.00  0.00     0.043 C 
ENDROOT
BRANCH   9  12
HETATM   12  O4  UNL     1      58.231  50.370  34.118  1.00  0.00    -0.393 OA
ATOM     13  H4  UNL     1      57.568  51.007  34.358  1.00  0.00     0.210 HD
ENDBRANCH   9  12
BRANCH   1  14
HETATM   14  C2  UNL     1      54.024  49.647  37.364  1.00  0.00     0.031 C 
BRANCH  14  15
HETATM   15  C1  UNL     1      53.052  49.639  38.510  1.00  0.00     0.164 C 
BRANCH  15  16
HETATM   16  O1  UNL     1      51.862  49.009  38.247  1.00  0.00    -0.401 OA
ATOM     17  H1  UNL     1      51.685  48.252  38.792  1.00  0.00     0.209 HD
ENDBRANCH  15  16
ENDBRANCH  14  15
ENDBRANCH   1  14
BRANCH   8  18
HETATM   18  O3  UNL     1      61.259  51.070  35.820  1.00  0.00    -0.393 OA
ATOM     19  H3  UNL     1      61.122  50.279  36.328  1.00  0.00     0.210 HD
ENDBRANCH   8  18
TORSDOF 5
ENDMDL
MODEL 3
REMARK VINA RESULT: -5.978591705      2.384      4.740
REMARK  5 active torsions:
REMARK  status: ('A' for Active; 'I' for Inactive)
REMARK    1  A    between atoms: O1_1  and  C1_3 
REMARK    2  A    between atoms: C1_3  and  C2_4 
REMARK    3  A    between atoms: C2_4  and  C3_5 
REMARK    4  A    between atoms: C9_12  and  O3_13 
REMARK    5  A    between atoms: C10_15  and  O4_16 
ROOT
HETATM    1  C3  UNL     1      58.006  49.922  34.157  1.00  0.00    -0.008 C 
HETATM    2  C4  UNL     1      59.507  49.916  34.135  1.00  0.00     0.031 C 
HETATM    3  C5  UNL     1      59.990  51.158  34.870  1.00  0.00     0.169 C 
HETATM    4  O2  UNL     1      59.012  51.707  35.666  1.00  0.00    -0.380 OA
HETATM    5  C6  UNL     1      58.286  50.795  36.423  1.00  0.00     0.064 C 
HETATM    6  C7  UNL     1      59.144  50.085  37.416  1.00  0.00     0.041 C 
HETATM    7  C8  UNL     1      59.362  50.854  38.688  1.00  0.00     0.037 C 
HETATM    8  C9  UNL     1      58.072  51.199  39.384  1.00  0.00     0.147 C 
HETATM    9  C10 UNL     1      56.872  51.111  38.471  1.00  0.00     0.149 C 
HETATM   10  C11 UNL     1      57.198  51.635  37.096  1.00  0.00     0.072 C 
HETATM   11  C12 UNL     1      57.579  49.745  35.595  1.00  0.00     0.043 C 
ENDROOT
BRANCH   9  12
HETATM   12  O4  UNL     1      56.321  49.851  38.430  1.00  0.00    -0.393 OA
ATOM     13  H4  UNL     1      56.973  49.160  38.479  1.00  0.00     0.210 HD
ENDBRANCH   9  12
BRANCH   1  14
HETATM   14  C2  UNL     1      57.351  48.946  33.245  1.00  0.00     0.031 C 
BRANCH  14  15
HETATM   15  C1  UNL     1      56.534  47.891  33.936  1.00  0.00     0.164 C 
BRANCH  15  16
HETATM   16  O1  UNL     1      55.536  47.346  33.169  1.00  0.00    -0.401 OA
ATOM     17  H1  UNL     1      54.903  46.828  33.652  1.00  0.00     0.209 HD
ENDBRANCH  15  16
ENDBRANCH  14  15
ENDBRANCH   1  14
BRANCH   8  18
HETATM   18  O3  UNL     1      58.186  52.522  39.823  1.00  0.00    -0.393 OA
ATOM     19  H3  UNL     1      57.304  52.850  39.946  1.00  0.00     0.210 HD
ENDBRANCH   8  18
TORSDOF 5
ENDMDL
MODEL 4
REMARK VINA RESULT: -5.869569125      1.964      5.282
REMARK  5 active torsions:
REMARK  status: ('A' for Active; 'I' for Inactive)
REMARK    1  A    between atoms: O1_1  and  C1_3 
REMARK    2  A    between atoms: C1_3  and  C2_4 
REMARK    3  A    between atoms: C2_4  and  C3_5 
REMARK    4  A    between atoms: C9_12  and  O3_13 
REMARK    5  A    between atoms: C10_15  and  O4_16 
ROOT
HETATM    1  C3  UNL     1      55.487  49.778  36.084  1.00  0.00    -0.008 C 
HETATM    2  C4  UNL     1      54.620  50.621  36.973  1.00  0.00     0.031 C 
HETATM    3  C5  UNL     1      55.202  50.571  38.378  1.00  0.00     0.169 C 
HETATM    4  O2  UNL     1      56.507  50.138  38.387  1.00  0.00    -0.380 OA
HETATM    5  C6  UNL     1      57.322  50.700  37.410  1.00  0.00     0.064 C 
HETATM    6  C7  UNL     1      57.473  52.173  37.588  1.00  0.00     0.041 C 
HETATM    7  C8  UNL     1      58.529  52.558  38.585  1.00  0.00     0.037 C 
HETATM    8  C9  UNL     1      59.887  52.014  38.228  1.00  0.00     0.147 C 
HETATM    9  C10 UNL     1      59.819  50.867  37.246  1.00  0.00     0.149 C 
HETATM   10  C11 UNL     1      58.655  49.961  37.552  1.00  0.00     0.072 C 
HETATM   11  C12 UNL     1      56.834  50.456  35.999  1.00  0.00     0.043 C 
ENDROOT
BRANCH   9  12
HETATM   12  O4  UNL     1      59.824  51.284  35.935  1.00  0.00    -0.393 OA
ATOM     13  H4  UNL     1      60.678  51.205  35.524  1.00  0.00     0.210 HD
ENDBRANCH   9  12
BRANCH   1  14
HETATM   14  C2  UNL     1      54.919  49.473  34.743  1.00  0.00     0.031 C 
BRANCH  14  15
HETATM   15  C1  UNL     1      55.820  48.670  33.847  1.00  0.00     0.164 C 
BRANCH  15  16
HETATM   16  O1  UNL     1      56.112  47.412  34.308  1.00  0.00    -0.401 OA
ATOM     17  H1  UNL     1      56.028  46.723  33.661  1.00  0.00     0.209 HD
ENDBRANCH  15  16
ENDBRANCH  14  15
ENDBRANCH   1  14
BRANCH   8  18
HETATM   18  O3  UNL     1      60.459  51.537  39.411  1.00  0.00    -0.393 OA
ATOM     19  H3  UNL     1      61.377  51.782  39.394  1.00  0.00     0.210 HD
ENDBRANCH   8  18
TORSDOF 5
ENDMDL
MODEL 5
REMARK VINA RESULT: -5.810279530      2.213      4.669
REMARK  5 active torsions:
REMARK  status: ('A' for Active; 'I' for Inactive)
REMARK    1  A    between atoms: O1_1  and  C1_3 
REMARK    2  A    between atoms: C1_3  and  C2_4 
REMARK    3  A    between atoms: C2_4  and  C3_5 
REMARK    4  A    between atoms: C9_12  and  O3_13 
REMARK    5  A    between atoms: C10_15  and  O4_16 
ROOT
HETATM    1  C3  UNL     1      56.858  49.775  34.881  1.00  0.00    -0.008 C 
HETATM    2  C4  UNL     1      58.271  49.570  34.418  1.00  0.00     0.031 C 
HETATM    3  C5  UNL     1      59.065  50.819  34.770  1.00  0.00     0.169 C 
HETATM    4  O2  UNL     1      58.435  51.587  35.721  1.00  0.00    -0.380 OA
HETATM    5  C6  UNL     1      57.904  50.880  36.795  1.00  0.00     0.064 C 
HETATM    6  C7  UNL     1      58.964  50.193  37.589  1.00  0.00     0.041 C 
HETATM    7  C8  UNL     1      59.633  51.081  38.601  1.00  0.00     0.037 C 
HETATM    8  C9  UNL     1      58.659  51.676  39.582  1.00  0.00     0.147 C 
HETATM    9  C10 UNL     1      57.231  51.633  39.091  1.00  0.00     0.149 C 
HETATM   10  C11 UNL     1      57.158  51.933  37.616  1.00  0.00     0.072 C 
HETATM   11  C12 UNL     1      56.887  49.837  36.391  1.00  0.00     0.043 C 
ENDROOT
BRANCH   9  12
HETATM   12  O4  UNL     1      56.588  50.461  39.415  1.00  0.00    -0.393 OA
ATOM     13  H4  UNL     1      56.469  49.884  38.669  1.00  0.00     0.210 HD
ENDBRANCH   9  12
BRANCH   1  14
HETATM   14  C2  UNL     1      55.870  48.787  34.371  1.00  0.00     0.031 C 
BRANCH  14  15
HETATM   15  C1  UNL     1      54.477  49.324  34.197  1.00  0.00     0.164 C 
BRANCH  15  16
HETATM   16  O1  UNL     1      53.705  49.293  35.331  1.00  0.00    -0.401 OA
ATOM     17  H1  UNL     1      54.064  49.772  36.068  1.00  0.00     0.209 HD
ENDBRANCH  15  16
ENDBRANCH  14  15
ENDBRANCH   1  14
BRANCH   8  18
HETATM   18  O3  UNL     1      59.019  53.017  39.751  1.00  0.00    -0.393 OA
ATOM     19  H3  UNL     1      58.758  53.265  40.630  1.00  0.00     0.210 HD
ENDBRANCH   8  18
TORSDOF 5
ENDMDL
