MODEL 1
REMARK VINA RESULT: -7.169230782      0.000      0.000
REMARK  4 active torsions:
REMARK  status: ('A' for Active; 'I' for Inactive)
REMARK    1  A    between atoms: C5_5  and  N1_6 
REMARK    2  A    between atoms: C8_11  and  C9_12 
REMARK    3  A    between atoms: C9_12  and  O1_13 
REMARK    4  A    between atoms: N3_15  and  O2_17 
ROOT
HETATM    1  N1  UNL     1      57.092  50.231  36.478  1.00  0.00    -0.365 N 
HETATM    2  C6  UNL     1      57.252  50.265  37.872  1.00  0.00     0.083 C 
HETATM    3  C7  UNL     1      56.241  51.044  38.647  1.00  0.00     0.160 C 
HETATM    4  N2  UNL     1      55.209  51.613  37.832  1.00  0.00    -0.402 N 
ATOM      5  H2  UNL     1      54.862  52.561  37.971  1.00  0.00     0.154 HD
HETATM    6  C8  UNL     1      54.701  50.748  36.806  1.00  0.00     0.193 C 
HETATM    7  C10 UNL     1      55.797  50.086  36.001  1.00  0.00     0.096 C 
ENDROOT
BRANCH   1   8
HETATM    8  C5  UNL     1      58.138  50.770  35.753  1.00  0.00     0.088 C 
HETATM    9  C4  UNL     1      59.421  50.694  36.561  1.00  0.00     0.026 C 
HETATM   10  C3  UNL     1      60.193  49.489  36.004  1.00  0.00     0.006 C 
HETATM   11  C2  UNL     1      60.813  49.907  34.705  1.00  0.00    -0.019 C 
HETATM   12  C1  UNL     1      62.011  50.771  35.026  1.00  0.00     0.010 C 
HETATM   13  C12 UNL     1      59.757  50.698  33.919  1.00  0.00     0.006 C 
HETATM   14  C11 UNL     1      58.382  50.244  34.377  1.00  0.00     0.026 C 
ENDBRANCH   1   8
BRANCH   6  15
HETATM   15  C9  UNL     1      53.852  49.719  37.460  1.00  0.00     0.163 C 
HETATM   16  N3  UNL     1      52.641  49.956  37.836  1.00  0.00    -0.249 N 
ATOM     17  H3  UNL     1      52.260  50.887  37.675  1.00  0.00     0.196 HD
BRANCH  15  18
HETATM   18  O1  UNL     1      54.347  48.438  37.696  1.00  0.00    -0.346 OA
ATOM     19  H1  UNL     1      54.217  48.018  38.538  1.00  0.00     0.219 HD
ENDBRANCH  15  18
BRANCH  16  20
HETATM   20  O2  UNL     1      51.843  49.028  38.438  1.00  0.00    -0.288 OA
ATOM     21  H2  UNL     1      50.987  48.778  38.110  1.00  0.00     0.244 HD
ENDBRANCH  16  20
ENDBRANCH   6  15
TORSDOF 4
ENDMDL
MODEL 2
REMARK VINA RESULT: -6.753128311      3.163      4.846
REMARK  4 active torsions:
REMARK  status: ('A' for Active; 'I' for Inactive)
REMARK    1  A    between atoms: C5_5  and  N1_6 
REMARK    2  A    between atoms: C8_11  and  C9_12 
REMARK    3  A    between atoms: C9_12  and  O1_13 
REMARK    4  A    between atoms: N3_15  and  O2_17 
ROOT
HETATM    1  N1  UNL     1      57.557  50.102  37.280  1.00  0.00    -0.365 N 
HETATM    2  C6  UNL     1      58.940  50.053  37.051  1.00  0.00     0.083 C 
HETATM    3  C7  UNL     1      59.778  51.062  37.764  1.00  0.00     0.160 C 
HETATM    4  N2  UNL     1      59.026  51.918  38.633  1.00  0.00    -0.402 N 
ATOM      5  H2  UNL     1      59.195  52.922  38.694  1.00  0.00     0.154 HD
HETATM    6  C8  UNL     1      58.017  51.257  39.412  1.00  0.00     0.193 C 
HETATM    7  C10 UNL     1      57.148  50.336  38.585  1.00  0.00     0.096 C 
ENDROOT
BRANCH   1   8
HETATM    8  C5  UNL     1      56.783  50.346  36.161  1.00  0.00     0.088 C 
HETATM    9  C4  UNL     1      57.535  49.925  34.910  1.00  0.00     0.026 C 
HETATM   10  C3  UNL     1      56.952  48.561  34.514  1.00  0.00     0.006 C 
HETATM   11  C2  UNL     1      55.625  48.806  33.862  1.00  0.00    -0.019 C 
HETATM   12  C1  UNL     1      55.888  49.316  32.464  1.00  0.00     0.010 C 
HETATM   13  C12 UNL     1      54.880  49.855  34.702  1.00  0.00     0.006 C 
HETATM   14  C11 UNL     1      55.401  49.782  36.127  1.00  0.00     0.026 C 
ENDBRANCH   1   8
BRANCH   6  15
HETATM   15  C9  UNL     1      58.703  50.490  40.483  1.00  0.00     0.163 C 
HETATM   16  N3  UNL     1      59.425  51.056  41.389  1.00  0.00    -0.249 N 
ATOM     17  H3  UNL     1      59.523  52.071  41.362  1.00  0.00     0.196 HD
BRANCH  15  18
HETATM   18  O1  UNL     1      58.590  49.102  40.544  1.00  0.00    -0.346 OA
ATOM     19  H1  UNL     1      58.436  48.666  41.373  1.00  0.00     0.219 HD
ENDBRANCH  15  18
BRANCH  16  20
HETATM   20  O2  UNL     1      60.064  50.374  42.382  1.00  0.00    -0.288 OA
ATOM     21  H2  UNL     1      60.435  49.506  42.270  1.00  0.00     0.244 HD
ENDBRANCH  16  20
ENDBRANCH   6  15
TORSDOF 4
ENDMDL
MODEL 3
REMARK VINA RESULT: -6.733938043      0.956      1.262
REMARK  4 active torsions:
REMARK  status: ('A' for Active; 'I' for Inactive)
REMARK    1  A    between atoms: C5_5  and  N1_6 
REMARK    2  A    between atoms: C8_11  and  C9_12 
REMARK    3  A    between atoms: C9_12  and  O1_13 
REMARK    4  A    between atoms: N3_15  and  O2_17 
ROOT
HETATM    1  N1  UNL     1      57.510  50.402  37.056  1.00  0.00    -0.365 N 
HETATM    2  C6  UNL     1      57.432  50.167  38.437  1.00  0.00     0.083 C 
HETATM    3  C7  UNL     1      56.337  50.859  39.178  1.00  0.00     0.160 C 
HETATM    4  N2  UNL     1      55.482  51.641  38.335  1.00  0.00    -0.402 N 
ATOM      5  H2  UNL     1      55.154  52.570  38.598  1.00  0.00     0.154 HD
HETATM    6  C8  UNL     1      55.121  51.019  37.093  1.00  0.00     0.193 C 
HETATM    7  C10 UNL     1      56.310  50.440  36.360  1.00  0.00     0.096 C 
ENDROOT
BRANCH   1   8
HETATM    8  C5  UNL     1      58.685  50.988  36.624  1.00  0.00     0.088 C 
HETATM    9  C4  UNL     1      59.489  49.994  35.805  1.00  0.00     0.026 C 
HETATM   10  C3  UNL     1      59.241  50.368  34.336  1.00  0.00     0.006 C 
HETATM   11  C2  UNL     1      60.070  51.578  34.029  1.00  0.00    -0.019 C 
HETATM   12  C1  UNL     1      61.503  51.124  33.873  1.00  0.00     0.010 C 
HETATM   13  C12 UNL     1      59.925  52.552  35.208  1.00  0.00     0.006 C 
HETATM   14  C11 UNL     1      58.594  52.284  35.889  1.00  0.00     0.026 C 
ENDBRANCH   1   8
BRANCH   6  15
HETATM   15  C9  UNL     1      54.133  49.951  37.392  1.00  0.00     0.163 C 
HETATM   16  N3  UNL     1      53.001  50.193  37.962  1.00  0.00    -0.249 N 
ATOM     17  H3  UNL     1      52.785  51.157  38.214  1.00  0.00     0.196 HD
BRANCH  15  18
HETATM   18  O1  UNL     1      54.402  48.624  37.062  1.00  0.00    -0.346 OA
ATOM     19  H1  UNL     1      55.023  48.414  36.375  1.00  0.00     0.219 HD
ENDBRANCH  15  18
BRANCH  16  20
HETATM   20  O2  UNL     1      52.078  49.230  38.247  1.00  0.00    -0.288 OA
ATOM     21  H2  UNL     1      51.973  48.838  39.106  1.00  0.00     0.244 HD
ENDBRANCH  16  20
ENDBRANCH   6  15
TORSDOF 4
ENDMDL
MODEL 4
REMARK VINA RESULT: -6.591515829      1.529      2.118
REMARK  4 active torsions:
REMARK  status: ('A' for Active; 'I' for Inactive)
REMARK    1  A    between atoms: C5_5  and  N1_6 
REMARK    2  A    between atoms: C8_11  and  C9_12 
REMARK    3  A    between atoms: C9_12  and  O1_13 
REMARK    4  A    between atoms: N3_15  and  O2_17 
ROOT
HETATM    1  N1  UNL     1      57.351  50.479  36.911  1.00  0.00    -0.365 N 
HETATM    2  C6  UNL     1      57.377  50.207  38.287  1.00  0.00     0.083 C 
HETATM    3  C7  UNL     1      56.317  50.847  39.121  1.00  0.00     0.160 C 
HETATM    4  N2  UNL     1      55.383  51.623  38.361  1.00  0.00    -0.402 N 
ATOM      5  H2  UNL     1      55.048  52.535  38.672  1.00  0.00     0.154 HD
HETATM    6  C8  UNL     1      54.954  51.022  37.131  1.00  0.00     0.193 C 
HETATM    7  C10 UNL     1      56.105  50.498  36.301  1.00  0.00     0.096 C 
ENDROOT
BRANCH   1   8
HETATM    8  C5  UNL     1      58.475  51.112  36.415  1.00  0.00     0.088 C 
HETATM    9  C4  UNL     1      58.299  52.619  36.494  1.00  0.00     0.026 C 
HETATM   10  C3  UNL     1      59.094  53.065  37.730  1.00  0.00     0.006 C 
HETATM   11  C2  UNL     1      60.546  53.065  37.361  1.00  0.00    -0.019 C 
HETATM   12  C1  UNL     1      60.804  54.290  36.514  1.00  0.00     0.010 C 
HETATM   13  C12 UNL     1      60.825  51.778  36.570  1.00  0.00     0.006 C 
HETATM   14  C11 UNL     1      59.803  50.733  36.982  1.00  0.00     0.026 C 
ENDBRANCH   1   8
BRANCH   6  15
HETATM   15  C9  UNL     1      54.020  49.917  37.468  1.00  0.00     0.163 C 
HETATM   16  N3  UNL     1      52.855  50.125  37.981  1.00  0.00    -0.249 N 
ATOM     17  H3  UNL     1      52.572  51.088  38.158  1.00  0.00     0.196 HD
BRANCH  15  18
HETATM   18  O1  UNL     1      54.381  48.590  37.240  1.00  0.00    -0.346 OA
ATOM     19  H1  UNL     1      54.121  48.150  36.439  1.00  0.00     0.219 HD
ENDBRANCH  15  18
BRANCH  16  20
HETATM   20  O2  UNL     1      51.980  49.127  38.299  1.00  0.00    -0.288 OA
ATOM     21  H2  UNL     1      51.036  49.217  38.240  1.00  0.00     0.244 HD
ENDBRANCH  16  20
ENDBRANCH   6  15
TORSDOF 4
ENDMDL
MODEL 5
REMARK VINA RESULT: -6.438304532      2.973      4.067
REMARK  4 active torsions:
REMARK  status: ('A' for Active; 'I' for Inactive)
REMARK    1  A    between atoms: C5_5  and  N1_6 
REMARK    2  A    between atoms: C8_11  and  C9_12 
REMARK    3  A    between atoms: C9_12  and  O1_13 
REMARK    4  A    between atoms: N3_15  and  O2_17 
ROOT
HETATM    1  N1  UNL     1      56.291  50.316  37.579  1.00  0.00    -0.365 N 
HETATM    2  C6  UNL     1      55.158  49.623  38.029  1.00  0.00     0.083 C 
HETATM    3  C7  UNL     1      53.890  49.839  37.271  1.00  0.00     0.160 C 
HETATM    4  N2  UNL     1      54.041  50.708  36.142  1.00  0.00    -0.402 N 
ATOM      5  H2  UNL     1      53.358  51.429  35.910  1.00  0.00     0.154 HD
HETATM    6  C8  UNL     1      55.225  50.489  35.360  1.00  0.00     0.193 C 
HETATM    7  C10 UNL     1      56.475  50.390  36.206  1.00  0.00     0.096 C 
ENDROOT
BRANCH   1   8
HETATM    8  C5  UNL     1      56.844  51.196  38.491  1.00  0.00     0.088 C 
HETATM    9  C4  UNL     1      57.355  50.434  39.701  1.00  0.00     0.026 C 
HETATM   10  C3  UNL     1      58.874  50.320  39.508  1.00  0.00     0.006 C 
HETATM   11  C2  UNL     1      59.477  51.648  39.854  1.00  0.00    -0.019 C 
HETATM   12  C1  UNL     1      59.483  51.771  41.360  1.00  0.00     0.010 C 
HETATM   13  C12 UNL     1      58.603  52.737  39.214  1.00  0.00     0.006 C 
HETATM   14  C11 UNL     1      57.898  52.137  38.010  1.00  0.00     0.026 C 
ENDBRANCH   1   8
BRANCH   6  15
HETATM   15  C9  UNL     1      55.029  49.237  34.585  1.00  0.00     0.163 C 
HETATM   16  N3  UNL     1      55.936  48.323  34.502  1.00  0.00    -0.249 N 
ATOM     17  H3  UNL     1      56.818  48.475  34.991  1.00  0.00     0.196 HD
BRANCH  15  18
HETATM   18  O1  UNL     1      53.836  49.004  33.904  1.00  0.00    -0.346 OA
ATOM     19  H1  UNL     1      53.668  49.421  33.068  1.00  0.00     0.219 HD
ENDBRANCH  15  18
BRANCH  16  20
HETATM   20  O2  UNL     1      55.780  47.166  33.797  1.00  0.00    -0.288 OA
ATOM     21  H2  UNL     1      56.370  46.424  33.867  1.00  0.00     0.244 HD
ENDBRANCH  16  20
ENDBRANCH   6  15
TORSDOF 4
ENDMDL
