MODEL 1
REMARK VINA RESULT: -6.576828919      0.000      0.000
REMARK  2 active torsions:
REMARK  status: ('A' for Active; 'I' for Inactive)
REMARK    1  A    between atoms: C2_2  and  C3_3 
REMARK    2  A    between atoms: C3_3  and  N1_4 
ROOT
HETATM    1  N1  UNL     1      56.013  50.110  35.759  1.00  0.00    -0.356 N 
HETATM    2  C4  UNL     1      57.453  50.267  35.724  1.00  0.00     0.129 C 
HETATM    3  C5  UNL     1      57.935  50.028  37.131  1.00  0.00     0.074 C 
HETATM    4  C6  UNL     1      57.313  51.014  38.112  1.00  0.00     0.117 C 
HETATM    5  C7  UNL     1      57.941  52.415  37.819  1.00  0.00     0.133 C 
HETATM    6  C8  UNL     1      58.825  52.583  38.887  1.00  0.00    -0.178 C 
HETATM    7  C9  UNL     1      59.732  52.814  39.926  1.00  0.00     0.087 C 
HETATM    8  C10 UNL     1      59.597  51.510  40.771  1.00  0.00     0.087 C 
HETATM    9  C11 UNL     1      58.506  50.636  40.449  1.00  0.00     0.073 C 
HETATM   10  N2  UNL     1      58.325  49.743  41.394  1.00  0.00    -0.389 N 
ATOM     11  H21 UNL     1      57.550  49.121  41.165  1.00  0.00     0.157 HD
ATOM     12  H22 UNL     1      59.000  49.855  42.151  1.00  0.00     0.157 HD
HETATM   13  N3  UNL     1      57.569  50.479  39.397  1.00  0.00    -0.353 N 
ATOM     14  H3  UNL     1      56.874  49.773  39.637  1.00  0.00     0.163 HD
HETATM   15  N4  UNL     1      55.926  51.189  37.905  1.00  0.00    -0.337 N 
ATOM     16  H4  UNL     1      55.370  51.655  38.622  1.00  0.00     0.164 HD
HETATM   17  C12 UNL     1      55.359  50.784  36.855  1.00  0.00     0.188 C 
HETATM   18  N5  UNL     1      53.942  50.980  36.649  1.00  0.00    -0.064 NA
ENDROOT
BRANCH   1  19
HETATM   19  C3  UNL     1      55.290  49.368  34.781  1.00  0.00     0.125 C 
BRANCH  19  20
HETATM   20  C2  UNL     1      56.168  48.655  33.771  1.00  0.00     0.015 C 
HETATM   21  C1  UNL     1      55.956  49.301  32.420  1.00  0.00     0.006 C 
ENDBRANCH  19  20
ENDBRANCH   1  19
TORSDOF 2
ENDMDL
MODEL 2
REMARK VINA RESULT: -6.306644917      1.051      1.174
REMARK  2 active torsions:
REMARK  status: ('A' for Active; 'I' for Inactive)
REMARK    1  A    between atoms: C2_2  and  C3_3 
REMARK    2  A    between atoms: C3_3  and  N1_4 
ROOT
HETATM    1  N1  UNL     1      56.671  50.500  36.501  1.00  0.00    -0.356 N 
HETATM    2  C4  UNL     1      58.116  50.505  36.618  1.00  0.00     0.129 C 
HETATM    3  C5  UNL     1      58.421  50.135  38.046  1.00  0.00     0.074 C 
HETATM    4  C6  UNL     1      57.802  51.122  39.027  1.00  0.00     0.117 C 
HETATM    5  C7  UNL     1      58.594  52.464  38.893  1.00  0.00     0.133 C 
HETATM    6  C8  UNL     1      59.374  52.475  40.051  1.00  0.00    -0.178 C 
HETATM    7  C9  UNL     1      60.186  52.547  41.188  1.00  0.00     0.087 C 
HETATM    8  C10 UNL     1      59.834  51.218  41.924  1.00  0.00     0.087 C 
HETATM    9  C11 UNL     1      58.701  50.485  41.437  1.00  0.00     0.073 C 
HETATM   10  N2  UNL     1      58.334  49.563  42.297  1.00  0.00    -0.389 N 
ATOM     11  H21 UNL     1      57.528  49.042  41.951  1.00  0.00     0.157 HD
ATOM     12  H22 UNL     1      58.933  49.559  43.122  1.00  0.00     0.157 HD
HETATM   13  N3  UNL     1      57.867  50.490  40.290  1.00  0.00    -0.353 N 
ATOM     14  H3  UNL     1      57.084  49.849  40.412  1.00  0.00     0.163 HD
HETATM   15  N4  UNL     1      56.469  51.456  38.697  1.00  0.00    -0.337 N 
ATOM     16  H4  UNL     1      55.890  51.936  39.386  1.00  0.00     0.164 HD
HETATM   17  C12 UNL     1      55.977  51.175  37.571  1.00  0.00     0.188 C 
HETATM   18  N5  UNL     1      54.616  51.532  37.242  1.00  0.00    -0.064 NA
ENDROOT
BRANCH   1  19
HETATM   19  C3  UNL     1      55.984  49.898  35.408  1.00  0.00     0.125 C 
BRANCH  19  20
HETATM   20  C2  UNL     1      56.898  49.291  34.362  1.00  0.00     0.015 C 
HETATM   21  C1  UNL     1      56.265  48.009  33.867  1.00  0.00     0.006 C 
ENDBRANCH  19  20
ENDBRANCH   1  19
TORSDOF 2
ENDMDL
MODEL 3
REMARK VINA RESULT: -6.299741016      1.855      6.492
REMARK  2 active torsions:
REMARK  status: ('A' for Active; 'I' for Inactive)
REMARK    1  A    between atoms: C2_2  and  C3_3 
REMARK    2  A    between atoms: C3_3  and  N1_4 
ROOT
HETATM    1  N1  UNL     1      59.598  51.454  41.699  1.00  0.00    -0.356 N 
HETATM    2  C4  UNL     1      59.595  52.276  40.505  1.00  0.00     0.129 C 
HETATM    3  C5  UNL     1      58.262  52.045  39.842  1.00  0.00     0.074 C 
HETATM    4  C6  UNL     1      58.061  50.579  39.481  1.00  0.00     0.117 C 
HETATM    5  C7  UNL     1      59.038  50.254  38.305  1.00  0.00     0.133 C 
HETATM    6  C8  UNL     1      58.180  50.190  37.205  1.00  0.00    -0.178 C 
HETATM    7  C9  UNL     1      57.379  50.115  36.061  1.00  0.00     0.087 C 
HETATM    8  C10 UNL     1      55.962  50.423  36.636  1.00  0.00     0.087 C 
HETATM    9  C11 UNL     1      55.827  50.431  38.064  1.00  0.00     0.073 C 
HETATM   10  N2  UNL     1      54.562  50.409  38.416  1.00  0.00    -0.389 N 
ATOM     11  H21 UNL     1      54.466  50.414  39.432  1.00  0.00     0.157 HD
ATOM     12  H22 UNL     1      53.946  50.397  37.603  1.00  0.00     0.157 HD
HETATM   13  N3  UNL     1      56.683  50.447  39.194  1.00  0.00    -0.353 N 
ATOM     14  H3  UNL     1      56.146  50.329  40.053  1.00  0.00     0.163 HD
HETATM   15  N4  UNL     1      58.447  49.703  40.522  1.00  0.00    -0.337 N 
ATOM     16  H4  UNL     1      58.166  48.724  40.479  1.00  0.00     0.164 HD
HETATM   17  C12 UNL     1      59.130  50.103  41.502  1.00  0.00     0.188 C 
HETATM   18  N5  UNL     1      59.528  49.195  42.554  1.00  0.00    -0.064 NA
ENDROOT
BRANCH   1  19
HETATM   19  C3  UNL     1      60.047  51.927  42.966  1.00  0.00     0.125 C 
BRANCH  19  20
HETATM   20  C2  UNL     1      59.017  52.747  43.719  1.00  0.00     0.015 C 
HETATM   21  C1  UNL     1      58.501  51.913  44.871  1.00  0.00     0.006 C 
ENDBRANCH  19  20
ENDBRANCH   1  19
TORSDOF 2
ENDMDL
MODEL 4
REMARK VINA RESULT: -6.282170373      1.911      3.102
REMARK  2 active torsions:
REMARK  status: ('A' for Active; 'I' for Inactive)
REMARK    1  A    between atoms: C2_2  and  C3_3 
REMARK    2  A    between atoms: C3_3  and  N1_4 
ROOT
HETATM    1  N1  UNL     1      57.013  50.218  37.113  1.00  0.00    -0.356 N 
HETATM    2  C4  UNL     1      56.340  50.418  38.382  1.00  0.00     0.129 C 
HETATM    3  C5  UNL     1      57.167  51.424  39.140  1.00  0.00     0.074 C 
HETATM    4  C6  UNL     1      58.590  50.927  39.362  1.00  0.00     0.117 C 
HETATM    5  C7  UNL     1      58.516  49.761  40.401  1.00  0.00     0.133 C 
HETATM    6  C8  UNL     1      59.009  50.357  41.563  1.00  0.00    -0.178 C 
HETATM    7  C9  UNL     1      59.489  50.892  42.763  1.00  0.00     0.087 C 
HETATM    8  C10 UNL     1      59.803  52.365  42.360  1.00  0.00     0.087 C 
HETATM    9  C11 UNL     1      59.779  52.675  40.959  1.00  0.00     0.073 C 
HETATM   10  N2  UNL     1      60.335  53.842  40.728  1.00  0.00    -0.389 N 
ATOM     11  H21 UNL     1      60.318  54.063  39.732  1.00  0.00     0.157 HD
ATOM     12  H22 UNL     1      60.659  54.281  41.589  1.00  0.00     0.157 HD
HETATM   13  N3  UNL     1      59.329  52.065  39.762  1.00  0.00    -0.353 N 
ATOM     14  H3  UNL     1      59.624  52.606  38.950  1.00  0.00     0.163 HD
HETATM   15  N4  UNL     1      59.151  50.342  38.203  1.00  0.00    -0.337 N 
ATOM     16  H4  UNL     1      60.156  50.168  38.169  1.00  0.00     0.164 HD
HETATM   17  C12 UNL     1      58.440  50.031  37.210  1.00  0.00     0.188 C 
HETATM   18  N5  UNL     1      59.024  49.423  36.036  1.00  0.00    -0.064 NA
ENDROOT
BRANCH   1  19
HETATM   19  C3  UNL     1      56.324  50.186  35.867  1.00  0.00     0.125 C 
BRANCH  19  20
HETATM   20  C2  UNL     1      54.855  49.827  35.981  1.00  0.00     0.015 C 
HETATM   21  C1  UNL     1      54.367  49.391  34.618  1.00  0.00     0.006 C 
ENDBRANCH  19  20
ENDBRANCH   1  19
TORSDOF 2
ENDMDL
MODEL 5
REMARK VINA RESULT: -6.252811458      1.363      5.904
REMARK  2 active torsions:
REMARK  status: ('A' for Active; 'I' for Inactive)
REMARK    1  A    between atoms: C2_2  and  C3_3 
REMARK    2  A    between atoms: C3_3  and  N1_4 
ROOT
HETATM    1  N1  UNL     1      58.784  51.707  38.512  1.00  0.00    -0.356 N 
HETATM    2  C4  UNL     1      58.779  52.245  37.166  1.00  0.00     0.129 C 
HETATM    3  C5  UNL     1      57.491  51.784  36.536  1.00  0.00     0.074 C 
HETATM    4  C6  UNL     1      57.394  50.264  36.503  1.00  0.00     0.117 C 
HETATM    5  C7  UNL     1      58.436  49.757  35.453  1.00  0.00     0.133 C 
HETATM    6  C8  UNL     1      57.629  49.395  34.373  1.00  0.00    -0.178 C 
HETATM    7  C9  UNL     1      56.880  49.017  33.254  1.00  0.00     0.087 C 
HETATM    8  C10 UNL     1      55.425  49.345  33.709  1.00  0.00     0.087 C 
HETATM    9  C11 UNL     1      55.232  49.657  35.096  1.00  0.00     0.073 C 
HETATM   10  N2  UNL     1      53.958  49.626  35.411  1.00  0.00    -0.389 N 
ATOM     11  H21 UNL     1      53.820  49.848  36.397  1.00  0.00     0.157 HD
ATOM     12  H22 UNL     1      53.377  49.395  34.605  1.00  0.00     0.157 HD
HETATM   13  N3  UNL     1      56.039  49.979  36.216  1.00  0.00    -0.353 N 
ATOM     14  H3  UNL     1      55.476  50.016  37.066  1.00  0.00     0.163 HD
HETATM   15  N4  UNL     1      57.790  49.666  37.722  1.00  0.00    -0.337 N 
ATOM     16  H4  UNL     1      57.571  48.684  37.889  1.00  0.00     0.164 HD
HETATM   17  C12 UNL     1      58.408  50.317  38.606  1.00  0.00     0.188 C 
HETATM   18  N5  UNL     1      58.817  49.691  39.843  1.00  0.00    -0.064 NA
ENDROOT
BRANCH   1  19
HETATM   19  C3  UNL     1      59.152  52.476  39.653  1.00  0.00     0.125 C 
BRANCH  19  20
HETATM   20  C2  UNL     1      60.286  53.450  39.404  1.00  0.00     0.015 C 
HETATM   21  C1  UNL     1      61.593  52.704  39.557  1.00  0.00     0.006 C 
ENDBRANCH  19  20
ENDBRANCH   1  19
TORSDOF 2
ENDMDL
