MODEL 1
REMARK VINA RESULT: -11.504288713      0.000      0.000
REMARK  5 active torsions:
REMARK  status: ('A' for Active; 'I' for Inactive)
REMARK       I    between atoms: C1_2  and  N1_3 
REMARK    1  A    between atoms: C1_2  and  C24_30 
REMARK    2  A    between atoms: N1_3  and  C2_5 
REMARK    3  A    between atoms: C6_9  and  C7_10 
REMARK    4  A    between atoms: C10_13  and  C11_14 
REMARK    5  A    between atoms: C11_14  and  C12_15 
ROOT
HETATM    1  C7  UNL     1      12.674  22.526  34.389  1.00  0.00    -0.026 A 
HETATM    2  C8  UNL     1      11.483  22.690  33.720  1.00  0.00     0.013 A 
HETATM    3  C9  UNL     1      10.562  23.646  34.149  1.00  0.00     0.008 A 
HETATM    4  C10 UNL     1      10.829  24.452  35.264  1.00  0.00    -0.054 A 
HETATM    5  C21 UNL     1      12.016  24.242  35.879  1.00  0.00     0.008 A 
HETATM    6  C22 UNL     1      12.951  23.308  35.485  1.00  0.00     0.013 A 
ENDROOT
BRANCH   1   7
HETATM    7  C6  UNL     1      13.611  21.524  33.924  1.00  0.00    -0.024 A 
HETATM    8  C5  UNL     1      14.766  21.882  33.268  1.00  0.00     0.012 A 
HETATM    9  C4  UNL     1      15.672  20.928  32.823  1.00  0.00     0.003 A 
HETATM   10  C3  UNL     1      15.388  19.612  33.054  1.00  0.00     0.029 A 
HETATM   11  C2  UNL     1      14.218  19.180  33.722  1.00  0.00     0.035 A 
HETATM   12  C23 UNL     1      13.360  20.160  34.140  1.00  0.00     0.042 A 
BRANCH  11  13
HETATM   13  N1  UNL     1      14.048  17.799  33.919  1.00  0.00    -0.323 N 
HETATM   14  C1  UNL     1      15.084  16.885  34.110  1.00  0.00     0.259 C 
HETATM   15  O1  UNL     1      16.315  17.130  34.143  1.00  0.00    -0.267 OA
ATOM     16  H1  UNL     1      13.094  17.438  33.922  1.00  0.00     0.169 HD
BRANCH  14  17
HETATM   17  C24 UNL     1      14.762  15.444  34.300  1.00  0.00     0.066 A 
HETATM   18  C25 UNL     1      13.522  14.895  34.423  1.00  0.00     0.125 A 
HETATM   19  N3  UNL     1      13.695  13.571  34.580  1.00  0.00    -0.311 N 
HETATM   20  N4  UNL     1      14.982  13.271  34.559  1.00  0.00    -0.311 N 
ATOM     21  H3  UNL     1      12.941  12.894  34.698  1.00  0.00     0.186 HD
HETATM   22  C26 UNL     1      15.667  14.411  34.388  1.00  0.00     0.125 A 
ATOM     23  H4  UNL     1      15.383  12.338  34.657  1.00  0.00     0.186 HD
ENDBRANCH  14  17
ENDBRANCH  11  13
ENDBRANCH   1   7
BRANCH   4  24
HETATM   24  C11 UNL     1       9.773  25.414  35.640  1.00  0.00     0.078 C 
BRANCH  24  25
HETATM   25  C12 UNL     1       8.803  25.705  34.567  1.00  0.00    -0.036 A 
HETATM   26  C13 UNL     1       9.288  26.399  33.442  1.00  0.00     0.082 A 
HETATM   27  C14 UNL     1       8.391  26.753  32.460  1.00  0.00     0.246 A 
HETATM   28  O2  UNL     1       8.883  27.378  31.465  1.00  0.00    -0.268 OA
HETATM   29  N2  UNL     1       7.086  26.458  32.545  1.00  0.00    -0.323 N 
HETATM   30  C15 UNL     1       6.634  25.793  33.624  1.00  0.00     0.045 A 
ATOM     31  H2  UNL     1       6.445  26.733  31.802  1.00  0.00     0.169 HD
HETATM   32  C16 UNL     1       5.287  25.468  33.707  1.00  0.00     0.030 A 
HETATM   33  C20 UNL     1       7.483  25.396  34.667  1.00  0.00    -0.003 A 
HETATM   34  C17 UNL     1       4.786  24.772  34.785  1.00  0.00     0.002 A 
HETATM   35  C18 UNL     1       5.605  24.369  35.821  1.00  0.00     0.001 A 
HETATM   36  C19 UNL     1       6.969  24.705  35.725  1.00  0.00     0.014 A 
ENDBRANCH  24  25
ENDBRANCH   4  24
TORSDOF 5
ENDMDL
MODEL 2
REMARK VINA RESULT: -11.202633373      1.406      2.331
REMARK  5 active torsions:
REMARK  status: ('A' for Active; 'I' for Inactive)
REMARK       I    between atoms: C1_2  and  N1_3 
REMARK    1  A    between atoms: C1_2  and  C24_30 
REMARK    2  A    between atoms: N1_3  and  C2_5 
REMARK    3  A    between atoms: C6_9  and  C7_10 
REMARK    4  A    between atoms: C10_13  and  C11_14 
REMARK    5  A    between atoms: C11_14  and  C12_15 
ROOT
HETATM    1  C7  UNL     1      12.936  22.436  34.536  1.00  0.00    -0.026 A 
HETATM    2  C8  UNL     1      11.570  22.270  34.520  1.00  0.00     0.013 A 
HETATM    3  C9  UNL     1      10.739  23.231  35.097  1.00  0.00     0.008 A 
HETATM    4  C10 UNL     1      11.276  24.377  35.700  1.00  0.00    -0.054 A 
HETATM    5  C21 UNL     1      12.624  24.482  35.684  1.00  0.00     0.008 A 
HETATM    6  C22 UNL     1      13.478  23.554  35.124  1.00  0.00     0.013 A 
ENDROOT
BRANCH   1   7
HETATM    7  C6  UNL     1      13.776  21.421  33.933  1.00  0.00    -0.024 A 
HETATM    8  C5  UNL     1      14.841  21.764  33.134  1.00  0.00     0.012 A 
HETATM    9  C4  UNL     1      15.654  20.797  32.556  1.00  0.00     0.003 A 
HETATM   10  C3  UNL     1      15.368  19.483  32.803  1.00  0.00     0.029 A 
HETATM   11  C2  UNL     1      14.288  19.067  33.615  1.00  0.00     0.035 A 
HETATM   12  C23 UNL     1      13.519  20.060  34.160  1.00  0.00     0.042 A 
BRANCH  11  13
HETATM   13  N1  UNL     1      14.108  17.688  33.810  1.00  0.00    -0.323 N 
HETATM   14  C1  UNL     1      15.123  16.788  34.137  1.00  0.00     0.259 C 
HETATM   15  O1  UNL     1      16.339  17.047  34.314  1.00  0.00    -0.267 OA
ATOM     16  H1  UNL     1      13.165  17.315  33.705  1.00  0.00     0.169 HD
BRANCH  14  17
HETATM   17  C24 UNL     1      14.795  15.346  34.309  1.00  0.00     0.066 A 
HETATM   18  C25 UNL     1      13.553  14.803  34.443  1.00  0.00     0.125 A 
HETATM   19  N3  UNL     1      13.720  13.475  34.575  1.00  0.00    -0.311 N 
HETATM   20  N4  UNL     1      15.004  13.167  34.529  1.00  0.00    -0.311 N 
ATOM     21  H3  UNL     1      12.963  12.801  34.694  1.00  0.00     0.186 HD
HETATM   22  C26 UNL     1      15.694  14.306  34.366  1.00  0.00     0.125 A 
ATOM     23  H4  UNL     1      15.400  12.231  34.605  1.00  0.00     0.186 HD
ENDBRANCH  14  17
ENDBRANCH  11  13
ENDBRANCH   1   7
BRANCH   4  24
HETATM   24  C11 UNL     1      10.303  25.315  36.297  1.00  0.00     0.078 C 
BRANCH  24  25
HETATM   25  C12 UNL     1       9.041  25.446  35.543  1.00  0.00    -0.036 A 
HETATM   26  C13 UNL     1       7.874  24.966  36.167  1.00  0.00     0.082 A 
HETATM   27  C14 UNL     1       6.695  25.004  35.458  1.00  0.00     0.246 A 
HETATM   28  O2  UNL     1       5.670  24.559  36.070  1.00  0.00    -0.268 OA
HETATM   29  N2  UNL     1       6.630  25.481  34.207  1.00  0.00    -0.323 N 
HETATM   30  C15 UNL     1       7.751  25.938  33.620  1.00  0.00     0.045 A 
ATOM     31  H2  UNL     1       5.742  25.496  33.706  1.00  0.00     0.169 HD
HETATM   32  C16 UNL     1       7.685  26.450  32.332  1.00  0.00     0.030 A 
HETATM   33  C20 UNL     1       8.991  25.934  34.275  1.00  0.00    -0.003 A 
HETATM   34  C17 UNL     1       8.805  26.947  31.703  1.00  0.00     0.002 A 
HETATM   35  C18 UNL     1      10.034  26.955  32.330  1.00  0.00     0.001 A 
HETATM   36  C19 UNL     1      10.088  26.432  33.637  1.00  0.00     0.014 A 
ENDBRANCH  24  25
ENDBRANCH   4  24
TORSDOF 5
ENDMDL
MODEL 3
REMARK VINA RESULT: -10.717779986      2.388      3.595
REMARK  5 active torsions:
REMARK  status: ('A' for Active; 'I' for Inactive)
REMARK       I    between atoms: C1_2  and  N1_3 
REMARK    1  A    between atoms: C1_2  and  C24_30 
REMARK    2  A    between atoms: N1_3  and  C2_5 
REMARK    3  A    between atoms: C6_9  and  C7_10 
REMARK    4  A    between atoms: C10_13  and  C11_14 
REMARK    5  A    between atoms: C11_14  and  C12_15 
ROOT
HETATM    1  C7  UNL     1      11.090  24.636  32.542  1.00  0.00    -0.026 A 
HETATM    2  C8  UNL     1       9.948  23.872  32.477  1.00  0.00     0.013 A 
HETATM    3  C9  UNL     1       8.693  24.479  32.530  1.00  0.00     0.008 A 
HETATM    4  C10 UNL     1       8.572  25.870  32.650  1.00  0.00    -0.054 A 
HETATM    5  C21 UNL     1       9.730  26.566  32.709  1.00  0.00     0.008 A 
HETATM    6  C22 UNL     1      10.989  26.001  32.660  1.00  0.00     0.013 A 
ENDROOT
BRANCH   1   7
HETATM    7  C6  UNL     1      12.381  23.980  32.488  1.00  0.00    -0.024 A 
HETATM    8  C5  UNL     1      13.412  24.502  31.744  1.00  0.00     0.012 A 
HETATM    9  C4  UNL     1      14.654  23.882  31.691  1.00  0.00     0.003 A 
HETATM   10  C3  UNL     1      14.829  22.728  32.403  1.00  0.00     0.029 A 
HETATM   11  C2  UNL     1      13.808  22.141  33.186  1.00  0.00     0.035 A 
HETATM   12  C23 UNL     1      12.605  22.793  33.204  1.00  0.00     0.042 A 
BRANCH  11  13
HETATM   13  N1  UNL     1      14.116  20.965  33.890  1.00  0.00    -0.323 N 
HETATM   14  C1  UNL     1      14.603  19.793  33.312  1.00  0.00     0.259 C 
HETATM   15  O1  UNL     1      14.849  19.591  32.097  1.00  0.00    -0.267 OA
ATOM     16  H1  UNL     1      13.973  20.968  34.899  1.00  0.00     0.169 HD
BRANCH  14  17
HETATM   17  C24 UNL     1      14.882  18.612  34.176  1.00  0.00     0.066 A 
HETATM   18  C25 UNL     1      14.533  18.458  35.483  1.00  0.00     0.125 A 
HETATM   19  N3  UNL     1      14.983  17.251  35.868  1.00  0.00    -0.311 N 
HETATM   20  N4  UNL     1      15.595  16.648  34.863  1.00  0.00    -0.311 N 
ATOM     21  H3  UNL     1      14.869  16.856  36.802  1.00  0.00     0.186 HD
HETATM   22  C26 UNL     1      15.548  17.467  33.802  1.00  0.00     0.125 A 
ATOM     23  H4  UNL     1      16.025  15.724  34.890  1.00  0.00     0.186 HD
ENDBRANCH  14  17
ENDBRANCH  11  13
ENDBRANCH   1   7
BRANCH   4  24
HETATM   24  C11 UNL     1       7.194  26.400  32.718  1.00  0.00     0.078 C 
BRANCH  24  25
HETATM   25  C12 UNL     1       6.371  25.822  33.798  1.00  0.00    -0.036 A 
HETATM   26  C13 UNL     1       7.057  25.194  34.855  1.00  0.00     0.082 A 
HETATM   27  C14 UNL     1       6.315  24.580  35.837  1.00  0.00     0.246 A 
HETATM   28  O2  UNL     1       6.985  24.027  36.770  1.00  0.00    -0.268 OA
HETATM   29  N2  UNL     1       4.975  24.564  35.815  1.00  0.00    -0.323 N 
HETATM   30  C15 UNL     1       4.329  25.169  34.801  1.00  0.00     0.045 A 
ATOM     31  H2  UNL     1       4.451  24.101  36.557  1.00  0.00     0.169 HD
HETATM   32  C16 UNL     1       2.941  25.173  34.784  1.00  0.00     0.030 A 
HETATM   33  C20 UNL     1       5.012  25.818  33.763  1.00  0.00    -0.003 A 
HETATM   34  C17 UNL     1       2.241  25.798  33.776  1.00  0.00     0.002 A 
HETATM   35  C18 UNL     1       2.894  26.444  32.745  1.00  0.00     0.001 A 
HETATM   36  C19 UNL     1       4.302  26.433  32.774  1.00  0.00     0.014 A 
ENDBRANCH  24  25
ENDBRANCH   4  24
TORSDOF 5
ENDMDL
MODEL 4
REMARK VINA RESULT: -10.609951142      2.081     10.376
REMARK  5 active torsions:
REMARK  status: ('A' for Active; 'I' for Inactive)
REMARK       I    between atoms: C1_2  and  N1_3 
REMARK    1  A    between atoms: C1_2  and  C24_30 
REMARK    2  A    between atoms: N1_3  and  C2_5 
REMARK    3  A    between atoms: C6_9  and  C7_10 
REMARK    4  A    between atoms: C10_13  and  C11_14 
REMARK    5  A    between atoms: C11_14  and  C12_15 
ROOT
HETATM    1  C7  UNL     1      11.916  24.493  34.396  1.00  0.00    -0.026 A 
HETATM    2  C8  UNL     1      11.464  23.345  33.788  1.00  0.00     0.013 A 
HETATM    3  C9  UNL     1      12.340  22.286  33.547  1.00  0.00     0.008 A 
HETATM    4  C10 UNL     1      13.689  22.370  33.918  1.00  0.00    -0.054 A 
HETATM    5  C21 UNL     1      14.072  23.524  34.511  1.00  0.00     0.008 A 
HETATM    6  C22 UNL     1      13.236  24.592  34.766  1.00  0.00     0.013 A 
ENDROOT
BRANCH   1   7
HETATM    7  C6  UNL     1      10.986  25.579  34.631  1.00  0.00    -0.024 A 
HETATM    8  C5  UNL     1      11.430  26.867  34.813  1.00  0.00     0.012 A 
HETATM    9  C4  UNL     1      10.544  27.915  35.033  1.00  0.00     0.003 A 
HETATM   10  C3  UNL     1       9.208  27.633  35.065  1.00  0.00     0.029 A 
HETATM   11  C2  UNL     1       8.688  26.329  34.886  1.00  0.00     0.035 A 
HETATM   12  C23 UNL     1       9.604  25.334  34.672  1.00  0.00     0.042 A 
BRANCH  11  13
HETATM   13  N1  UNL     1       7.293  26.169  34.920  1.00  0.00    -0.323 N 
HETATM   14  C1  UNL     1       6.500  25.837  33.821  1.00  0.00     0.259 C 
HETATM   15  O1  UNL     1       6.884  25.625  32.645  1.00  0.00    -0.267 OA
ATOM     16  H1  UNL     1       6.825  26.305  35.815  1.00  0.00     0.169 HD
BRANCH  14  17
HETATM   17  C24 UNL     1       5.027  25.705  33.996  1.00  0.00     0.066 A 
HETATM   18  C25 UNL     1       4.379  24.842  34.827  1.00  0.00     0.125 A 
HETATM   19  N3  UNL     1       3.062  25.060  34.665  1.00  0.00    -0.311 N 
HETATM   20  N4  UNL     1       2.861  26.016  33.775  1.00  0.00    -0.311 N 
ATOM     21  H3  UNL     1       2.323  24.558  35.158  1.00  0.00     0.186 HD
HETATM   22  C26 UNL     1       4.060  26.434  33.343  1.00  0.00     0.125 A 
ATOM     23  H4  UNL     1       1.955  26.372  33.470  1.00  0.00     0.186 HD
ENDBRANCH  14  17
ENDBRANCH  11  13
ENDBRANCH   1   7
BRANCH   4  24
HETATM   24  C11 UNL     1      14.527  21.197  33.595  1.00  0.00     0.078 C 
BRANCH  24  25
HETATM   25  C12 UNL     1      14.160  19.966  34.321  1.00  0.00    -0.036 A 
HETATM   26  C13 UNL     1      13.180  20.086  35.325  1.00  0.00     0.082 A 
HETATM   27  C14 UNL     1      12.873  18.971  36.070  1.00  0.00     0.246 A 
HETATM   28  O2  UNL     1      11.981  19.136  36.964  1.00  0.00    -0.268 OA
HETATM   29  N2  UNL     1      13.474  17.790  35.868  1.00  0.00    -0.323 N 
HETATM   30  C15 UNL     1      14.408  17.686  34.905  1.00  0.00     0.045 A 
ATOM     31  H2  UNL     1      13.226  16.981  36.437  1.00  0.00     0.169 HD
HETATM   32  C16 UNL     1      15.018  16.460  34.679  1.00  0.00     0.030 A 
HETATM   33  C20 UNL     1      14.776  18.774  34.101  1.00  0.00    -0.003 A 
HETATM   34  C17 UNL     1      15.964  16.305  33.690  1.00  0.00     0.002 A 
HETATM   35  C18 UNL     1      16.340  17.362  32.886  1.00  0.00     0.001 A 
HETATM   36  C19 UNL     1      15.713  18.601  33.126  1.00  0.00     0.014 A 
ENDBRANCH  24  25
ENDBRANCH   4  24
TORSDOF 5
ENDMDL
MODEL 5
REMARK VINA RESULT: -10.603424864      1.552      2.017
REMARK  5 active torsions:
REMARK  status: ('A' for Active; 'I' for Inactive)
REMARK       I    between atoms: C1_2  and  N1_3 
REMARK    1  A    between atoms: C1_2  and  C24_30 
REMARK    2  A    between atoms: N1_3  and  C2_5 
REMARK    3  A    between atoms: C6_9  and  C7_10 
REMARK    4  A    between atoms: C10_13  and  C11_14 
REMARK    5  A    between atoms: C11_14  and  C12_15 
ROOT
HETATM    1  C7  UNL     1      12.973  22.220  33.203  1.00  0.00    -0.026 A 
HETATM    2  C8  UNL     1      13.178  23.219  32.279  1.00  0.00     0.013 A 
HETATM    3  C9  UNL     1      12.219  24.216  32.099  1.00  0.00     0.008 A 
HETATM    4  C10 UNL     1      11.036  24.221  32.851  1.00  0.00    -0.054 A 
HETATM    5  C21 UNL     1      10.893  23.213  33.741  1.00  0.00     0.008 A 
HETATM    6  C22 UNL     1      11.818  22.209  33.948  1.00  0.00     0.013 A 
ENDROOT
BRANCH   1   7
HETATM    7  C6  UNL     1      13.983  21.195  33.367  1.00  0.00    -0.024 A 
HETATM    8  C5  UNL     1      15.322  21.500  33.303  1.00  0.00     0.012 A 
HETATM    9  C4  UNL     1      16.297  20.524  33.464  1.00  0.00     0.003 A 
HETATM   10  C3  UNL     1      15.891  19.239  33.691  1.00  0.00     0.029 A 
HETATM   11  C2  UNL     1      14.531  18.861  33.769  1.00  0.00     0.035 A 
HETATM   12  C23 UNL     1      13.611  19.862  33.603  1.00  0.00     0.042 A 
BRANCH  11  13
HETATM   13  N1  UNL     1      14.239  17.512  34.028  1.00  0.00    -0.323 N 
HETATM   14  C1  UNL     1      15.182  16.485  34.074  1.00  0.00     0.259 C 
HETATM   15  O1  UNL     1      16.422  16.585  33.901  1.00  0.00    -0.267 OA
ATOM     16  H1  UNL     1      13.264  17.263  34.194  1.00  0.00     0.169 HD
BRANCH  14  17
HETATM   17  C24 UNL     1      14.734  15.092  34.352  1.00  0.00     0.066 A 
HETATM   18  C25 UNL     1      13.460  14.680  34.600  1.00  0.00     0.125 A 
HETATM   19  N3  UNL     1      13.512  13.351  34.800  1.00  0.00    -0.311 N 
HETATM   20  N4  UNL     1      14.756  12.918  34.688  1.00  0.00    -0.311 N 
ATOM     21  H3  UNL     1      12.706  12.761  35.008  1.00  0.00     0.186 HD
HETATM   22  C26 UNL     1      15.535  13.975  34.412  1.00  0.00     0.125 A 
ATOM     23  H4  UNL     1      15.067  11.953  34.793  1.00  0.00     0.186 HD
ENDBRANCH  14  17
ENDBRANCH  11  13
ENDBRANCH   1   7
BRANCH   4  24
HETATM   24  C11 UNL     1      10.085  25.313  32.560  1.00  0.00     0.078 C 
BRANCH  24  25
HETATM   25  C12 UNL     1       9.160  25.627  33.665  1.00  0.00    -0.036 A 
HETATM   26  C13 UNL     1       9.720  26.206  34.820  1.00  0.00     0.082 A 
HETATM   27  C14 UNL     1       8.894  26.438  35.896  1.00  0.00     0.246 A 
HETATM   28  O2  UNL     1       9.452  26.964  36.914  1.00  0.00    -0.268 OA
HETATM   29  N2  UNL     1       7.589  26.133  35.874  1.00  0.00    -0.323 N 
HETATM   30  C15 UNL     1       7.064  25.582  34.765  1.00  0.00     0.045 A 
ATOM     31  H2  UNL     1       7.003  26.317  36.687  1.00  0.00     0.169 HD
HETATM   32  C16 UNL     1       5.709  25.283  34.730  1.00  0.00     0.030 A 
HETATM   33  C20 UNL     1       7.837  25.314  33.626  1.00  0.00    -0.003 A 
HETATM   34  C17 UNL     1       5.127  24.735  33.608  1.00  0.00     0.002 A 
HETATM   35  C18 UNL     1       5.869  24.466  32.476  1.00  0.00     0.001 A 
HETATM   36  C19 UNL     1       7.243  24.774  32.523  1.00  0.00     0.014 A 
ENDBRANCH  24  25
ENDBRANCH   4  24
TORSDOF 5
ENDMDL
