MODEL 1
REMARK VINA RESULT: -12.133829559      0.000      0.000
REMARK  6 active torsions:
REMARK  status: ('A' for Active; 'I' for Inactive)
REMARK       I    between atoms: C1_2  and  N1_3 
REMARK    1  A    between atoms: C1_2  and  C15_20 
REMARK    2  A    between atoms: N1_3  and  N2_5 
REMARK       I    between atoms: N2_5  and  C2_6 
REMARK    3  A    between atoms: C2_6  and  C3_8 
REMARK    4  A    between atoms: C6_11  and  C7_12 
REMARK    5  A    between atoms: C18_23  and  N3_24 
REMARK    6  A    between atoms: N3_24  and  C19_26 
ROOT
HETATM    1  O1  UNL     1      12.005  23.921  32.060  1.00  0.00    -0.265 OA
HETATM    2  C1  UNL     1      11.541  23.634  33.230  1.00  0.00     0.280 C 
HETATM    3  N1  UNL     1      12.133  22.675  34.028  1.00  0.00    -0.195 N 
ATOM      4  H1  UNL     1      11.698  22.495  34.933  1.00  0.00     0.205 HD
ENDROOT
BRANCH   3   5
HETATM    5  N2  UNL     1      13.243  21.947  33.723  1.00  0.00    -0.278 NA
HETATM    6  C2  UNL     1      14.323  21.254  33.419  1.00  0.00     0.345 C 
HETATM    7  O2  UNL     1      15.366  21.706  32.793  1.00  0.00    -0.249 OA
BRANCH   6   8
HETATM    8  C3  UNL     1      14.445  19.787  33.762  1.00  0.00     0.048 A 
HETATM    9  C4  UNL     1      15.347  19.004  33.038  1.00  0.00     0.019 A 
HETATM   10  C5  UNL     1      15.366  17.622  33.242  1.00  0.00     0.013 A 
HETATM   11  C6  UNL     1      14.530  16.988  34.135  1.00  0.00    -0.026 A 
HETATM   12  C13 UNL     1      13.644  17.806  34.851  1.00  0.00     0.013 A 
HETATM   13  C14 UNL     1      13.629  19.170  34.649  1.00  0.00     0.019 A 
BRANCH  11  14
HETATM   14  C7  UNL     1      14.436  15.550  34.312  1.00  0.00    -0.026 A 
HETATM   15  C8  UNL     1      13.313  14.886  34.632  1.00  0.00     0.012 A 
HETATM   16  C9  UNL     1      13.315  13.539  34.842  1.00  0.00     0.001 A 
HETATM   17  C10 UNL     1      14.468  12.800  34.736  1.00  0.00     0.000 A 
HETATM   18  C11 UNL     1      15.647  13.434  34.410  1.00  0.00     0.001 A 
HETATM   19  C12 UNL     1      15.634  14.790  34.197  1.00  0.00     0.012 A 
ENDBRANCH  11  14
ENDBRANCH   6   8
ENDBRANCH   3   5
BRANCH   2  20
HETATM   20  C15 UNL     1      10.376  24.377  33.653  1.00  0.00     0.034 A 
HETATM   21  C16 UNL     1       9.487  24.786  32.702  1.00  0.00     0.019 A 
HETATM   22  C17 UNL     1       8.287  25.438  33.101  1.00  0.00     0.030 A 
HETATM   23  C18 UNL     1       8.044  25.647  34.423  1.00  0.00     0.032 A 
HETATM   24  C25 UNL     1       8.951  25.228  35.345  1.00  0.00     0.030 A 
HETATM   25  C26 UNL     1      10.130  24.590  34.989  1.00  0.00     0.019 A 
BRANCH  23  26
HETATM   26  N3  UNL     1       6.773  26.136  34.859  1.00  0.00    -0.356 N 
ATOM     27  H3  UNL     1       6.682  26.945  35.474  1.00  0.00     0.166 HD
BRANCH  26  28
HETATM   28  C19 UNL     1       5.636  25.414  34.377  1.00  0.00     0.032 A 
HETATM   29  C20 UNL     1       5.371  24.139  34.747  1.00  0.00     0.029 A 
HETATM   30  C21 UNL     1       4.202  23.482  34.328  1.00  0.00     0.002 A 
HETATM   31  C22 UNL     1       3.282  24.122  33.516  1.00  0.00     0.000 A 
HETATM   32  C23 UNL     1       3.571  25.430  33.142  1.00  0.00     0.002 A 
HETATM   33  C24 UNL     1       4.739  26.069  33.565  1.00  0.00     0.029 A 
ENDBRANCH  26  28
ENDBRANCH  23  26
ENDBRANCH   2  20
TORSDOF 6
ENDMDL
MODEL 2
REMARK VINA RESULT: -11.920724282      0.880      1.417
REMARK  6 active torsions:
REMARK  status: ('A' for Active; 'I' for Inactive)
REMARK       I    between atoms: C1_2  and  N1_3 
REMARK    1  A    between atoms: C1_2  and  C15_20 
REMARK    2  A    between atoms: N1_3  and  N2_5 
REMARK       I    between atoms: N2_5  and  C2_6 
REMARK    3  A    between atoms: C2_6  and  C3_8 
REMARK    4  A    between atoms: C6_11  and  C7_12 
REMARK    5  A    between atoms: C18_23  and  N3_24 
REMARK    6  A    between atoms: N3_24  and  C19_26 
ROOT
HETATM    1  O1  UNL     1      12.774  23.420  31.909  1.00  0.00    -0.265 OA
HETATM    2  C1  UNL     1      12.275  23.206  33.081  1.00  0.00     0.280 C 
HETATM    3  N1  UNL     1      12.784  22.231  33.917  1.00  0.00    -0.195 N 
ATOM      4  H1  UNL     1      12.325  22.113  34.821  1.00  0.00     0.205 HD
ENDROOT
BRANCH   3   5
HETATM    5  N2  UNL     1      13.840  21.414  33.651  1.00  0.00    -0.278 NA
HETATM    6  C2  UNL     1      14.870  20.635  33.385  1.00  0.00     0.345 C 
HETATM    7  O2  UNL     1      15.937  20.979  32.733  1.00  0.00    -0.249 OA
BRANCH   6   8
HETATM    8  C3  UNL     1      14.895  19.184  33.810  1.00  0.00     0.048 A 
HETATM    9  C4  UNL     1      15.915  18.362  33.325  1.00  0.00     0.019 A 
HETATM   10  C5  UNL     1      15.870  16.991  33.590  1.00  0.00     0.013 A 
HETATM   11  C6  UNL     1      14.857  16.404  34.315  1.00  0.00    -0.026 A 
HETATM   12  C13 UNL     1      13.854  17.260  34.795  1.00  0.00     0.013 A 
HETATM   13  C14 UNL     1      13.903  18.614  34.534  1.00  0.00     0.019 A 
BRANCH  11  14
HETATM   14  C7  UNL     1      14.705  14.977  34.532  1.00  0.00    -0.026 A 
HETATM   15  C8  UNL     1      15.652  14.057  34.287  1.00  0.00     0.012 A 
HETATM   16  C9  UNL     1      15.415  12.725  34.457  1.00  0.00     0.001 A 
HETATM   17  C10 UNL     1      14.194  12.265  34.885  1.00  0.00     0.000 A 
HETATM   18  C11 UNL     1      13.188  13.168  35.151  1.00  0.00     0.001 A 
HETATM   19  C12 UNL     1      13.438  14.507  34.980  1.00  0.00     0.012 A 
ENDBRANCH  11  14
ENDBRANCH   6   8
ENDBRANCH   3   5
BRANCH   2  20
HETATM   20  C15 UNL     1      11.163  24.046  33.463  1.00  0.00     0.034 A 
HETATM   21  C16 UNL     1      10.443  24.657  32.477  1.00  0.00     0.019 A 
HETATM   22  C17 UNL     1       9.289  25.414  32.821  1.00  0.00     0.030 A 
HETATM   23  C18 UNL     1       8.920  25.520  34.126  1.00  0.00     0.032 A 
HETATM   24  C25 UNL     1       9.659  24.899  35.084  1.00  0.00     0.030 A 
HETATM   25  C26 UNL     1      10.790  24.155  34.782  1.00  0.00     0.019 A 
BRANCH  23  26
HETATM   26  N3  UNL     1       7.672  26.122  34.482  1.00  0.00    -0.356 N 
ATOM     27  H3  UNL     1       7.618  27.011  34.979  1.00  0.00     0.166 HD
BRANCH  26  28
HETATM   28  C19 UNL     1       6.504  25.393  34.094  1.00  0.00     0.032 A 
HETATM   29  C20 UNL     1       6.117  25.269  32.803  1.00  0.00     0.029 A 
HETATM   30  C21 UNL     1       5.015  24.477  32.440  1.00  0.00     0.002 A 
HETATM   31  C22 UNL     1       4.285  23.797  33.400  1.00  0.00     0.000 A 
HETATM   32  C23 UNL     1       4.693  23.938  34.723  1.00  0.00     0.002 A 
HETATM   33  C24 UNL     1       5.790  24.732  35.067  1.00  0.00     0.029 A 
ENDBRANCH  26  28
ENDBRANCH  23  26
ENDBRANCH   2  20
TORSDOF 6
ENDMDL
MODEL 3
REMARK VINA RESULT: -11.858706376      0.999      1.579
REMARK  6 active torsions:
REMARK  status: ('A' for Active; 'I' for Inactive)
REMARK       I    between atoms: C1_2  and  N1_3 
REMARK    1  A    between atoms: C1_2  and  C15_20 
REMARK    2  A    between atoms: N1_3  and  N2_5 
REMARK       I    between atoms: N2_5  and  C2_6 
REMARK    3  A    between atoms: C2_6  and  C3_8 
REMARK    4  A    between atoms: C6_11  and  C7_12 
REMARK    5  A    between atoms: C18_23  and  N3_24 
REMARK    6  A    between atoms: N3_24  and  C19_26 
ROOT
HETATM    1  O1  UNL     1      12.757  23.327  35.740  1.00  0.00    -0.265 OA
HETATM    2  C1  UNL     1      12.115  23.315  34.619  1.00  0.00     0.280 C 
HETATM    3  N1  UNL     1      12.533  22.539  33.555  1.00  0.00    -0.195 N 
ATOM      4  H1  UNL     1      11.982  22.596  32.698  1.00  0.00     0.205 HD
ENDROOT
BRANCH   3   5
HETATM    5  N2  UNL     1      13.609  21.705  33.541  1.00  0.00    -0.278 NA
HETATM    6  C2  UNL     1      14.660  20.909  33.523  1.00  0.00     0.345 C 
HETATM    7  O2  UNL     1      15.893  21.281  33.367  1.00  0.00    -0.249 OA
BRANCH   6   8
HETATM    8  C3  UNL     1      14.521  19.410  33.663  1.00  0.00     0.048 A 
HETATM    9  C4  UNL     1      13.739  18.904  34.704  1.00  0.00     0.019 A 
HETATM   10  C5  UNL     1      13.720  17.526  34.934  1.00  0.00     0.013 A 
HETATM   11  C6  UNL     1      14.442  16.633  34.174  1.00  0.00    -0.026 A 
HETATM   12  C13 UNL     1      15.210  17.174  33.132  1.00  0.00     0.013 A 
HETATM   13  C14 UNL     1      15.225  18.535  32.906  1.00  0.00     0.019 A 
BRANCH  11  14
HETATM   14  C7  UNL     1      14.541  15.208  34.433  1.00  0.00    -0.026 A 
HETATM   15  C8  UNL     1      15.645  14.466  34.247  1.00  0.00     0.012 A 
HETATM   16  C9  UNL     1      15.643  13.119  34.454  1.00  0.00     0.001 A 
HETATM   17  C10 UNL     1      14.510  12.458  34.861  1.00  0.00     0.000 A 
HETATM   18  C11 UNL     1      13.350  13.174  35.066  1.00  0.00     0.001 A 
HETATM   19  C12 UNL     1      13.363  14.531  34.859  1.00  0.00     0.012 A 
ENDBRANCH  11  14
ENDBRANCH   6   8
ENDBRANCH   3   5
BRANCH   2  20
HETATM   20  C15 UNL     1      10.940  24.152  34.549  1.00  0.00     0.034 A 
HETATM   21  C16 UNL     1      10.443  24.471  33.318  1.00  0.00     0.019 A 
HETATM   22  C17 UNL     1       9.235  25.216  33.222  1.00  0.00     0.030 A 
HETATM   23  C18 UNL     1       8.594  25.603  34.358  1.00  0.00     0.032 A 
HETATM   24  C25 UNL     1       9.115  25.269  35.568  1.00  0.00     0.030 A 
HETATM   25  C26 UNL     1      10.291  24.545  35.695  1.00  0.00     0.019 A 
BRANCH  23  26
HETATM   26  N3  UNL     1       7.293  26.194  34.292  1.00  0.00    -0.356 N 
ATOM     27  H3  UNL     1       7.144  27.196  34.414  1.00  0.00     0.166 HD
BRANCH  26  28
HETATM   28  C19 UNL     1       6.216  25.288  34.043  1.00  0.00     0.032 A 
HETATM   29  C20 UNL     1       5.564  24.638  35.037  1.00  0.00     0.029 A 
HETATM   30  C21 UNL     1       4.454  23.820  34.774  1.00  0.00     0.002 A 
HETATM   31  C22 UNL     1       3.990  23.650  33.481  1.00  0.00     0.000 A 
HETATM   32  C23 UNL     1       4.672  24.320  32.470  1.00  0.00     0.002 A 
HETATM   33  C24 UNL     1       5.777  25.128  32.749  1.00  0.00     0.029 A 
ENDBRANCH  26  28
ENDBRANCH  23  26
ENDBRANCH   2  20
TORSDOF 6
ENDMDL
MODEL 4
REMARK VINA RESULT: -11.794189054      1.421      1.685
REMARK  6 active torsions:
REMARK  status: ('A' for Active; 'I' for Inactive)
REMARK       I    between atoms: C1_2  and  N1_3 
REMARK    1  A    between atoms: C1_2  and  C15_20 
REMARK    2  A    between atoms: N1_3  and  N2_5 
REMARK       I    between atoms: N2_5  and  C2_6 
REMARK    3  A    between atoms: C2_6  and  C3_8 
REMARK    4  A    between atoms: C6_11  and  C7_12 
REMARK    5  A    between atoms: C18_23  and  N3_24 
REMARK    6  A    between atoms: N3_24  and  C19_26 
ROOT
HETATM    1  O1  UNL     1      11.977  25.680  33.324  1.00  0.00    -0.265 OA
HETATM    2  C1  UNL     1      11.092  24.760  33.128  1.00  0.00     0.280 C 
HETATM    3  N1  UNL     1      11.401  23.420  33.260  1.00  0.00    -0.195 N 
ATOM      4  H1  UNL     1      10.652  22.753  33.073  1.00  0.00     0.205 HD
ENDROOT
BRANCH   3   5
HETATM    5  N2  UNL     1      12.610  22.904  33.616  1.00  0.00    -0.278 NA
HETATM    6  C2  UNL     1      13.787  22.419  33.960  1.00  0.00     0.345 C 
HETATM    7  O2  UNL     1      14.861  23.113  34.183  1.00  0.00    -0.249 OA
BRANCH   6   8
HETATM    8  C3  UNL     1      14.018  20.932  34.108  1.00  0.00     0.048 A 
HETATM    9  C4  UNL     1      14.917  20.306  33.242  1.00  0.00     0.019 A 
HETATM   10  C5  UNL     1      15.032  18.913  33.269  1.00  0.00     0.013 A 
HETATM   11  C6  UNL     1      14.293  18.121  34.120  1.00  0.00    -0.026 A 
HETATM   12  C13 UNL     1      13.407  18.784  34.982  1.00  0.00     0.013 A 
HETATM   13  C14 UNL     1      13.298  20.159  34.954  1.00  0.00     0.019 A 
BRANCH  11  14
HETATM   14  C7  UNL     1      14.296  16.669  34.119  1.00  0.00    -0.026 A 
HETATM   15  C8  UNL     1      13.202  15.897  34.223  1.00  0.00     0.012 A 
HETATM   16  C9  UNL     1      13.289  14.538  34.276  1.00  0.00     0.001 A 
HETATM   17  C10 UNL     1      14.503  13.896  34.228  1.00  0.00     0.000 A 
HETATM   18  C11 UNL     1      15.656  14.643  34.122  1.00  0.00     0.001 A 
HETATM   19  C12 UNL     1      15.557  16.011  34.065  1.00  0.00     0.012 A 
ENDBRANCH  11  14
ENDBRANCH   6   8
ENDBRANCH   3   5
BRANCH   2  20
HETATM   20  C15 UNL     1       9.768  25.214  32.770  1.00  0.00     0.034 A 
HETATM   21  C16 UNL     1       8.762  24.294  32.706  1.00  0.00     0.019 A 
HETATM   22  C17 UNL     1       7.432  24.729  32.447  1.00  0.00     0.030 A 
HETATM   23  C18 UNL     1       7.183  26.053  32.264  1.00  0.00     0.032 A 
HETATM   24  C25 UNL     1       8.208  26.944  32.335  1.00  0.00     0.030 A 
HETATM   25  C26 UNL     1       9.514  26.553  32.584  1.00  0.00     0.019 A 
BRANCH  23  26
HETATM   26  N3  UNL     1       5.838  26.534  32.181  1.00  0.00    -0.356 N 
ATOM     27  H3  UNL     1       5.588  27.357  31.632  1.00  0.00     0.166 HD
BRANCH  26  28
HETATM   28  C19 UNL     1       4.869  25.786  32.919  1.00  0.00     0.032 A 
HETATM   29  C20 UNL     1       4.456  24.553  32.540  1.00  0.00     0.029 A 
HETATM   30  C21 UNL     1       3.567  23.803  33.328  1.00  0.00     0.002 A 
HETATM   31  C22 UNL     1       3.081  24.307  34.522  1.00  0.00     0.000 A 
HETATM   32  C23 UNL     1       3.511  25.576  34.895  1.00  0.00     0.002 A 
HETATM   33  C24 UNL     1       4.394  26.311  34.099  1.00  0.00     0.029 A 
ENDBRANCH  26  28
ENDBRANCH  23  26
ENDBRANCH   2  20
TORSDOF 6
ENDMDL
MODEL 5
REMARK VINA RESULT: -11.540829102      1.473     11.003
REMARK  6 active torsions:
REMARK  status: ('A' for Active; 'I' for Inactive)
REMARK       I    between atoms: C1_2  and  N1_3 
REMARK    1  A    between atoms: C1_2  and  C15_20 
REMARK    2  A    between atoms: N1_3  and  N2_5 
REMARK       I    between atoms: N2_5  and  C2_6 
REMARK    3  A    between atoms: C2_6  and  C3_8 
REMARK    4  A    between atoms: C6_11  and  C7_12 
REMARK    5  A    between atoms: C18_23  and  N3_24 
REMARK    6  A    between atoms: N3_24  and  C19_26 
ROOT
HETATM    1  O1  UNL     1      14.430  23.179  33.209  1.00  0.00    -0.265 OA
HETATM    2  C1  UNL     1      13.632  22.296  33.710  1.00  0.00     0.280 C 
HETATM    3  N1  UNL     1      12.355  22.625  34.122  1.00  0.00    -0.195 N 
ATOM      4  H1  UNL     1      11.792  21.874  34.522  1.00  0.00     0.205 HD
ENDROOT
BRANCH   3   5
HETATM    5  N2  UNL     1      11.777  23.855  34.046  1.00  0.00    -0.278 NA
HETATM    6  C2  UNL     1      11.232  25.054  33.973  1.00  0.00     0.345 C 
HETATM    7  O2  UNL     1      11.873  26.181  33.941  1.00  0.00    -0.249 OA
BRANCH   6   8
HETATM    8  C3  UNL     1       9.732  25.241  33.946  1.00  0.00     0.048 A 
HETATM    9  C4  UNL     1       9.053  25.381  35.159  1.00  0.00     0.019 A 
HETATM   10  C5  UNL     1       7.656  25.407  35.159  1.00  0.00     0.013 A 
HETATM   11  C6  UNL     1       6.908  25.302  34.008  1.00  0.00    -0.026 A 
HETATM   12  C13 UNL     1       7.622  25.171  32.807  1.00  0.00     0.013 A 
HETATM   13  C14 UNL     1       9.001  25.148  32.810  1.00  0.00     0.019 A 
BRANCH  11  14
HETATM   14  C7  UNL     1       5.459  25.219  33.960  1.00  0.00    -0.026 A 
HETATM   15  C8  UNL     1       4.620  26.174  34.391  1.00  0.00     0.012 A 
HETATM   16  C9  UNL     1       3.268  25.999  34.370  1.00  0.00     0.001 A 
HETATM   17  C10 UNL     1       2.704  24.835  33.908  1.00  0.00     0.000 A 
HETATM   18  C11 UNL     1       3.522  23.823  33.454  1.00  0.00     0.001 A 
HETATM   19  C12 UNL     1       4.882  24.011  33.476  1.00  0.00     0.012 A 
ENDBRANCH  11  14
ENDBRANCH   6   8
ENDBRANCH   3   5
BRANCH   2  20
HETATM   20  C15 UNL     1      14.151  20.951  33.807  1.00  0.00     0.034 A 
HETATM   21  C16 UNL     1      15.011  20.516  32.841  1.00  0.00     0.019 A 
HETATM   22  C17 UNL     1      15.608  19.231  32.962  1.00  0.00     0.030 A 
HETATM   23  C18 UNL     1      15.311  18.451  34.037  1.00  0.00     0.032 A 
HETATM   24  C25 UNL     1      14.449  18.914  34.982  1.00  0.00     0.030 A 
HETATM   25  C26 UNL     1      13.851  20.162  34.893  1.00  0.00     0.019 A 
BRANCH  23  26
HETATM   26  N3  UNL     1      16.028  17.237  34.275  1.00  0.00    -0.356 N 
ATOM     27  H3  UNL     1      17.036  17.222  34.429  1.00  0.00     0.166 HD
BRANCH  26  28
HETATM   28  C19 UNL     1      15.238  16.045  34.281  1.00  0.00     0.032 A 
HETATM   29  C20 UNL     1      13.886  16.065  34.207  1.00  0.00     0.029 A 
HETATM   30  C21 UNL     1      13.138  14.879  34.128  1.00  0.00     0.002 A 
HETATM   31  C22 UNL     1      13.766  13.645  34.127  1.00  0.00     0.000 A 
HETATM   32  C23 UNL     1      15.154  13.641  34.209  1.00  0.00     0.002 A 
HETATM   33  C24 UNL     1      15.884  14.830  34.289  1.00  0.00     0.029 A 
ENDBRANCH  26  28
ENDBRANCH  23  26
ENDBRANCH   2  20
TORSDOF 6
ENDMDL
