MODEL 1
REMARK VINA RESULT: -12.467272301      0.000      0.000
REMARK  6 active torsions:
REMARK  status: ('A' for Active; 'I' for Inactive)
REMARK    1  A    between atoms: N1_1  and  C1_4 
REMARK    2  A    between atoms: N3_13  and  C8_14 
REMARK    3  A    between atoms: C12_18  and  C13_19 
REMARK    4  A    between atoms: C17_23  and  C18_24 
REMARK       I    between atoms: C18_24  and  N4_26 
REMARK    5  A    between atoms: N4_26  and  C19_28 
REMARK    6  A    between atoms: C19_28  and  C20_29 
ROOT
HETATM    1  C8  UNL     1      13.457  19.502  34.244  1.00  0.00     0.058 A 
HETATM    2  C9  UNL     1      12.335  19.192  34.980  1.00  0.00     0.030 A 
HETATM    3  C10 UNL     1      11.275  20.058  35.136  1.00  0.00     0.003 A 
HETATM    4  C11 UNL     1      11.334  21.314  34.520  1.00  0.00     0.012 A 
HETATM    5  C12 UNL     1      12.447  21.650  33.778  1.00  0.00    -0.024 A 
HETATM    6  C27 UNL     1      13.486  20.752  33.649  1.00  0.00     0.043 A 
ENDROOT
BRANCH   5   7
HETATM    7  C13 UNL     1      12.546  22.959  33.121  1.00  0.00    -0.025 A 
HETATM    8  C14 UNL     1      13.681  23.281  32.396  1.00  0.00     0.012 A 
HETATM    9  C15 UNL     1      13.731  24.523  31.803  1.00  0.00     0.002 A 
HETATM   10  C16 UNL     1      12.655  25.402  31.947  1.00  0.00     0.017 A 
HETATM   11  C17 UNL     1      11.535  25.066  32.670  1.00  0.00     0.032 A 
HETATM   12  C26 UNL     1      11.480  23.818  33.269  1.00  0.00     0.029 A 
BRANCH  11  13
HETATM   13  C18 UNL     1      10.393  25.939  32.863  1.00  0.00     0.251 C 
HETATM   14  O1  UNL     1      10.508  27.081  33.363  1.00  0.00    -0.268 OA
HETATM   15  N4  UNL     1       9.107  25.499  32.476  1.00  0.00    -0.353 N 
ATOM     16  H4  UNL     1       9.029  24.567  32.067  1.00  0.00     0.163 HD
BRANCH  15  17
HETATM   17  C19 UNL     1       7.897  26.272  32.617  1.00  0.00     0.161 C 
BRANCH  17  18
HETATM   18  C20 UNL     1       6.794  25.447  33.189  1.00  0.00    -0.041 A 
HETATM   19  C21 UNL     1       5.909  24.712  32.441  1.00  0.00     0.009 A 
HETATM   20  C22 UNL     1       4.916  23.975  33.053  1.00  0.00     0.001 A 
HETATM   21  C23 UNL     1       4.772  23.946  34.434  1.00  0.00     0.000 A 
HETATM   22  C24 UNL     1       5.667  24.686  35.175  1.00  0.00     0.001 A 
HETATM   23  C25 UNL     1       6.655  25.419  34.561  1.00  0.00     0.009 A 
ENDBRANCH  17  18
ENDBRANCH  15  17
ENDBRANCH  11  13
ENDBRANCH   5   7
BRANCH   1  24
HETATM   24  N3  UNL     1      14.517  18.552  34.129  1.00  0.00    -0.146 N 
HETATM   25  C1  UNL     1      15.844  18.817  33.967  1.00  0.00     0.684 A 
HETATM   26  N2  UNL     1      16.534  17.665  33.895  1.00  0.00    -0.189 N 
HETATM   27  C2  UNL     1      15.676  16.630  34.009  1.00  0.00     0.077 A 
ATOM     28  H2  UNL     1      17.544  17.586  33.775  1.00  0.00     0.184 HD
HETATM   29  C3  UNL     1      15.822  15.243  34.005  1.00  0.00     0.032 A 
HETATM   30  C7  UNL     1      14.436  17.212  34.152  1.00  0.00     0.084 A 
HETATM   31  C4  UNL     1      14.733  14.411  34.145  1.00  0.00     0.002 A 
HETATM   32  C5  UNL     1      13.495  14.997  34.288  1.00  0.00     0.002 A 
HETATM   33  C6  UNL     1      13.355  16.369  34.290  1.00  0.00     0.033 A 
BRANCH  25  34
HETATM   34  N1  UNL     1      16.297  20.037  33.900  1.00  0.00    -0.234 N 
ATOM     35  H12 UNL     1      17.275  20.259  34.088  1.00  0.00     0.174 HD
ATOM     36  H11 UNL     1      15.788  20.890  33.669  1.00  0.00     0.174 HD
ENDBRANCH  25  34
ENDBRANCH   1  24
TORSDOF 6
ENDMDL
MODEL 2
REMARK VINA RESULT: -12.100238519      1.753      3.297
REMARK  6 active torsions:
REMARK  status: ('A' for Active; 'I' for Inactive)
REMARK    1  A    between atoms: N1_1  and  C1_4 
REMARK    2  A    between atoms: N3_13  and  C8_14 
REMARK    3  A    between atoms: C12_18  and  C13_19 
REMARK    4  A    between atoms: C17_23  and  C18_24 
REMARK       I    between atoms: C18_24  and  N4_26 
REMARK    5  A    between atoms: N4_26  and  C19_28 
REMARK    6  A    between atoms: C19_28  and  C20_29 
ROOT
HETATM    1  C8  UNL     1      13.420  21.977  33.447  1.00  0.00     0.058 A 
HETATM    2  C9  UNL     1      14.427  22.237  32.544  1.00  0.00     0.030 A 
HETATM    3  C10 UNL     1      14.615  23.472  31.963  1.00  0.00     0.003 A 
HETATM    4  C11 UNL     1      13.746  24.516  32.301  1.00  0.00     0.012 A 
HETATM    5  C12 UNL     1      12.730  24.282  33.203  1.00  0.00    -0.024 A 
HETATM    6  C27 UNL     1      12.577  23.029  33.760  1.00  0.00     0.043 A 
ENDROOT
BRANCH   5   7
HETATM    7  C13 UNL     1      11.797  25.351  33.579  1.00  0.00    -0.025 A 
HETATM    8  C14 UNL     1      12.128  26.225  34.602  1.00  0.00     0.012 A 
HETATM    9  C15 UNL     1      11.219  27.209  34.922  1.00  0.00     0.002 A 
HETATM   10  C16 UNL     1      10.015  27.294  34.220  1.00  0.00     0.017 A 
HETATM   11  C17 UNL     1       9.702  26.418  33.207  1.00  0.00     0.032 A 
HETATM   12  C26 UNL     1      10.612  25.427  32.880  1.00  0.00     0.029 A 
BRANCH  11  13
HETATM   13  C18 UNL     1       8.465  26.451  32.450  1.00  0.00     0.251 C 
HETATM   14  O1  UNL     1       8.184  27.395  31.678  1.00  0.00    -0.268 OA
HETATM   15  N4  UNL     1       7.542  25.388  32.580  1.00  0.00    -0.353 N 
ATOM     16  H4  UNL     1       7.786  24.624  33.211  1.00  0.00     0.163 HD
BRANCH  15  17
HETATM   17  C19 UNL     1       6.280  25.306  31.884  1.00  0.00     0.161 C 
BRANCH  17  18
HETATM   18  C20 UNL     1       5.148  25.140  32.839  1.00  0.00    -0.041 A 
HETATM   19  C21 UNL     1       4.776  23.944  33.399  1.00  0.00     0.009 A 
HETATM   20  C22 UNL     1       3.713  23.880  34.276  1.00  0.00     0.001 A 
HETATM   21  C23 UNL     1       2.983  25.008  34.625  1.00  0.00     0.000 A 
HETATM   22  C24 UNL     1       3.366  26.205  34.058  1.00  0.00     0.001 A 
HETATM   23  C25 UNL     1       4.426  26.264  33.184  1.00  0.00     0.009 A 
ENDBRANCH  17  18
ENDBRANCH  15  17
ENDBRANCH  11  13
ENDBRANCH   5   7
BRANCH   1  24
HETATM   24  N3  UNL     1      13.287  20.669  34.007  1.00  0.00    -0.146 N 
HETATM   25  C1  UNL     1      12.207  20.166  34.668  1.00  0.00     0.684 A 
HETATM   26  N2  UNL     1      12.456  18.900  35.050  1.00  0.00    -0.189 N 
HETATM   27  C2  UNL     1      13.696  18.554  34.646  1.00  0.00     0.077 A 
ATOM     28  H2  UNL     1      11.811  18.298  35.561  1.00  0.00     0.184 HD
HETATM   29  C3  UNL     1      14.467  17.398  34.760  1.00  0.00     0.032 A 
HETATM   30  C7  UNL     1      14.184  19.671  34.004  1.00  0.00     0.084 A 
HETATM   31  C4  UNL     1      15.740  17.334  34.235  1.00  0.00     0.002 A 
HETATM   32  C5  UNL     1      16.223  18.452  33.593  1.00  0.00     0.002 A 
HETATM   33  C6  UNL     1      15.457  19.595  33.484  1.00  0.00     0.033 A 
BRANCH  25  34
HETATM   34  N1  UNL     1      11.129  20.872  34.862  1.00  0.00    -0.234 N 
ATOM     35  H12 UNL     1      10.244  20.440  35.126  1.00  0.00     0.174 HD
ATOM     36  H11 UNL     1      11.012  21.882  34.785  1.00  0.00     0.174 HD
ENDBRANCH  25  34
ENDBRANCH   1  24
TORSDOF 6
ENDMDL
MODEL 3
REMARK VINA RESULT: -12.087642595      2.207      9.754
REMARK  6 active torsions:
REMARK  status: ('A' for Active; 'I' for Inactive)
REMARK    1  A    between atoms: N1_1  and  C1_4 
REMARK    2  A    between atoms: N3_13  and  C8_14 
REMARK    3  A    between atoms: C12_18  and  C13_19 
REMARK    4  A    between atoms: C17_23  and  C18_24 
REMARK       I    between atoms: C18_24  and  N4_26 
REMARK    5  A    between atoms: N4_26  and  C19_28 
REMARK    6  A    between atoms: C19_28  and  C20_29 
ROOT
HETATM    1  C8  UNL     1       8.435  25.913  34.316  1.00  0.00     0.058 A 
HETATM    2  C9  UNL     1       8.402  26.786  35.381  1.00  0.00     0.030 A 
HETATM    3  C10 UNL     1       9.450  26.935  36.264  1.00  0.00     0.003 A 
HETATM    4  C11 UNL     1      10.604  26.165  36.076  1.00  0.00     0.012 A 
HETATM    5  C12 UNL     1      10.662  25.284  35.018  1.00  0.00    -0.024 A 
HETATM    6  C27 UNL     1       9.590  25.166  34.158  1.00  0.00     0.043 A 
ENDROOT
BRANCH   5   7
HETATM    7  C13 UNL     1      11.854  24.458  34.792  1.00  0.00    -0.025 A 
HETATM    8  C14 UNL     1      13.026  25.047  34.346  1.00  0.00     0.012 A 
HETATM    9  C15 UNL     1      14.116  24.232  34.143  1.00  0.00     0.002 A 
HETATM   10  C16 UNL     1      14.010  22.860  34.388  1.00  0.00     0.017 A 
HETATM   11  C17 UNL     1      12.839  22.291  34.831  1.00  0.00     0.032 A 
HETATM   12  C26 UNL     1      11.739  23.107  35.037  1.00  0.00     0.029 A 
BRANCH  11  13
HETATM   13  C18 UNL     1      12.666  20.875  35.093  1.00  0.00     0.251 C 
HETATM   14  O1  UNL     1      11.742  20.211  34.570  1.00  0.00    -0.268 OA
HETATM   15  N4  UNL     1      13.563  20.213  35.962  1.00  0.00    -0.353 N 
ATOM     16  H4  UNL     1      14.312  20.766  36.379  1.00  0.00     0.163 HD
BRANCH  15  17
HETATM   17  C19 UNL     1      13.495  18.812  36.302  1.00  0.00     0.161 C 
BRANCH  17  18
HETATM   18  C20 UNL     1      14.305  17.989  35.359  1.00  0.00    -0.041 A 
HETATM   19  C21 UNL     1      14.044  16.677  35.056  1.00  0.00     0.009 A 
HETATM   20  C22 UNL     1      14.847  15.988  34.171  1.00  0.00     0.001 A 
HETATM   21  C23 UNL     1      15.941  16.584  33.557  1.00  0.00     0.000 A 
HETATM   22  C24 UNL     1      16.194  17.903  33.869  1.00  0.00     0.001 A 
HETATM   23  C25 UNL     1      15.390  18.586  34.751  1.00  0.00     0.009 A 
ENDBRANCH  17  18
ENDBRANCH  15  17
ENDBRANCH  11  13
ENDBRANCH   5   7
BRANCH   1  24
HETATM   24  N3  UNL     1       7.309  25.814  33.443  1.00  0.00    -0.146 N 
HETATM   25  C1  UNL     1       7.185  26.354  32.198  1.00  0.00     0.684 A 
HETATM   26  N2  UNL     1       5.979  26.048  31.686  1.00  0.00    -0.189 N 
HETATM   27  C2  UNL     1       5.296  25.306  32.582  1.00  0.00     0.077 A 
ATOM     28  H2  UNL     1       5.637  26.331  30.768  1.00  0.00     0.184 HD
HETATM   29  C3  UNL     1       4.030  24.722  32.595  1.00  0.00     0.032 A 
HETATM   30  C7  UNL     1       6.145  25.179  33.658  1.00  0.00     0.084 A 
HETATM   31  C4  UNL     1       3.588  23.999  33.682  1.00  0.00     0.002 A 
HETATM   32  C5  UNL     1       4.441  23.875  34.755  1.00  0.00     0.002 A 
HETATM   33  C6  UNL     1       5.693  24.455  34.739  1.00  0.00     0.033 A 
BRANCH  25  34
HETATM   34  N1  UNL     1       8.142  27.052  31.654  1.00  0.00    -0.234 N 
ATOM     35  H12 UNL     1       8.720  26.677  30.902  1.00  0.00     0.174 HD
ATOM     36  H11 UNL     1       8.437  28.003  31.876  1.00  0.00     0.174 HD
ENDBRANCH  25  34
ENDBRANCH   1  24
TORSDOF 6
ENDMDL
MODEL 4
REMARK VINA RESULT: -11.968311814      1.880      3.346
REMARK  6 active torsions:
REMARK  status: ('A' for Active; 'I' for Inactive)
REMARK    1  A    between atoms: N1_1  and  C1_4 
REMARK    2  A    between atoms: N3_13  and  C8_14 
REMARK    3  A    between atoms: C12_18  and  C13_19 
REMARK    4  A    between atoms: C17_23  and  C18_24 
REMARK       I    between atoms: C18_24  and  N4_26 
REMARK    5  A    between atoms: N4_26  and  C19_28 
REMARK    6  A    between atoms: C19_28  and  C20_29 
ROOT
HETATM    1  C8  UNL     1      13.552  21.964  33.495  1.00  0.00     0.058 A 
HETATM    2  C9  UNL     1      14.417  22.056  32.428  1.00  0.00     0.030 A 
HETATM    3  C10 UNL     1      14.686  23.241  31.778  1.00  0.00     0.003 A 
HETATM    4  C11 UNL     1      14.053  24.409  32.218  1.00  0.00     0.012 A 
HETATM    5  C12 UNL     1      13.182  24.345  33.284  1.00  0.00    -0.024 A 
HETATM    6  C27 UNL     1      12.942  23.137  33.906  1.00  0.00     0.043 A 
ENDROOT
BRANCH   5   7
HETATM    7  C13 UNL     1      12.498  25.548  33.771  1.00  0.00    -0.025 A 
HETATM    8  C14 UNL     1      13.069  26.794  33.568  1.00  0.00     0.012 A 
HETATM    9  C15 UNL     1      12.393  27.894  34.047  1.00  0.00     0.002 A 
HETATM   10  C16 UNL     1      11.176  27.723  34.710  1.00  0.00     0.017 A 
HETATM   11  C17 UNL     1      10.622  26.479  34.903  1.00  0.00     0.032 A 
HETATM   12  C26 UNL     1      11.298  25.369  34.423  1.00  0.00     0.029 A 
BRANCH  11  13
HETATM   13  C18 UNL     1       9.368  26.239  35.592  1.00  0.00     0.251 C 
HETATM   14  O1  UNL     1       9.104  26.769  36.695  1.00  0.00    -0.268 OA
HETATM   15  N4  UNL     1       8.407  25.383  35.008  1.00  0.00    -0.353 N 
ATOM     16  H4  UNL     1       8.635  24.960  34.108  1.00  0.00     0.163 HD
BRANCH  15  17
HETATM   17  C19 UNL     1       7.127  25.064  35.593  1.00  0.00     0.161 C 
BRANCH  17  18
HETATM   18  C20 UNL     1       6.112  24.772  34.541  1.00  0.00    -0.041 A 
HETATM   19  C21 UNL     1       6.308  24.974  33.199  1.00  0.00     0.009 A 
HETATM   20  C22 UNL     1       5.312  24.677  32.291  1.00  0.00     0.001 A 
HETATM   21  C23 UNL     1       4.085  24.167  32.692  1.00  0.00     0.000 A 
HETATM   22  C24 UNL     1       3.898  23.967  34.043  1.00  0.00     0.001 A 
HETATM   23  C25 UNL     1       4.894  24.265  34.944  1.00  0.00     0.009 A 
ENDBRANCH  17  18
ENDBRANCH  15  17
ENDBRANCH  11  13
ENDBRANCH   5   7
BRANCH   1  24
HETATM   24  N3  UNL     1      13.323  20.698  34.118  1.00  0.00    -0.146 N 
HETATM   25  C1  UNL     1      12.165  20.262  34.688  1.00  0.00     0.684 A 
HETATM   26  N2  UNL     1      12.336  19.019  35.173  1.00  0.00    -0.189 N 
HETATM   27  C2  UNL     1      13.601  18.622  34.930  1.00  0.00     0.077 A 
ATOM     28  H2  UNL     1      11.622  18.466  35.648  1.00  0.00     0.184 HD
HETATM   29  C3  UNL     1      14.323  17.459  35.199  1.00  0.00     0.032 A 
HETATM   30  C7  UNL     1      14.187  19.683  34.276  1.00  0.00     0.084 A 
HETATM   31  C4  UNL     1      15.642  17.334  34.820  1.00  0.00     0.002 A 
HETATM   32  C5  UNL     1      16.223  18.397  34.167  1.00  0.00     0.002 A 
HETATM   33  C6  UNL     1      15.506  19.546  33.903  1.00  0.00     0.033 A 
BRANCH  25  34
HETATM   34  N1  UNL     1      11.093  21.002  34.719  1.00  0.00    -0.234 N 
ATOM     35  H12 UNL     1      10.170  20.605  34.897  1.00  0.00     0.174 HD
ATOM     36  H11 UNL     1      11.014  22.010  34.580  1.00  0.00     0.174 HD
ENDBRANCH  25  34
ENDBRANCH   1  24
TORSDOF 6
ENDMDL
MODEL 5
REMARK VINA RESULT: -11.866741827      2.315      9.457
REMARK  6 active torsions:
REMARK  status: ('A' for Active; 'I' for Inactive)
REMARK    1  A    between atoms: N1_1  and  C1_4 
REMARK    2  A    between atoms: N3_13  and  C8_14 
REMARK    3  A    between atoms: C12_18  and  C13_19 
REMARK    4  A    between atoms: C17_23  and  C18_24 
REMARK       I    between atoms: C18_24  and  N4_26 
REMARK    5  A    between atoms: N4_26  and  C19_28 
REMARK    6  A    between atoms: C19_28  and  C20_29 
ROOT
HETATM    1  C8  UNL     1       8.501  26.323  34.565  1.00  0.00     0.058 A 
HETATM    2  C9  UNL     1       8.253  27.330  35.471  1.00  0.00     0.030 A 
HETATM    3  C10 UNL     1       9.164  27.722  36.427  1.00  0.00     0.003 A 
HETATM    4  C11 UNL     1      10.402  27.071  36.486  1.00  0.00     0.012 A 
HETATM    5  C12 UNL     1      10.676  26.060  35.590  1.00  0.00    -0.024 A 
HETATM    6  C27 UNL     1       9.734  25.698  34.649  1.00  0.00     0.043 A 
ENDROOT
BRANCH   5   7
HETATM    7  C13 UNL     1      11.961  25.352  35.625  1.00  0.00    -0.025 A 
HETATM    8  C14 UNL     1      12.882  25.644  36.618  1.00  0.00     0.012 A 
HETATM    9  C15 UNL     1      14.076  24.959  36.606  1.00  0.00     0.002 A 
HETATM   10  C16 UNL     1      14.319  24.009  35.611  1.00  0.00     0.017 A 
HETATM   11  C17 UNL     1      13.394  23.731  34.632  1.00  0.00     0.032 A 
HETATM   12  C26 UNL     1      12.191  24.417  34.639  1.00  0.00     0.029 A 
BRANCH  11  13
HETATM   13  C18 UNL     1      13.593  22.764  33.569  1.00  0.00     0.251 C 
HETATM   14  O1  UNL     1      13.050  22.888  32.448  1.00  0.00    -0.268 OA
HETATM   15  N4  UNL     1      14.426  21.645  33.794  1.00  0.00    -0.353 N 
ATOM     16  H4  UNL     1      14.864  21.558  34.712  1.00  0.00     0.163 HD
BRANCH  15  17
HETATM   17  C19 UNL     1      14.701  20.616  32.821  1.00  0.00     0.161 C 
BRANCH  17  18
HETATM   18  C20 UNL     1      14.745  19.269  33.458  1.00  0.00    -0.041 A 
HETATM   19  C21 UNL     1      15.495  18.218  32.995  1.00  0.00     0.009 A 
HETATM   20  C22 UNL     1      15.478  17.001  33.646  1.00  0.00     0.001 A 
HETATM   21  C23 UNL     1      14.711  16.792  34.785  1.00  0.00     0.000 A 
HETATM   22  C24 UNL     1      13.963  17.856  35.243  1.00  0.00     0.001 A 
HETATM   23  C25 UNL     1      13.983  19.066  34.590  1.00  0.00     0.009 A 
ENDBRANCH  17  18
ENDBRANCH  15  17
ENDBRANCH  11  13
ENDBRANCH   5   7
BRANCH   1  24
HETATM   24  N3  UNL     1       7.506  25.971  33.602  1.00  0.00    -0.146 N 
HETATM   25  C1  UNL     1       7.481  26.316  32.284  1.00  0.00     0.684 A 
HETATM   26  N2  UNL     1       6.384  25.801  31.700  1.00  0.00    -0.189 N 
HETATM   27  C2  UNL     1       5.676  25.114  32.619  1.00  0.00     0.077 A 
ATOM     28  H2  UNL     1       6.129  25.912  30.719  1.00  0.00     0.184 HD
HETATM   29  C3  UNL     1       4.484  24.391  32.586  1.00  0.00     0.032 A 
HETATM   30  C7  UNL     1       6.396  25.238  33.786  1.00  0.00     0.084 A 
HETATM   31  C4  UNL     1       3.989  23.777  33.716  1.00  0.00     0.002 A 
HETATM   32  C5  UNL     1       4.713  23.904  34.881  1.00  0.00     0.002 A 
HETATM   33  C6  UNL     1       5.891  24.621  34.910  1.00  0.00     0.033 A 
BRANCH  25  34
HETATM   34  N1  UNL     1       8.420  27.041  31.746  1.00  0.00    -0.234 N 
ATOM     35  H12 UNL     1       8.228  27.684  30.978  1.00  0.00     0.174 HD
ATOM     36  H11 UNL     1       9.410  27.075  31.987  1.00  0.00     0.174 HD
ENDBRANCH  25  34
ENDBRANCH   1  24
TORSDOF 6
ENDMDL
