MODEL 1
REMARK VINA RESULT: -5.461552742      0.000      0.000
REMARK  2 active torsions:
REMARK  status: ('A' for Active; 'I' for Inactive)
REMARK    1  A    between atoms: C5_5  and  O1_6 
REMARK    2  A    between atoms: C7_9  and  O2_10 
ROOT
HETATM    1  C1  UNL     1      12.182  19.186  15.849  1.00  0.00     0.015 C 
HETATM    2  C2  UNL     1      11.657  17.758  15.620  1.00  0.00    -0.042 C 
HETATM    3  C3  UNL     1      10.375  17.835  14.787  1.00  0.00     0.015 C 
HETATM    4  C4  UNL     1      11.328  17.215  16.954  1.00  0.00     0.040 C 
HETATM    5  C5  UNL     1      11.415  15.760  17.137  1.00  0.00     0.122 C 
HETATM    6  C6  UNL     1      12.430  15.046  16.323  1.00  0.00     0.085 C 
HETATM    7  C7  UNL     1      13.362  15.913  15.554  1.00  0.00     0.149 C 
HETATM    8  C8  UNL     1      14.470  16.410  16.370  1.00  0.00     0.097 C 
HETATM    9  N1  UNL     1      15.358  16.811  17.006  1.00  0.00    -0.194 NA
HETATM   10  C9  UNL     1      12.671  17.034  14.829  1.00  0.00     0.062 C 
ENDROOT
BRANCH   7  11
HETATM   11  O2  UNL     1      13.956  15.103  14.559  1.00  0.00    -0.375 OA
ATOM     12  H2  UNL     1      14.889  15.086  14.735  1.00  0.00     0.211 HD
ENDBRANCH   7  11
BRANCH   5  13
HETATM   13  O1  UNL     1      11.695  15.483  18.497  1.00  0.00    -0.395 OA
ATOM     14  H1  UNL     1      11.675  14.543  18.630  1.00  0.00     0.210 HD
ENDBRANCH   5  13
TORSDOF 2
ENDMDL
MODEL 2
REMARK VINA RESULT: -5.217258716      1.847      3.332
REMARK  2 active torsions:
REMARK  status: ('A' for Active; 'I' for Inactive)
REMARK    1  A    between atoms: C5_5  and  O1_6 
REMARK    2  A    between atoms: C7_9  and  O2_10 
ROOT
HETATM    1  C1  UNL     1      11.770  18.588  14.426  1.00  0.00     0.015 C 
HETATM    2  C2  UNL     1      13.024  18.379  15.292  1.00  0.00    -0.042 C 
HETATM    3  C3  UNL     1      13.834  19.678  15.302  1.00  0.00     0.015 C 
HETATM    4  C4  UNL     1      13.819  17.325  14.630  1.00  0.00     0.040 C 
HETATM    5  C5  UNL     1      14.683  16.490  15.476  1.00  0.00     0.122 C 
HETATM    6  C6  UNL     1      14.219  16.246  16.864  1.00  0.00     0.085 C 
HETATM    7  C7  UNL     1      12.846  16.726  17.176  1.00  0.00     0.149 C 
HETATM    8  C8  UNL     1      11.811  15.787  16.743  1.00  0.00     0.097 C 
HETATM    9  N1  UNL     1      10.977  15.049  16.405  1.00  0.00    -0.194 NA
HETATM   10  C9  UNL     1      12.571  18.114  16.672  1.00  0.00     0.062 C 
ENDROOT
BRANCH   7  11
HETATM   11  O2  UNL     1      12.738  16.786  18.586  1.00  0.00    -0.375 OA
ATOM     12  H2  UNL     1      12.466  17.669  18.806  1.00  0.00     0.211 HD
ENDBRANCH   7  11
BRANCH   5  13
HETATM   13  O1  UNL     1      14.848  15.226  14.859  1.00  0.00    -0.395 OA
ATOM     14  H1  UNL     1      15.215  14.620  15.492  1.00  0.00     0.210 HD
ENDBRANCH   5  13
TORSDOF 2
ENDMDL
MODEL 3
REMARK VINA RESULT: -5.083732948      2.459      3.595
REMARK  2 active torsions:
REMARK  status: ('A' for Active; 'I' for Inactive)
REMARK    1  A    between atoms: C5_5  and  O1_6 
REMARK    2  A    between atoms: C7_9  and  O2_10 
ROOT
HETATM    1  C1  UNL     1      13.731  15.444  14.306  1.00  0.00     0.015 C 
HETATM    2  C2  UNL     1      13.842  16.602  15.314  1.00  0.00    -0.042 C 
HETATM    3  C3  UNL     1      15.305  17.044  15.393  1.00  0.00     0.015 C 
HETATM    4  C4  UNL     1      13.435  16.056  16.625  1.00  0.00     0.040 C 
HETATM    5  C5  UNL     1      12.845  16.986  17.597  1.00  0.00     0.122 C 
HETATM    6  C6  UNL     1      12.069  18.123  17.043  1.00  0.00     0.085 C 
HETATM    7  C7  UNL     1      11.828  18.081  15.576  1.00  0.00     0.149 C 
HETATM    8  C8  UNL     1      10.696  17.227  15.216  1.00  0.00     0.097 C 
HETATM    9  N1  UNL     1       9.797  16.552  14.915  1.00  0.00    -0.194 NA
HETATM   10  C9  UNL     1      13.053  17.731  14.781  1.00  0.00     0.062 C 
ENDROOT
BRANCH   7  11
HETATM   11  O2  UNL     1      11.458  19.389  15.180  1.00  0.00    -0.375 OA
ATOM     12  H2  UNL     1      10.653  19.310  14.682  1.00  0.00     0.211 HD
ENDBRANCH   7  11
BRANCH   5  13
HETATM   13  O1  UNL     1      11.982  16.266  18.457  1.00  0.00    -0.395 OA
ATOM     14  H1  UNL     1      12.475  15.974  19.215  1.00  0.00     0.210 HD
ENDBRANCH   5  13
TORSDOF 2
ENDMDL
MODEL 4
REMARK VINA RESULT: -4.948044374      2.520      3.622
REMARK  2 active torsions:
REMARK  status: ('A' for Active; 'I' for Inactive)
REMARK    1  A    between atoms: C5_5  and  O1_6 
REMARK    2  A    between atoms: C7_9  and  O2_10 
ROOT
HETATM    1  C1  UNL     1      13.969  17.642  14.532  1.00  0.00     0.015 C 
HETATM    2  C2  UNL     1      12.703  18.516  14.480  1.00  0.00    -0.042 C 
HETATM    3  C3  UNL     1      12.661  19.236  13.130  1.00  0.00     0.015 C 
HETATM    4  C4  UNL     1      12.844  19.521  15.554  1.00  0.00     0.040 C 
HETATM    5  C5  UNL     1      11.613  20.053  16.154  1.00  0.00     0.122 C 
HETATM    6  C6  UNL     1      10.447  19.136  16.203  1.00  0.00     0.085 C 
HETATM    7  C7  UNL     1      10.719  17.730  15.805  1.00  0.00     0.149 C 
HETATM    8  C8  UNL     1      11.295  16.938  16.893  1.00  0.00     0.097 C 
HETATM    9  N1  UNL     1      11.752  16.297  17.749  1.00  0.00    -0.194 NA
HETATM   10  C9  UNL     1      11.537  17.613  14.551  1.00  0.00     0.062 C 
ENDROOT
BRANCH   7  11
HETATM   11  O2  UNL     1       9.469  17.131  15.521  1.00  0.00    -0.375 OA
ATOM     12  H2  UNL     1       8.850  17.836  15.371  1.00  0.00     0.211 HD
ENDBRANCH   7  11
BRANCH   5  13
HETATM   13  O1  UNL     1      11.887  20.458  17.482  1.00  0.00    -0.395 OA
ATOM     14  H1  UNL     1      12.113  21.380  17.483  1.00  0.00     0.210 HD
ENDBRANCH   5  13
TORSDOF 2
ENDMDL
MODEL 5
REMARK VINA RESULT: -4.922708157      2.243      3.203
REMARK  2 active torsions:
REMARK  status: ('A' for Active; 'I' for Inactive)
REMARK    1  A    between atoms: C5_5  and  O1_6 
REMARK    2  A    between atoms: C7_9  and  O2_10 
ROOT
HETATM    1  C1  UNL     1      13.929  17.850  13.994  1.00  0.00     0.015 C 
HETATM    2  C2  UNL     1      13.267  16.722  14.805  1.00  0.00    -0.042 C 
HETATM    3  C3  UNL     1      13.887  15.387  14.384  1.00  0.00     0.015 C 
HETATM    4  C4  UNL     1      11.837  16.724  14.432  1.00  0.00     0.040 C 
HETATM    5  C5  UNL     1      10.872  16.242  15.430  1.00  0.00     0.122 C 
HETATM    6  C6  UNL     1      11.223  16.464  16.855  1.00  0.00     0.085 C 
HETATM    7  C7  UNL     1      12.422  17.310  17.097  1.00  0.00     0.149 C 
HETATM    8  C8  UNL     1      12.125  18.741  17.022  1.00  0.00     0.097 C 
HETATM    9  N1  UNL     1      11.903  19.882  16.968  1.00  0.00    -0.194 NA
HETATM   10  C9  UNL     1      13.592  16.947  16.227  1.00  0.00     0.062 C 
ENDROOT
BRANCH   7  11
HETATM   11  O2  UNL     1      12.831  17.076  18.431  1.00  0.00    -0.375 OA
ATOM     12  H2  UNL     1      13.271  16.235  18.443  1.00  0.00     0.211 HD
ENDBRANCH   7  11
BRANCH   5  13
HETATM   13  O1  UNL     1       9.623  16.867  15.202  1.00  0.00    -0.395 OA
ATOM     14  H1  UNL     1       9.014  16.224  14.859  1.00  0.00     0.210 HD
ENDBRANCH   5  13
TORSDOF 2
ENDMDL
