MODEL 1
REMARK VINA RESULT: -5.073632720      0.000      0.000
REMARK  0 active torsions:
REMARK  status: ('A' for Active; 'I' for Inactive)
ROOT
HETATM    1  C1  UNL     1      16.217  16.535  19.176  1.00  0.00     0.002 C 
HETATM    2  C2  UNL     1      15.413  15.367  19.657  1.00  0.00     0.002 C 
HETATM    3  C3  UNL     1      14.430  15.002  18.601  1.00  0.00     0.033 C 
HETATM    4  C4  UNL     1      14.576  16.018  17.475  1.00  0.00     0.054 C 
HETATM    5  C5  UNL     1      15.831  16.791  17.750  1.00  0.00     0.033 C 
HETATM    6  C6  UNL     1      13.421  17.008  17.496  1.00  0.00     0.106 C 
HETATM    7  S1  UNL     1      11.894  16.052  17.512  1.00  0.00    -0.161 SA
HETATM    8  C7  UNL     1      11.940  14.899  16.118  1.00  0.00     0.120 C 
HETATM    9  C8  UNL     1      12.691  15.445  14.940  1.00  0.00     0.089 C 
HETATM   10  N1  UNL     1      14.030  15.808  15.181  1.00  0.00    -0.319 N 
ATOM     11  H1  UNL     1      14.513  16.441  14.542  1.00  0.00     0.185 HD
HETATM   12  N2  UNL     1      14.666  15.317  16.250  1.00  0.00    -0.326 N 
ATOM     13  H2  UNL     1      15.205  14.454  16.184  1.00  0.00     0.181 HD
ENDROOT
TORSDOF 0
ENDMDL
MODEL 2
REMARK VINA RESULT: -4.946828834      3.037      3.952
REMARK  0 active torsions:
REMARK  status: ('A' for Active; 'I' for Inactive)
ROOT
HETATM    1  C1  UNL     1      12.772  15.050  17.913  1.00  0.00     0.002 C 
HETATM    2  C2  UNL     1      13.389  16.391  18.166  1.00  0.00     0.002 C 
HETATM    3  C3  UNL     1      12.662  17.407  17.356  1.00  0.00     0.033 C 
HETATM    4  C4  UNL     1      11.624  16.665  16.524  1.00  0.00     0.054 C 
HETATM    5  C5  UNL     1      11.556  15.267  17.063  1.00  0.00     0.033 C 
HETATM    6  C6  UNL     1      12.071  16.570  15.073  1.00  0.00     0.106 C 
HETATM    7  S1  UNL     1      12.484  18.237  14.529  1.00  0.00    -0.161 SA
HETATM    8  C7  UNL     1      11.062  19.305  14.863  1.00  0.00     0.120 C 
HETATM    9  C8  UNL     1       9.755  18.579  14.750  1.00  0.00     0.089 C 
HETATM   10  N1  UNL     1       9.599  17.460  15.589  1.00  0.00    -0.319 N 
ATOM     11  H1  UNL     1       8.892  16.756  15.379  1.00  0.00     0.185 HD
HETATM   12  N2  UNL     1      10.382  17.327  16.665  1.00  0.00    -0.326 N 
ATOM     13  H2  UNL     1      10.090  17.696  17.570  1.00  0.00     0.181 HD
ENDROOT
TORSDOF 0
ENDMDL
MODEL 3
REMARK VINA RESULT: -4.913542753      2.401      3.019
REMARK  0 active torsions:
REMARK  status: ('A' for Active; 'I' for Inactive)
ROOT
HETATM    1  C1  UNL     1      13.853  14.278  18.771  1.00  0.00     0.002 C 
HETATM    2  C2  UNL     1      14.760  15.446  18.539  1.00  0.00     0.002 C 
HETATM    3  C3  UNL     1      14.032  16.456  17.721  1.00  0.00     0.033 C 
HETATM    4  C4  UNL     1      12.673  15.862  17.374  1.00  0.00     0.054 C 
HETATM    5  C5  UNL     1      12.504  14.639  18.226  1.00  0.00     0.033 C 
HETATM    6  C6  UNL     1      12.642  15.410  15.922  1.00  0.00     0.106 C 
HETATM    7  S1  UNL     1      13.183  16.802  14.915  1.00  0.00    -0.161 SA
HETATM    8  C7  UNL     1      12.155  18.231  15.334  1.00  0.00     0.120 C 
HETATM    9  C8  UNL     1      10.760  17.844  15.725  1.00  0.00     0.089 C 
HETATM   10  N1  UNL     1      10.651  16.961  16.816  1.00  0.00    -0.319 N 
ATOM     11  H1  UNL     1       9.793  16.429  16.961  1.00  0.00     0.185 HD
HETATM   12  N2  UNL     1      11.678  16.826  17.661  1.00  0.00    -0.326 N 
ATOM     13  H2  UNL     1      11.743  17.406  18.498  1.00  0.00     0.181 HD
ENDROOT
TORSDOF 0
ENDMDL
MODEL 4
REMARK VINA RESULT: -4.842000870      3.566      4.656
REMARK  0 active torsions:
REMARK  status: ('A' for Active; 'I' for Inactive)
ROOT
HETATM    1  C1  UNL     1      12.390  15.152  16.431  1.00  0.00     0.002 C 
HETATM    2  C2  UNL     1      11.899  16.048  17.527  1.00  0.00     0.002 C 
HETATM    3  C3  UNL     1      11.077  17.131  16.921  1.00  0.00     0.033 C 
HETATM    4  C4  UNL     1      11.127  16.946  15.409  1.00  0.00     0.054 C 
HETATM    5  C5  UNL     1      11.734  15.598  15.158  1.00  0.00     0.033 C 
HETATM    6  C6  UNL     1      12.043  17.981  14.775  1.00  0.00     0.106 C 
HETATM    7  S1  UNL     1      11.513  19.600  15.361  1.00  0.00    -0.161 SA
HETATM    8  C7  UNL     1       9.745  19.770  15.014  1.00  0.00     0.120 C 
HETATM    9  C8  UNL     1       9.327  19.040  13.773  1.00  0.00     0.089 C 
HETATM   10  N1  UNL     1       9.588  17.657  13.757  1.00  0.00    -0.319 N 
ATOM     11  H1  UNL     1       9.609  17.149  12.872  1.00  0.00     0.185 HD
HETATM   12  N2  UNL     1       9.806  17.012  14.908  1.00  0.00    -0.326 N 
ATOM     13  H2  UNL     1       9.036  16.577  15.414  1.00  0.00     0.181 HD
ENDROOT
TORSDOF 0
ENDMDL
MODEL 5
REMARK VINA RESULT: -4.826168459      2.510      4.585
REMARK  0 active torsions:
REMARK  status: ('A' for Active; 'I' for Inactive)
ROOT
HETATM    1  C1  UNL     1       9.734  17.713  15.412  1.00  0.00     0.002 C 
HETATM    2  C2  UNL     1      10.424  16.701  14.551  1.00  0.00     0.002 C 
HETATM    3  C3  UNL     1      11.636  16.217  15.268  1.00  0.00     0.033 C 
HETATM    4  C4  UNL     1      11.740  17.007  16.566  1.00  0.00     0.054 C 
HETATM    5  C5  UNL     1      10.440  17.736  16.735  1.00  0.00     0.033 C 
HETATM    6  C6  UNL     1      12.838  18.055  16.468  1.00  0.00     0.106 C 
HETATM    7  S1  UNL     1      14.336  17.214  15.926  1.00  0.00    -0.161 SA
HETATM    8  C7  UNL     1      14.643  15.833  17.054  1.00  0.00     0.120 C 
HETATM    9  C8  UNL     1      14.180  16.114  18.452  1.00  0.00     0.089 C 
HETATM   10  N1  UNL     1      12.816  16.429  18.596  1.00  0.00    -0.319 N 
ATOM     11  H1  UNL     1      12.485  16.907  19.434  1.00  0.00     0.185 HD
HETATM   12  N2  UNL     1      11.955  16.096  17.627  1.00  0.00    -0.326 N 
ATOM     13  H2  UNL     1      11.464  15.203  17.653  1.00  0.00     0.181 HD
ENDROOT
TORSDOF 0
ENDMDL
