MODEL 1
REMARK VINA RESULT: -5.335956819      0.000      0.000
REMARK  2 active torsions:
REMARK  status: ('A' for Active; 'I' for Inactive)
REMARK    1  A    between atoms: C3_3  and  O1_4 
REMARK    2  A    between atoms: C5_7  and  O2_8 
ROOT
HETATM    1  C1  UNL     1      15.064  16.177  16.876  1.00  0.00     0.013 C 
HETATM    2  C2  UNL     1      13.832  16.865  17.320  1.00  0.00     0.022 C 
HETATM    3  C3  UNL     1      12.949  16.067  18.230  1.00  0.00     0.126 C 
HETATM    4  C4  UNL     1      11.971  15.353  17.318  1.00  0.00     0.086 C 
HETATM    5  C5  UNL     1      12.083  16.013  15.981  1.00  0.00     0.155 C 
HETATM    6  C6  UNL     1      10.792  16.349  15.395  1.00  0.00     0.098 C 
HETATM    7  N1  UNL     1       9.758  16.607  14.921  1.00  0.00    -0.194 NA
HETATM    8  C7  UNL     1      12.896  17.253  16.220  1.00  0.00     0.003 C 
HETATM    9  C8  UNL     1      12.055  18.415  16.717  1.00  0.00     0.019 C 
HETATM   10  C9  UNL     1      13.565  17.670  14.957  1.00  0.00     0.019 C 
ENDROOT
BRANCH   5  11
HETATM   11  O2  UNL     1      12.731  15.162  15.089  1.00  0.00    -0.374 OA
ATOM     12  H2  UNL     1      12.135  14.914  14.391  1.00  0.00     0.212 HD
ENDBRANCH   5  11
BRANCH   3  13
HETATM   13  O1  UNL     1      13.617  15.211  19.067  1.00  0.00    -0.395 OA
ATOM     14  H1  UNL     1      14.447  15.542  19.390  1.00  0.00     0.210 HD
ENDBRANCH   3  13
TORSDOF 2
ENDMDL
MODEL 2
REMARK VINA RESULT: -5.223702943      1.749      2.840
REMARK  2 active torsions:
REMARK  status: ('A' for Active; 'I' for Inactive)
REMARK    1  A    between atoms: C3_3  and  O1_4 
REMARK    2  A    between atoms: C5_7  and  O2_8 
ROOT
HETATM    1  C1  UNL     1      15.072  15.826  17.724  1.00  0.00     0.013 C 
HETATM    2  C2  UNL     1      14.330  15.922  16.448  1.00  0.00     0.022 C 
HETATM    3  C3  UNL     1      14.435  17.241  15.748  1.00  0.00     0.126 C 
HETATM    4  C4  UNL     1      13.260  18.058  16.250  1.00  0.00     0.086 C 
HETATM    5  C5  UNL     1      12.339  17.096  16.929  1.00  0.00     0.155 C 
HETATM    6  C6  UNL     1      10.947  17.248  16.526  1.00  0.00     0.098 C 
HETATM    7  N1  UNL     1       9.832  17.380  16.211  1.00  0.00    -0.194 NA
HETATM    8  C7  UNL     1      12.851  15.733  16.563  1.00  0.00     0.003 C 
HETATM    9  C8  UNL     1      12.339  15.261  15.214  1.00  0.00     0.019 C 
HETATM   10  C9  UNL     1      12.432  14.741  17.592  1.00  0.00     0.019 C 
ENDROOT
BRANCH   5  11
HETATM   11  O2  UNL     1      12.391  17.289  18.308  1.00  0.00    -0.374 OA
ATOM     12  H2  UNL     1      11.509  17.337  18.659  1.00  0.00     0.212 HD
ENDBRANCH   5  11
BRANCH   3  13
HETATM   13  O1  UNL     1      15.636  17.881  15.914  1.00  0.00    -0.395 OA
ATOM     14  H1  UNL     1      15.603  18.642  16.482  1.00  0.00     0.210 HD
ENDBRANCH   3  13
TORSDOF 2
ENDMDL
MODEL 3
REMARK VINA RESULT: -5.207683442      1.902      2.755
REMARK  2 active torsions:
REMARK  status: ('A' for Active; 'I' for Inactive)
REMARK    1  A    between atoms: C3_3  and  O1_4 
REMARK    2  A    between atoms: C5_7  and  O2_8 
ROOT
HETATM    1  C1  UNL     1      11.980  14.529  15.996  1.00  0.00     0.013 C 
HETATM    2  C2  UNL     1      12.798  15.691  15.584  1.00  0.00     0.022 C 
HETATM    3  C3  UNL     1      13.836  16.122  16.574  1.00  0.00     0.126 C 
HETATM    4  C4  UNL     1      13.159  17.170  17.436  1.00  0.00     0.086 C 
HETATM    5  C5  UNL     1      11.907  17.561  16.718  1.00  0.00     0.155 C 
HETATM    6  C6  UNL     1      11.722  19.002  16.625  1.00  0.00     0.098 C 
HETATM    7  N1  UNL     1      11.569  20.157  16.562  1.00  0.00    -0.194 NA
HETATM    8  C7  UNL     1      12.030  16.952  15.350  1.00  0.00     0.003 C 
HETATM    9  C8  UNL     1      12.838  17.816  14.398  1.00  0.00     0.019 C 
HETATM   10  C9  UNL     1      10.676  16.752  14.762  1.00  0.00     0.019 C 
ENDROOT
BRANCH   5  11
HETATM   11  O2  UNL     1      10.800  17.047  17.389  1.00  0.00    -0.374 OA
ATOM     12  H2  UNL     1      10.627  16.161  17.092  1.00  0.00     0.212 HD
ENDBRANCH   5  11
BRANCH   3  13
HETATM   13  O1  UNL     1      14.381  15.102  17.310  1.00  0.00    -0.395 OA
ATOM     14  H1  UNL     1      15.306  14.953  17.155  1.00  0.00     0.210 HD
ENDBRANCH   3  13
TORSDOF 2
ENDMDL
MODEL 4
REMARK VINA RESULT: -5.161909172      2.147      2.857
REMARK  2 active torsions:
REMARK  status: ('A' for Active; 'I' for Inactive)
REMARK    1  A    between atoms: C3_3  and  O1_4 
REMARK    2  A    between atoms: C5_7  and  O2_8 
ROOT
HETATM    1  C1  UNL     1      12.097  14.735  16.020  1.00  0.00     0.013 C 
HETATM    2  C2  UNL     1      13.145  15.574  16.642  1.00  0.00     0.022 C 
HETATM    3  C3  UNL     1      12.677  16.450  17.764  1.00  0.00     0.126 C 
HETATM    4  C4  UNL     1      12.302  17.768  17.115  1.00  0.00     0.086 C 
HETATM    5  C5  UNL     1      12.881  17.739  15.737  1.00  0.00     0.155 C 
HETATM    6  C6  UNL     1      13.604  18.954  15.390  1.00  0.00     0.098 C 
HETATM    7  N1  UNL     1      14.172  19.934  15.108  1.00  0.00    -0.194 NA
HETATM    8  C7  UNL     1      13.800  16.551  15.720  1.00  0.00     0.003 C 
HETATM    9  C8  UNL     1      15.174  16.869  16.283  1.00  0.00     0.019 C 
HETATM   10  C9  UNL     1      13.972  16.065  14.323  1.00  0.00     0.019 C 
ENDROOT
BRANCH   5  11
HETATM   11  O2  UNL     1      11.860  17.586  14.801  1.00  0.00    -0.374 OA
ATOM     12  H2  UNL     1      12.139  17.934  13.962  1.00  0.00     0.212 HD
ENDBRANCH   5  11
BRANCH   3  13
HETATM   13  O1  UNL     1      11.660  15.920  18.515  1.00  0.00    -0.395 OA
ATOM     14  H1  UNL     1      10.865  16.439  18.527  1.00  0.00     0.210 HD
ENDBRANCH   3  13
TORSDOF 2
ENDMDL
MODEL 5
REMARK VINA RESULT: -5.117348586      2.480      3.362
REMARK  2 active torsions:
REMARK  status: ('A' for Active; 'I' for Inactive)
REMARK    1  A    between atoms: C3_3  and  O1_4 
REMARK    2  A    between atoms: C5_7  and  O2_8 
ROOT
HETATM    1  C1  UNL     1      10.514  17.128  16.467  1.00  0.00     0.013 C 
HETATM    2  C2  UNL     1      11.633  16.199  16.197  1.00  0.00     0.022 C 
HETATM    3  C3  UNL     1      12.373  15.724  17.409  1.00  0.00     0.126 C 
HETATM    4  C4  UNL     1      13.511  16.708  17.597  1.00  0.00     0.086 C 
HETATM    5  C5  UNL     1      13.607  17.489  16.326  1.00  0.00     0.155 C 
HETATM    6  C6  UNL     1      14.967  17.596  15.816  1.00  0.00     0.098 C 
HETATM    7  N1  UNL     1      16.058  17.690  15.414  1.00  0.00    -0.194 NA
HETATM    8  C7  UNL     1      12.728  16.762  15.349  1.00  0.00     0.003 C 
HETATM    9  C8  UNL     1      13.439  15.599  14.680  1.00  0.00     0.019 C 
HETATM   10  C9  UNL     1      12.269  17.699  14.287  1.00  0.00     0.019 C 
ENDROOT
BRANCH   5  11
HETATM   11  O2  UNL     1      13.144  18.786  16.535  1.00  0.00    -0.374 OA
ATOM     12  H2  UNL     1      12.432  18.974  15.934  1.00  0.00     0.212 HD
ENDBRANCH   5  11
BRANCH   3  13
HETATM   13  O1  UNL     1      11.600  15.586  18.532  1.00  0.00    -0.395 OA
ATOM     14  H1  UNL     1      12.085  15.389  19.324  1.00  0.00     0.210 HD
ENDBRANCH   3  13
TORSDOF 2
ENDMDL
