MODEL 1
REMARK VINA RESULT: -5.434566896      0.000      0.000
REMARK  1 active torsions:
REMARK  status: ('A' for Active; 'I' for Inactive)
REMARK    1  A    between atoms: O1_1  and  C1_3 
ROOT
HETATM    1  C1  UNL     1      12.718  16.879  17.346  1.00  0.00     0.089 C 
HETATM    2  C2  UNL     1      12.393  18.335  17.054  1.00  0.00     0.073 C 
HETATM    3  C3  UNL     1      11.148  18.234  16.251  1.00  0.00     0.198 C 
HETATM    4  C4  UNL     1      11.352  18.187  14.776  1.00  0.00     0.107 C 
HETATM    5  S1  UNL     1      13.115  17.955  14.449  1.00  0.00    -0.162 SA
HETATM    6  C5  UNL     1      13.745  16.444  15.187  1.00  0.00     0.050 C 
HETATM    7  C6  UNL     1      12.861  15.265  14.947  1.00  0.00     0.017 C 
HETATM    8  C7  UNL     1      11.729  15.092  15.868  1.00  0.00     0.037 C 
HETATM    9  C8  UNL     1      11.562  16.057  16.966  1.00  0.00     0.220 C 
HETATM   10  N1  UNL     1      10.507  17.049  16.699  1.00  0.00    -0.063 N 
ATOM     11  H11 UNL     1       9.795  16.711  16.052  1.00  0.00     0.278 HD
ATOM     12  H12 UNL     1       9.895  17.205  17.499  1.00  0.00     0.278 HD
HETATM   13  C9  UNL     1      14.006  16.558  16.660  1.00  0.00     0.055 C 
ENDROOT
BRANCH   1  14
HETATM   14  O1  UNL     1      12.937  16.798  18.733  1.00  0.00    -0.388 OA
ATOM     15  H1  UNL     1      13.836  16.512  18.842  1.00  0.00     0.210 HD
ENDBRANCH   1  14
TORSDOF 1
ENDMDL
MODEL 2
REMARK VINA RESULT: -5.386291237      1.416      2.189
REMARK  1 active torsions:
REMARK  status: ('A' for Active; 'I' for Inactive)
REMARK    1  A    between atoms: O1_1  and  C1_3 
ROOT
HETATM    1  C1  UNL     1      12.077  15.926  17.426  1.00  0.00     0.089 C 
HETATM    2  C2  UNL     1      13.565  16.236  17.467  1.00  0.00     0.073 C 
HETATM    3  C3  UNL     1      13.627  17.603  16.889  1.00  0.00     0.198 C 
HETATM    4  C4  UNL     1      13.855  17.655  15.418  1.00  0.00     0.107 C 
HETATM    5  S1  UNL     1      13.672  15.986  14.750  1.00  0.00    -0.162 SA
HETATM    6  C5  UNL     1      12.045  15.302  15.078  1.00  0.00     0.050 C 
HETATM    7  C6  UNL     1      10.939  16.261  14.786  1.00  0.00     0.017 C 
HETATM    8  C7  UNL     1      10.606  17.226  15.844  1.00  0.00     0.037 C 
HETATM    9  C8  UNL     1      11.351  17.163  17.112  1.00  0.00     0.220 C 
HETATM   10  N1  UNL     1      12.384  18.206  17.220  1.00  0.00    -0.063 N 
ATOM     11  H11 UNL     1      12.179  19.031  16.657  1.00  0.00     0.278 HD
ATOM     12  H12 UNL     1      12.393  18.666  18.129  1.00  0.00     0.278 HD
HETATM   13  C9  UNL     1      11.878  14.789  16.478  1.00  0.00     0.055 C 
ENDROOT
BRANCH   1  14
HETATM   14  O1  UNL     1      11.737  15.477  18.715  1.00  0.00    -0.388 OA
ATOM     15  H1  UNL     1      10.888  15.058  18.633  1.00  0.00     0.210 HD
ENDBRANCH   1  14
TORSDOF 1
ENDMDL
MODEL 3
REMARK VINA RESULT: -5.308009591      1.638      2.629
REMARK  1 active torsions:
REMARK  status: ('A' for Active; 'I' for Inactive)
REMARK    1  A    between atoms: O1_1  and  C1_3 
ROOT
HETATM    1  C1  UNL     1      11.788  16.644  16.731  1.00  0.00     0.089 C 
HETATM    2  C2  UNL     1      11.607  16.460  15.233  1.00  0.00     0.073 C 
HETATM    3  C3  UNL     1      12.354  15.204  14.968  1.00  0.00     0.198 C 
HETATM    4  C4  UNL     1      13.779  15.389  14.576  1.00  0.00     0.107 C 
HETATM    5  S1  UNL     1      14.229  17.118  14.855  1.00  0.00    -0.162 SA
HETATM    6  C5  UNL     1      14.014  17.604  16.569  1.00  0.00     0.050 C 
HETATM    7  C6  UNL     1      14.570  16.607  17.532  1.00  0.00     0.017 C 
HETATM    8  C7  UNL     1      13.703  15.471  17.879  1.00  0.00     0.037 C 
HETATM    9  C8  UNL     1      12.356  15.410  17.288  1.00  0.00     0.220 C 
HETATM   10  N1  UNL     1      12.265  14.455  16.172  1.00  0.00    -0.063 N 
ATOM     11  H11 UNL     1      12.957  13.707  16.228  1.00  0.00     0.278 HD
ATOM     12  H12 UNL     1      11.433  13.868  16.216  1.00  0.00     0.278 HD
HETATM   13  C9  UNL     1      12.589  17.888  16.940  1.00  0.00     0.055 C 
ENDROOT
BRANCH   1  14
HETATM   14  O1  UNL     1      10.502  16.867  17.256  1.00  0.00    -0.388 OA
ATOM     15  H1  UNL     1      10.056  16.029  17.227  1.00  0.00     0.210 HD
ENDBRANCH   1  14
TORSDOF 1
ENDMDL
MODEL 4
REMARK VINA RESULT: -5.260350317      2.209      3.064
REMARK  1 active torsions:
REMARK  status: ('A' for Active; 'I' for Inactive)
REMARK    1  A    between atoms: O1_1  and  C1_3 
ROOT
HETATM    1  C1  UNL     1      13.345  15.801  15.371  1.00  0.00     0.089 C 
HETATM    2  C2  UNL     1      12.928  17.102  14.705  1.00  0.00     0.073 C 
HETATM    3  C3  UNL     1      13.359  18.124  15.693  1.00  0.00     0.198 C 
HETATM    4  C4  UNL     1      12.318  18.523  16.681  1.00  0.00     0.107 C 
HETATM    5  S1  UNL     1      10.927  17.378  16.542  1.00  0.00    -0.162 SA
HETATM    6  C5  UNL     1      11.418  15.678  16.846  1.00  0.00     0.050 C 
HETATM    7  C6  UNL     1      12.286  15.529  18.052  1.00  0.00     0.017 C 
HETATM    8  C7  UNL     1      13.722  15.776  17.865  1.00  0.00     0.037 C 
HETATM    9  C8  UNL     1      14.207  16.118  16.517  1.00  0.00     0.220 C 
HETATM   10  N1  UNL     1      14.479  17.555  16.356  1.00  0.00    -0.063 N 
ATOM     11  H11 UNL     1      14.701  18.021  17.236  1.00  0.00     0.278 HD
ATOM     12  H12 UNL     1      15.361  17.743  15.881  1.00  0.00     0.278 HD
HETATM   13  C9  UNL     1      12.102  15.031  15.678  1.00  0.00     0.055 C 
ENDROOT
BRANCH   1  14
HETATM   14  O1  UNL     1      14.069  15.081  14.403  1.00  0.00    -0.388 OA
ATOM     15  H1  UNL     1      14.576  15.724  13.921  1.00  0.00     0.210 HD
ENDBRANCH   1  14
TORSDOF 1
ENDMDL
MODEL 5
REMARK VINA RESULT: -5.192290777      1.883      2.870
REMARK  1 active torsions:
REMARK  status: ('A' for Active; 'I' for Inactive)
REMARK    1  A    between atoms: O1_1  and  C1_3 
ROOT
HETATM    1  C1  UNL     1      13.500  15.744  17.075  1.00  0.00     0.089 C 
HETATM    2  C2  UNL     1      12.199  14.965  16.971  1.00  0.00     0.073 C 
HETATM    3  C3  UNL     1      11.887  15.050  15.521  1.00  0.00     0.198 C 
HETATM    4  C4  UNL     1      11.009  16.189  15.131  1.00  0.00     0.107 C 
HETATM    5  S1  UNL     1      10.856  17.304  16.545  1.00  0.00    -0.162 SA
HETATM    6  C5  UNL     1      12.448  17.934  17.084  1.00  0.00     0.050 C 
HETATM    7  C6  UNL     1      13.301  18.406  15.954  1.00  0.00     0.017 C 
HETATM    8  C7  UNL     1      14.088  17.382  15.250  1.00  0.00     0.037 C 
HETATM    9  C8  UNL     1      14.008  15.989  15.720  1.00  0.00     0.220 C 
HETATM   10  N1  UNL     1      13.146  15.150  14.872  1.00  0.00    -0.063 N 
ATOM     11  H11 UNL     1      13.074  15.491  13.913  1.00  0.00     0.278 HD
ATOM     12  H12 UNL     1      13.558  14.243  14.658  1.00  0.00     0.278 HD
HETATM   13  C9  UNL     1      13.235  16.957  17.906  1.00  0.00     0.055 C 
ENDROOT
BRANCH   1  14
HETATM   14  O1  UNL     1      14.392  14.921  17.787  1.00  0.00    -0.388 OA
ATOM     15  H1  UNL     1      14.296  15.159  18.702  1.00  0.00     0.210 HD
ENDBRANCH   1  14
TORSDOF 1
ENDMDL
