MODEL 1
REMARK VINA RESULT: -5.191074205      0.000      0.000
REMARK  2 active torsions:
REMARK  status: ('A' for Active; 'I' for Inactive)
REMARK    1  A    between atoms: C2_2  and  O1_3 
REMARK    2  A    between atoms: C8_11  and  O3_12 
ROOT
HETATM    1  C1  UNL     1      14.503  16.661  18.716  1.00  0.00     0.049 C 
HETATM    2  C2  UNL     1      14.150  15.580  17.687  1.00  0.00     0.082 C 
HETATM    3  C3  UNL     1      14.481  16.026  16.314  1.00  0.00     0.072 C 
HETATM    4  C4  UNL     1      13.316  16.395  15.460  1.00  0.00     0.130 C 
HETATM    5  O2  UNL     1      12.535  17.447  15.858  1.00  0.00    -0.385 OA
HETATM    6  C5  UNL     1      11.372  16.688  15.648  1.00  0.00     0.175 C 
HETATM    7  C6  UNL     1      12.181  15.443  15.487  1.00  0.00     0.041 C 
HETATM    8  C7  UNL     1      12.228  14.508  16.651  1.00  0.00     0.044 C 
HETATM    9  C8  UNL     1      12.731  15.175  17.905  1.00  0.00     0.152 C 
ENDROOT
BRANCH   2  10
HETATM   10  O1  UNL     1      15.003  14.495  18.000  1.00  0.00    -0.388 OA
ATOM     11  H1  UNL     1      14.489  13.720  17.804  1.00  0.00     0.210 HD
ENDBRANCH   2  10
BRANCH   9  12
HETATM   12  O3  UNL     1      12.640  14.246  18.941  1.00  0.00    -0.393 OA
ATOM     13  H3  UNL     1      12.088  14.578  19.639  1.00  0.00     0.210 HD
ENDBRANCH   9  12
TORSDOF 2
ENDMDL
MODEL 2
REMARK VINA RESULT: -4.684555948      1.431      3.490
REMARK  2 active torsions:
REMARK  status: ('A' for Active; 'I' for Inactive)
REMARK    1  A    between atoms: C2_2  and  O1_3 
REMARK    2  A    between atoms: C8_11  and  O3_12 
ROOT
HETATM    1  C1  UNL     1      13.091  15.742  14.832  1.00  0.00     0.049 C 
HETATM    2  C2  UNL     1      13.186  16.752  15.982  1.00  0.00     0.082 C 
HETATM    3  C3  UNL     1      14.599  17.051  16.309  1.00  0.00     0.072 C 
HETATM    4  C4  UNL     1      15.108  16.447  17.573  1.00  0.00     0.130 C 
HETATM    5  O2  UNL     1      15.139  15.081  17.666  1.00  0.00    -0.385 OA
HETATM    6  C5  UNL     1      14.527  15.134  18.930  1.00  0.00     0.175 C 
HETATM    7  C6  UNL     1      14.214  16.582  18.748  1.00  0.00     0.041 C 
HETATM    8  C7  UNL     1      12.810  16.934  18.378  1.00  0.00     0.044 C 
HETATM    9  C8  UNL     1      12.358  16.248  17.115  1.00  0.00     0.152 C 
ENDROOT
BRANCH   2  10
HETATM   10  O1  UNL     1      12.607  17.937  15.467  1.00  0.00    -0.388 OA
ATOM     11  H1  UNL     1      12.122  18.304  16.197  1.00  0.00     0.210 HD
ENDBRANCH   2  10
BRANCH   9  12
HETATM   12  O3  UNL     1      11.015  16.566  16.921  1.00  0.00    -0.393 OA
ATOM     13  H3  UNL     1      10.511  16.382  17.706  1.00  0.00     0.210 HD
ENDBRANCH   9  12
TORSDOF 2
ENDMDL
MODEL 3
REMARK VINA RESULT: -4.680306772      1.573      2.107
REMARK  2 active torsions:
REMARK  status: ('A' for Active; 'I' for Inactive)
REMARK    1  A    between atoms: C2_2  and  O1_3 
REMARK    2  A    between atoms: C8_11  and  O3_12 
ROOT
HETATM    1  C1  UNL     1      12.051  16.125  18.147  1.00  0.00     0.049 C 
HETATM    2  C2  UNL     1      13.178  15.871  17.139  1.00  0.00     0.082 C 
HETATM    3  C3  UNL     1      14.107  17.024  17.080  1.00  0.00     0.072 C 
HETATM    4  C4  UNL     1      14.000  17.874  15.860  1.00  0.00     0.130 C 
HETATM    5  O2  UNL     1      12.817  18.525  15.632  1.00  0.00    -0.385 OA
HETATM    6  C5  UNL     1      12.809  18.085  14.298  1.00  0.00     0.175 C 
HETATM    7  C6  UNL     1      13.930  17.138  14.576  1.00  0.00     0.041 C 
HETATM    8  C7  UNL     1      13.575  15.696  14.746  1.00  0.00     0.044 C 
HETATM    9  C8  UNL     1      12.563  15.477  15.839  1.00  0.00     0.152 C 
ENDROOT
BRANCH   2  10
HETATM   10  O1  UNL     1      13.895  14.773  17.672  1.00  0.00    -0.388 OA
ATOM     11  H1  UNL     1      14.738  14.801  17.236  1.00  0.00     0.210 HD
ENDBRANCH   2  10
BRANCH   9  12
HETATM   12  O3  UNL     1      12.234  14.122  15.842  1.00  0.00    -0.393 OA
ATOM     13  H3  UNL     1      12.986  13.595  15.598  1.00  0.00     0.210 HD
ENDBRANCH   9  12
TORSDOF 2
ENDMDL
MODEL 4
REMARK VINA RESULT: -4.638445328      1.641      1.804
REMARK  2 active torsions:
REMARK  status: ('A' for Active; 'I' for Inactive)
REMARK    1  A    between atoms: C2_2  and  O1_3 
REMARK    2  A    between atoms: C8_11  and  O3_12 
ROOT
HETATM    1  C1  UNL     1      15.364  16.093  19.747  1.00  0.00     0.049 C 
HETATM    2  C2  UNL     1      14.633  15.509  18.532  1.00  0.00     0.082 C 
HETATM    3  C3  UNL     1      14.307  16.568  17.549  1.00  0.00     0.072 C 
HETATM    4  C4  UNL     1      12.872  16.966  17.486  1.00  0.00     0.130 C 
HETATM    5  O2  UNL     1      12.307  17.515  18.606  1.00  0.00    -0.385 OA
HETATM    6  C5  UNL     1      11.200  16.657  18.493  1.00  0.00     0.175 C 
HETATM    7  C6  UNL     1      11.901  15.846  17.454  1.00  0.00     0.041 C 
HETATM    8  C7  UNL     1      12.493  14.546  17.892  1.00  0.00     0.044 C 
HETATM    9  C8  UNL     1      13.473  14.712  19.024  1.00  0.00     0.152 C 
ENDROOT
BRANCH   2  10
HETATM   10  O1  UNL     1      15.577  14.643  17.929  1.00  0.00    -0.388 OA
ATOM     11  H1  UNL     1      15.747  15.029  17.077  1.00  0.00     0.210 HD
ENDBRANCH   2  10
BRANCH   9  12
HETATM   12  O3  UNL     1      13.883  13.438  19.415  1.00  0.00    -0.393 OA
ATOM     13  H3  UNL     1      13.292  13.082  20.069  1.00  0.00     0.210 HD
ENDBRANCH   9  12
TORSDOF 2
ENDMDL
MODEL 5
REMARK VINA RESULT: -4.536780975      1.704      3.037
REMARK  2 active torsions:
REMARK  status: ('A' for Active; 'I' for Inactive)
REMARK    1  A    between atoms: C2_2  and  O1_3 
REMARK    2  A    between atoms: C8_11  and  O3_12 
ROOT
HETATM    1  C1  UNL     1      13.424  17.451  14.332  1.00  0.00     0.049 C 
HETATM    2  C2  UNL     1      13.733  16.251  15.235  1.00  0.00     0.082 C 
HETATM    3  C3  UNL     1      12.580  15.323  15.297  1.00  0.00     0.072 C 
HETATM    4  C4  UNL     1      11.808  15.341  16.572  1.00  0.00     0.130 C 
HETATM    5  O2  UNL     1      11.180  16.505  16.928  1.00  0.00    -0.385 OA
HETATM    6  C5  UNL     1      11.702  16.413  18.228  1.00  0.00     0.175 C 
HETATM    7  C6  UNL     1      12.623  15.314  17.810  1.00  0.00     0.041 C 
HETATM    8  C7  UNL     1      14.053  15.677  17.577  1.00  0.00     0.044 C 
HETATM    9  C8  UNL     1      14.211  16.768  16.550  1.00  0.00     0.152 C 
ENDROOT
BRANCH   2  10
HETATM   10  O1  UNL     1      14.791  15.574  14.583  1.00  0.00    -0.388 OA
ATOM     11  H1  UNL     1      15.093  14.933  15.216  1.00  0.00     0.210 HD
ENDBRANCH   2  10
BRANCH   9  12
HETATM   12  O3  UNL     1      15.565  17.094  16.487  1.00  0.00    -0.393 OA
ATOM     13  H3  UNL     1      16.087  16.319  16.313  1.00  0.00     0.210 HD
ENDBRANCH   9  12
TORSDOF 2
ENDMDL
