MODEL 1
REMARK VINA RESULT: -5.113658123      0.000      0.000
REMARK  2 active torsions:
REMARK  status: ('A' for Active; 'I' for Inactive)
REMARK    1  A    between atoms: C2_2  and  O1_3 
REMARK    2  A    between atoms: C8_11  and  O3_12 
ROOT
HETATM    1  C1  UNL     1      14.262  14.318  18.854  1.00  0.00     0.045 C 
HETATM    2  C2  UNL     1      13.557  15.498  18.176  1.00  0.00     0.057 C 
HETATM    3  C3  UNL     1      12.204  15.017  17.762  1.00  0.00     0.040 C 
HETATM    4  C4  UNL     1      12.111  14.777  16.260  1.00  0.00     0.037 C 
HETATM    5  C5  UNL     1      12.133  16.105  15.560  1.00  0.00     0.153 C 
HETATM    6  O2  UNL     1      12.474  17.161  16.386  1.00  0.00    -0.375 OA
HETATM    7  C6  UNL     1      13.812  16.911  16.113  1.00  0.00     0.156 C 
HETATM    8  C7  UNL     1      14.432  15.899  17.013  1.00  0.00     0.072 C 
HETATM    9  C8  UNL     1      13.425  16.277  14.811  1.00  0.00     0.176 C 
ENDROOT
BRANCH   2  10
HETATM   10  O1  UNL     1      13.474  16.591  19.028  1.00  0.00    -0.390 OA
ATOM     11  H1  UNL     1      13.654  17.402  18.565  1.00  0.00     0.210 HD
ENDBRANCH   2  10
BRANCH   9  12
HETATM   12  O3  UNL     1      14.092  15.104  14.504  1.00  0.00    -0.390 OA
ATOM     13  H3  UNL     1      14.814  15.195  13.894  1.00  0.00     0.210 HD
ENDBRANCH   9  12
TORSDOF 2
ENDMDL
MODEL 2
REMARK VINA RESULT: -4.797978060      1.464      3.302
REMARK  2 active torsions:
REMARK  status: ('A' for Active; 'I' for Inactive)
REMARK    1  A    between atoms: C2_2  and  O1_3 
REMARK    2  A    between atoms: C8_11  and  O3_12 
ROOT
HETATM    1  C1  UNL     1      12.139  15.212  14.921  1.00  0.00     0.045 C 
HETATM    2  C2  UNL     1      12.315  15.977  16.237  1.00  0.00     0.057 C 
HETATM    3  C3  UNL     1      13.406  16.974  16.018  1.00  0.00     0.040 C 
HETATM    4  C4  UNL     1      14.709  16.561  16.692  1.00  0.00     0.037 C 
HETATM    5  C5  UNL     1      14.541  16.690  18.179  1.00  0.00     0.153 C 
HETATM    6  O2  UNL     1      13.233  16.896  18.573  1.00  0.00    -0.375 OA
HETATM    7  C6  UNL     1      13.049  15.520  18.598  1.00  0.00     0.156 C 
HETATM    8  C7  UNL     1      12.649  14.942  17.284  1.00  0.00     0.072 C 
HETATM    9  C8  UNL     1      14.519  15.332  18.821  1.00  0.00     0.176 C 
ENDROOT
BRANCH   2  10
HETATM   10  O1  UNL     1      11.131  16.590  16.625  1.00  0.00    -0.390 OA
ATOM     11  H1  UNL     1      10.791  17.148  15.936  1.00  0.00     0.210 HD
ENDBRANCH   2  10
BRANCH   9  12
HETATM   12  O3  UNL     1      15.103  14.318  18.081  1.00  0.00    -0.390 OA
ATOM     13  H3  UNL     1      14.922  13.437  18.385  1.00  0.00     0.210 HD
ENDBRANCH   9  12
TORSDOF 2
ENDMDL
MODEL 3
REMARK VINA RESULT: -4.797868252      1.480      2.636
REMARK  2 active torsions:
REMARK  status: ('A' for Active; 'I' for Inactive)
REMARK    1  A    between atoms: C2_2  and  O1_3 
REMARK    2  A    between atoms: C8_11  and  O3_12 
ROOT
HETATM    1  C1  UNL     1      14.869  16.186  19.602  1.00  0.00     0.045 C 
HETATM    2  C2  UNL     1      14.527  15.696  18.191  1.00  0.00     0.057 C 
HETATM    3  C3  UNL     1      14.820  16.825  17.256  1.00  0.00     0.040 C 
HETATM    4  C4  UNL     1      13.550  17.507  16.761  1.00  0.00     0.037 C 
HETATM    5  C5  UNL     1      12.842  16.576  15.820  1.00  0.00     0.153 C 
HETATM    6  O2  UNL     1      13.349  15.290  15.827  1.00  0.00    -0.375 OA
HETATM    7  C6  UNL     1      12.501  14.987  16.883  1.00  0.00     0.156 C 
HETATM    8  C7  UNL     1      13.069  15.307  18.222  1.00  0.00     0.072 C 
HETATM    9  C8  UNL     1      11.569  16.075  16.443  1.00  0.00     0.176 C 
ENDROOT
BRANCH   2  10
HETATM   10  O1  UNL     1      15.252  14.558  17.864  1.00  0.00    -0.390 OA
ATOM     11  H1  UNL     1      15.780  14.698  17.086  1.00  0.00     0.210 HD
ENDBRANCH   2  10
BRANCH   9  12
HETATM   12  O3  UNL     1      11.058  16.863  17.460  1.00  0.00    -0.390 OA
ATOM     13  H3  UNL     1      11.588  17.615  17.697  1.00  0.00     0.210 HD
ENDBRANCH   9  12
TORSDOF 2
ENDMDL
MODEL 4
REMARK VINA RESULT: -4.722707477      1.769      3.206
REMARK  2 active torsions:
REMARK  status: ('A' for Active; 'I' for Inactive)
REMARK    1  A    between atoms: C2_2  and  O1_3 
REMARK    2  A    between atoms: C8_11  and  O3_12 
ROOT
HETATM    1  C1  UNL     1      10.707  16.464  18.996  1.00  0.00     0.045 C 
HETATM    2  C2  UNL     1      11.826  16.216  17.979  1.00  0.00     0.057 C 
HETATM    3  C3  UNL     1      12.188  14.770  18.073  1.00  0.00     0.040 C 
HETATM    4  C4  UNL     1      13.512  14.552  18.797  1.00  0.00     0.037 C 
HETATM    5  C5  UNL     1      14.626  15.035  17.913  1.00  0.00     0.153 C 
HETATM    6  O2  UNL     1      14.191  15.760  16.819  1.00  0.00    -0.375 OA
HETATM    7  C6  UNL     1      14.213  16.908  17.600  1.00  0.00     0.156 C 
HETATM    8  C7  UNL     1      12.955  17.143  18.361  1.00  0.00     0.072 C 
HETATM    9  C8  UNL     1      15.245  16.278  18.487  1.00  0.00     0.176 C 
ENDROOT
BRANCH   2  10
HETATM   10  O1  UNL     1      11.425  16.562  16.695  1.00  0.00    -0.390 OA
ATOM     11  H1  UNL     1      11.517  15.829  16.097  1.00  0.00     0.210 HD
ENDBRANCH   2  10
BRANCH   9  12
HETATM   12  O3  UNL     1      15.049  16.464  19.845  1.00  0.00    -0.390 OA
ATOM     13  H3  UNL     1      15.817  16.338  20.388  1.00  0.00     0.210 HD
ENDBRANCH   9  12
TORSDOF 2
ENDMDL
MODEL 5
REMARK VINA RESULT: -4.704898177      1.560      3.375
REMARK  2 active torsions:
REMARK  status: ('A' for Active; 'I' for Inactive)
REMARK    1  A    between atoms: C2_2  and  O1_3 
REMARK    2  A    between atoms: C8_11  and  O3_12 
ROOT
HETATM    1  C1  UNL     1      13.349  17.926  14.186  1.00  0.00     0.045 C 
HETATM    2  C2  UNL     1      13.768  16.952  15.293  1.00  0.00     0.057 C 
HETATM    3  C3  UNL     1      13.208  15.615  14.931  1.00  0.00     0.040 C 
HETATM    4  C4  UNL     1      12.001  15.245  15.785  1.00  0.00     0.037 C 
HETATM    5  C5  UNL     1      12.473  14.953  17.180  1.00  0.00     0.153 C 
HETATM    6  O2  UNL     1      13.785  15.320  17.410  1.00  0.00    -0.375 OA
HETATM    7  C6  UNL     1      13.346  16.594  17.745  1.00  0.00     0.156 C 
HETATM    8  C7  UNL     1      13.206  17.510  16.578  1.00  0.00     0.072 C 
HETATM    9  C8  UNL     1      12.009  16.029  18.122  1.00  0.00     0.176 C 
ENDROOT
BRANCH   2  10
HETATM   10  O1  UNL     1      15.149  16.910  15.430  1.00  0.00    -0.390 OA
ATOM     11  H1  UNL     1      15.408  16.307  16.116  1.00  0.00     0.210 HD
ENDBRANCH   2  10
BRANCH   9  12
HETATM   12  O3  UNL     1      10.916  16.761  17.692  1.00  0.00    -0.390 OA
ATOM     13  H3  UNL     1      10.656  17.475  18.261  1.00  0.00     0.210 HD
ENDBRANCH   9  12
TORSDOF 2
ENDMDL
