MODEL 1
REMARK VINA RESULT: -5.094153927      0.000      0.000
REMARK  3 active torsions:
REMARK  status: ('A' for Active; 'I' for Inactive)
REMARK    1  A    between atoms: O1_2  and  C2_3 
REMARK    2  A    between atoms: C2_3  and  O2_4 
REMARK    3  A    between atoms: C7_10  and  O3_11 
ROOT
HETATM    1  C2  UNL     1      11.897  16.057  17.970  1.00  0.00     0.163 C 
HETATM    2  C3  UNL     1      12.798  17.216  18.314  1.00  0.00     0.068 C 
HETATM    3  C4  UNL     1      14.006  17.311  17.442  1.00  0.00     0.005 C 
HETATM    4  C5  UNL     1      15.225  16.634  18.017  1.00  0.00     0.003 C 
HETATM    5  C6  UNL     1      15.005  15.142  17.827  1.00  0.00     0.032 C 
HETATM    6  C7  UNL     1      13.883  14.741  18.752  1.00  0.00     0.123 C 
HETATM    7  C8  UNL     1      12.547  14.729  18.057  1.00  0.00     0.100 C 
ENDROOT
BRANCH   1   8
HETATM    8  O1  UNL     1      11.302  16.325  16.738  1.00  0.00    -0.360 OA
HETATM    9  C1  UNL     1      11.698  15.357  15.813  1.00  0.00     0.205 C 
ENDBRANCH   1   8
BRANCH   1  10
HETATM   10  O2  UNL     1      10.844  16.084  18.914  1.00  0.00    -0.365 OA
ATOM     11  H2  UNL     1      11.265  16.102  19.765  1.00  0.00     0.213 HD
ENDBRANCH   1  10
BRANCH   6  12
HETATM   12  O3  UNL     1      14.144  13.447  19.198  1.00  0.00    -0.395 OA
ATOM     13  H3  UNL     1      13.778  13.363  20.071  1.00  0.00     0.210 HD
ENDBRANCH   6  12
TORSDOF 3
ENDMDL
MODEL 2
REMARK VINA RESULT: -4.747016623      2.311      3.787
REMARK  3 active torsions:
REMARK  status: ('A' for Active; 'I' for Inactive)
REMARK    1  A    between atoms: O1_2  and  C2_3 
REMARK    2  A    between atoms: C2_3  and  O2_4 
REMARK    3  A    between atoms: C7_10  and  O3_11 
ROOT
HETATM    1  C2  UNL     1      13.696  17.568  16.211  1.00  0.00     0.163 C 
HETATM    2  C3  UNL     1      13.532  17.048  17.617  1.00  0.00     0.068 C 
HETATM    3  C4  UNL     1      13.708  15.570  17.730  1.00  0.00     0.005 C 
HETATM    4  C5  UNL     1      12.416  14.797  17.656  1.00  0.00     0.003 C 
HETATM    5  C6  UNL     1      12.007  14.799  16.193  1.00  0.00     0.032 C 
HETATM    6  C7  UNL     1      11.616  16.215  15.848  1.00  0.00     0.123 C 
HETATM    7  C8  UNL     1      12.753  16.986  15.229  1.00  0.00     0.100 C 
ENDROOT
BRANCH   1   8
HETATM    8  O1  UNL     1      15.039  17.444  15.860  1.00  0.00    -0.360 OA
HETATM    9  C1  UNL     1      15.134  17.077  14.516  1.00  0.00     0.205 C 
ENDBRANCH   1   8
BRANCH   1  10
HETATM   10  O2  UNL     1      13.448  18.959  16.275  1.00  0.00    -0.365 OA
ATOM     11  H2  UNL     1      13.292  19.232  15.378  1.00  0.00     0.213 HD
ENDBRANCH   1  10
BRANCH   6  12
HETATM   12  O3  UNL     1      10.584  16.154  14.913  1.00  0.00    -0.395 OA
ATOM     13  H3  UNL     1      10.406  17.040  14.621  1.00  0.00     0.210 HD
ENDBRANCH   6  12
TORSDOF 3
ENDMDL
MODEL 3
REMARK VINA RESULT: -4.728124687      3.259      4.408
REMARK  3 active torsions:
REMARK  status: ('A' for Active; 'I' for Inactive)
REMARK    1  A    between atoms: O1_2  and  C2_3 
REMARK    2  A    between atoms: C2_3  and  O2_4 
REMARK    3  A    between atoms: C7_10  and  O3_11 
ROOT
HETATM    1  C2  UNL     1      15.543  16.224  19.338  1.00  0.00     0.163 C 
HETATM    2  C3  UNL     1      16.448  17.219  18.656  1.00  0.00     0.068 C 
HETATM    3  C4  UNL     1      17.901  16.920  18.830  1.00  0.00     0.005 C 
HETATM    4  C5  UNL     1      18.535  17.650  19.988  1.00  0.00     0.003 C 
HETATM    5  C6  UNL     1      18.071  16.931  21.244  1.00  0.00     0.032 C 
HETATM    6  C7  UNL     1      16.595  17.210  21.390  1.00  0.00     0.123 C 
HETATM    7  C8  UNL     1      15.746  16.115  20.801  1.00  0.00     0.100 C 
ENDROOT
BRANCH   1   8
HETATM    8  O1  UNL     1      15.639  15.014  18.653  1.00  0.00    -0.360 OA
HETATM    9  C1  UNL     1      14.549  14.207  18.983  1.00  0.00     0.205 C 
ENDBRANCH   1   8
BRANCH   1  10
HETATM   10  O2  UNL     1      14.222  16.680  19.119  1.00  0.00    -0.365 OA
ATOM     11  H2  UNL     1      14.040  17.286  19.829  1.00  0.00     0.213 HD
ENDBRANCH   1  10
BRANCH   6  12
HETATM   12  O3  UNL     1      16.311  17.285  22.752  1.00  0.00    -0.395 OA
ATOM     13  H3  UNL     1      17.064  17.674  23.183  1.00  0.00     0.210 HD
ENDBRANCH   6  12
TORSDOF 3
ENDMDL
MODEL 4
REMARK VINA RESULT: -4.699122980      1.851      3.923
REMARK  3 active torsions:
REMARK  status: ('A' for Active; 'I' for Inactive)
REMARK    1  A    between atoms: O1_2  and  C2_3 
REMARK    2  A    between atoms: C2_3  and  O2_4 
REMARK    3  A    between atoms: C7_10  and  O3_11 
ROOT
HETATM    1  C2  UNL     1      13.962  15.992  17.898  1.00  0.00     0.163 C 
HETATM    2  C3  UNL     1      12.572  15.428  17.742  1.00  0.00     0.068 C 
HETATM    3  C4  UNL     1      12.307  14.862  16.386  1.00  0.00     0.005 C 
HETATM    4  C5  UNL     1      11.650  15.836  15.441  1.00  0.00     0.003 C 
HETATM    5  C6  UNL     1      12.741  16.799  15.003  1.00  0.00     0.032 C 
HETATM    6  C7  UNL     1      13.101  17.632  16.208  1.00  0.00     0.123 C 
HETATM    7  C8  UNL     1      14.290  17.081  16.949  1.00  0.00     0.100 C 
ENDROOT
BRANCH   1   8
HETATM    8  O1  UNL     1      14.863  14.928  17.884  1.00  0.00    -0.360 OA
HETATM    9  C1  UNL     1      14.813  14.264  19.111  1.00  0.00     0.205 C 
ENDBRANCH   1   8
BRANCH   1  10
HETATM   10  O2  UNL     1      14.026  16.527  19.206  1.00  0.00    -0.365 OA
ATOM     11  H2  UNL     1      14.223  17.450  19.095  1.00  0.00     0.213 HD
ENDBRANCH   1  10
BRANCH   6  12
HETATM   12  O3  UNL     1      13.433  18.908  15.755  1.00  0.00    -0.395 OA
ATOM     13  H3  UNL     1      12.635  19.323  15.450  1.00  0.00     0.210 HD
ENDBRANCH   6  12
TORSDOF 3
ENDMDL
MODEL 5
REMARK VINA RESULT: -4.695960220      1.709      3.531
REMARK  3 active torsions:
REMARK  status: ('A' for Active; 'I' for Inactive)
REMARK    1  A    between atoms: O1_2  and  C2_3 
REMARK    2  A    between atoms: C2_3  and  O2_4 
REMARK    3  A    between atoms: C7_10  and  O3_11 
ROOT
HETATM    1  C2  UNL     1      14.339  15.693  17.964  1.00  0.00     0.163 C 
HETATM    2  C3  UNL     1      14.906  16.466  16.800  1.00  0.00     0.068 C 
HETATM    3  C4  UNL     1      14.090  17.657  16.421  1.00  0.00     0.005 C 
HETATM    4  C5  UNL     1      13.098  17.386  15.318  1.00  0.00     0.003 C 
HETATM    5  C6  UNL     1      11.960  16.608  15.958  1.00  0.00     0.032 C 
HETATM    6  C7  UNL     1      12.504  15.247  16.314  1.00  0.00     0.123 C 
HETATM    7  C8  UNL     1      12.969  15.174  17.745  1.00  0.00     0.100 C 
ENDROOT
BRANCH   1   8
HETATM    8  O1  UNL     1      14.480  16.475  19.110  1.00  0.00    -0.360 OA
HETATM    9  C1  UNL     1      15.761  16.296  19.637  1.00  0.00     0.205 C 
ENDBRANCH   1   8
BRANCH   1  10
HETATM   10  O2  UNL     1      15.195  14.583  18.155  1.00  0.00    -0.365 OA
ATOM     11  H2  UNL     1      15.686  14.498  17.346  1.00  0.00     0.213 HD
ENDBRANCH   1  10
BRANCH   6  12
HETATM   12  O3  UNL     1      11.472  14.323  16.154  1.00  0.00    -0.395 OA
ATOM     13  H3  UNL     1      11.665  13.807  15.379  1.00  0.00     0.210 HD
ENDBRANCH   6  12
TORSDOF 3
ENDMDL
