MODEL 1
REMARK VINA RESULT: -8.752419676      0.000      0.000
REMARK  10 active torsions:
REMARK  status: ('A' for Active; 'I' for Inactive)
REMARK    1  A    between atoms: N2_5  and  O2_6 
REMARK    2  A    between atoms: N3_10  and  C4_11 
REMARK    3  A    between atoms: C4_11  and  C5_12 
REMARK    4  A    between atoms: C5_12  and  N4_13 
REMARK    5  A    between atoms: C5_12  and  O7_36 
REMARK       I    between atoms: N5_15  and  C6_17 
REMARK    6  A    between atoms: C6_17  and  C7_19 
REMARK    7  A    between atoms: C8_20  and  N6_21 
REMARK    8  A    between atoms: C9_24  and  N7_25 
REMARK    9  A    between atoms: C10_32  and  N10_33 
REMARK   10  A    between atoms: O7_36  and  N11_37 
ROOT
HETATM    1  N4  UNL     1       0.099 -19.245   6.031  1.00  0.00    -0.301 N 
ATOM      2  H4  UNL     1       0.934 -18.788   6.396  1.00  0.00     0.183 HD
HETATM    3  N5  UNL     1      -1.005 -18.817   6.410  1.00  0.00    -0.268 N 
ATOM      4  H5  UNL     1      -1.856 -19.256   6.059  1.00  0.00     0.190 HD
HETATM    5  C6  UNL     1      -1.108 -17.740   7.312  1.00  0.00     0.276 C 
HETATM    6  O4  UNL     1      -0.093 -17.081   7.570  1.00  0.00    -0.266 OA
ENDROOT
BRANCH   1   7
HETATM    7  C5  UNL     1       0.284 -20.345   5.110  1.00  0.00     0.284 C 
BRANCH   7   8
HETATM    8  C4  UNL     1       0.446 -19.761   3.733  1.00  0.00     0.212 C 
BRANCH   8   9
HETATM    9  N3  UNL     1       1.830 -19.606   3.358  1.00  0.00    -0.230 N 
HETATM   10  N1  UNL     1       2.574 -20.473   2.709  1.00  0.00    -0.239 N 
HETATM   11  C1  UNL     1       2.207 -21.795   2.207  1.00  0.00     0.183 C 
HETATM   12  C2  UNL     1       3.802 -19.893   2.583  1.00  0.00     0.371 A 
HETATM   13  O1  UNL     1       4.777 -20.442   2.007  1.00  0.00    -0.242 OA
HETATM   14  N2  UNL     1       3.787 -18.679   3.159  1.00  0.00    -0.116 N 
HETATM   15  C3  UNL     1       2.556 -18.513   3.636  1.00  0.00     0.372 A 
HETATM   16  O3  UNL     1       2.194 -17.455   4.252  1.00  0.00    -0.242 OA
BRANCH  14  17
HETATM   17  O2  UNL     1       4.829 -17.793   3.235  1.00  0.00    -0.275 OA
ATOM     18  H2  UNL     1       4.810 -16.923   3.615  1.00  0.00     0.245 HD
ENDBRANCH  14  17
ENDBRANCH   8   9
ENDBRANCH   7   8
BRANCH   7  19
HETATM   19  O7  UNL     1      -0.699 -21.301   5.189  1.00  0.00    -0.258 OA
BRANCH  19  20
HETATM   20  N11 UNL     1      -0.499 -22.195   6.179  1.00  0.00    -0.309 N 
ATOM     21 2H11 UNL     1       0.204 -22.931   6.117  1.00  0.00     0.184 HD
ATOM     22 1H11 UNL     1      -1.115 -22.058   6.981  1.00  0.00     0.184 HD
ENDBRANCH  19  20
ENDBRANCH   7  19
ENDBRANCH   1   7
BRANCH   5  23
HETATM   23  C7  UNL     1      -2.383 -17.419   7.919  1.00  0.00     0.115 A 
HETATM   24  C8  UNL     1      -2.905 -16.139   7.774  1.00  0.00     0.167 A 
HETATM   25  C9  UNL     1      -4.125 -15.788   8.388  1.00  0.00     0.148 A 
HETATM   26  N8  UNL     1      -4.743 -16.734   9.103  1.00  0.00    -0.282 N 
HETATM   27  N9  UNL     1      -4.264 -17.943   9.248  1.00  0.00    -0.283 N 
ATOM     28  H8  UNL     1      -5.627 -16.502   9.556  1.00  0.00     0.188 HD
HETATM   29  C10 UNL     1      -3.077 -18.363   8.680  1.00  0.00     0.132 A 
ATOM     30  H9  UNL     1      -4.795 -18.609   9.809  1.00  0.00     0.188 HD
BRANCH  24  31
HETATM   31  N6  UNL     1      -2.285 -15.114   7.016  1.00  0.00    -0.111 N 
HETATM   32  O5  UNL     1      -2.466 -15.053   5.787  1.00  0.00    -0.532 OA
HETATM   33  O6  UNL     1      -1.535 -14.160   7.635  1.00  0.00    -0.532 OA
ENDBRANCH  24  31
BRANCH  25  34
HETATM   34  N7  UNL     1      -4.581 -14.576   8.253  1.00  0.00    -0.382 N 
ATOM     35  H72 UNL     1      -4.164 -13.884   7.631  1.00  0.00     0.157 HD
ATOM     36  H71 UNL     1      -5.407 -14.293   8.779  1.00  0.00     0.157 HD
ENDBRANCH  25  34
BRANCH  29  37
HETATM   37  N10 UNL     1      -2.688 -19.534   8.867  1.00  0.00    -0.384 N 
ATOM     38 2H10 UNL     1      -2.086 -19.742   9.664  1.00  0.00     0.157 HD
ATOM     39 1H10 UNL     1      -2.935 -20.320   8.265  1.00  0.00     0.157 HD
ENDBRANCH  29  37
ENDBRANCH   5  23
TORSDOF 10
ENDMDL
MODEL 2
REMARK VINA RESULT: -8.713837851      1.303      1.557
REMARK  10 active torsions:
REMARK  status: ('A' for Active; 'I' for Inactive)
REMARK    1  A    between atoms: N2_5  and  O2_6 
REMARK    2  A    between atoms: N3_10  and  C4_11 
REMARK    3  A    between atoms: C4_11  and  C5_12 
REMARK    4  A    between atoms: C5_12  and  N4_13 
REMARK    5  A    between atoms: C5_12  and  O7_36 
REMARK       I    between atoms: N5_15  and  C6_17 
REMARK    6  A    between atoms: C6_17  and  C7_19 
REMARK    7  A    between atoms: C8_20  and  N6_21 
REMARK    8  A    between atoms: C9_24  and  N7_25 
REMARK    9  A    between atoms: C10_32  and  N10_33 
REMARK   10  A    between atoms: O7_36  and  N11_37 
ROOT
HETATM    1  N4  UNL     1       0.127 -19.698   6.067  1.00  0.00    -0.301 N 
ATOM      2  H4  UNL     1       0.937 -19.696   6.688  1.00  0.00     0.183 HD
HETATM    3  N5  UNL     1      -0.904 -19.127   6.462  1.00  0.00    -0.268 N 
ATOM      4  H5  UNL     1      -1.727 -19.113   5.860  1.00  0.00     0.190 HD
HETATM    5  C6  UNL     1      -0.963 -18.498   7.721  1.00  0.00     0.276 C 
HETATM    6  O4  UNL     1       0.088 -18.334   8.354  1.00  0.00    -0.266 OA
ENDROOT
BRANCH   1   7
HETATM    7  C5  UNL     1       0.263 -20.365   4.791  1.00  0.00     0.284 C 
BRANCH   7   8
HETATM    8  C4  UNL     1       1.382 -21.361   4.917  1.00  0.00     0.212 C 
BRANCH   8   9
HETATM    9  N3  UNL     1       2.598 -20.911   4.283  1.00  0.00    -0.230 N 
HETATM   10  N1  UNL     1       2.993 -21.173   3.058  1.00  0.00    -0.239 N 
HETATM   11  C1  UNL     1       2.324 -21.972   2.035  1.00  0.00     0.183 C 
HETATM   12  C2  UNL     1       4.191 -20.537   2.907  1.00  0.00     0.371 A 
HETATM   13  O1  UNL     1       4.867 -20.568   1.847  1.00  0.00    -0.242 OA
HETATM   14  N2  UNL     1       4.506 -19.897   4.045  1.00  0.00    -0.116 N 
HETATM   15  C3  UNL     1       3.509 -20.137   4.892  1.00  0.00     0.372 A 
HETATM   16  O3  UNL     1       3.488 -19.673   6.082  1.00  0.00    -0.242 OA
BRANCH  14  17
HETATM   17  O2  UNL     1       5.629 -19.149   4.282  1.00  0.00    -0.275 OA
ATOM     18  H2  UNL     1       5.752 -18.511   4.975  1.00  0.00     0.245 HD
ENDBRANCH  14  17
ENDBRANCH   8   9
ENDBRANCH   7   8
BRANCH   7  19
HETATM   19  O7  UNL     1       0.410 -19.503   3.732  1.00  0.00    -0.258 OA
BRANCH  19  20
HETATM   20  N11 UNL     1       0.725 -18.245   4.104  1.00  0.00    -0.309 N 
ATOM     21 2H11 UNL     1       1.661 -17.859   3.988  1.00  0.00     0.184 HD
ATOM     22 1H11 UNL     1      -0.060 -17.732   4.507  1.00  0.00     0.184 HD
ENDBRANCH  19  20
ENDBRANCH   7  19
ENDBRANCH   1   7
BRANCH   5  23
HETATM   23  C7  UNL     1      -2.234 -18.054   8.253  1.00  0.00     0.115 A 
HETATM   24  C8  UNL     1      -2.694 -16.778   7.947  1.00  0.00     0.167 A 
HETATM   25  C9  UNL     1      -3.909 -16.306   8.485  1.00  0.00     0.148 A 
HETATM   26  N8  UNL     1      -4.585 -17.134   9.288  1.00  0.00    -0.282 N 
HETATM   27  N9  UNL     1      -4.164 -18.338   9.584  1.00  0.00    -0.283 N 
ATOM     28  H8  UNL     1      -5.466 -16.814   9.688  1.00  0.00     0.188 HD
HETATM   29  C10 UNL     1      -2.987 -18.871   9.100  1.00  0.00     0.132 A 
ATOM     30  H9  UNL     1      -4.737 -18.911  10.204  1.00  0.00     0.188 HD
BRANCH  24  31
HETATM   31  N6  UNL     1      -2.012 -15.876   7.093  1.00  0.00    -0.111 N 
HETATM   32  O5  UNL     1      -1.979 -16.085   5.867  1.00  0.00    -0.532 OA
HETATM   33  O6  UNL     1      -1.440 -14.749   7.600  1.00  0.00    -0.532 OA
ENDBRANCH  24  31
BRANCH  25  34
HETATM   34  N7  UNL     1      -4.306 -15.100   8.199  1.00  0.00    -0.382 N 
ATOM     35  H72 UNL     1      -3.741 -14.429   7.679  1.00  0.00     0.157 HD
ATOM     36  H71 UNL     1      -5.236 -14.799   8.490  1.00  0.00     0.157 HD
ENDBRANCH  25  34
BRANCH  29  37
HETATM   37  N10 UNL     1      -2.655 -20.029   9.430  1.00  0.00    -0.384 N 
ATOM     38 2H10 UNL     1      -1.979 -20.538   8.862  1.00  0.00     0.157 HD
ATOM     39 1H10 UNL     1      -3.021 -20.515  10.249  1.00  0.00     0.157 HD
ENDBRANCH  29  37
ENDBRANCH   5  23
TORSDOF 10
ENDMDL
MODEL 3
REMARK VINA RESULT: -8.596519739      1.860      2.684
REMARK  10 active torsions:
REMARK  status: ('A' for Active; 'I' for Inactive)
REMARK    1  A    between atoms: N2_5  and  O2_6 
REMARK    2  A    between atoms: N3_10  and  C4_11 
REMARK    3  A    between atoms: C4_11  and  C5_12 
REMARK    4  A    between atoms: C5_12  and  N4_13 
REMARK    5  A    between atoms: C5_12  and  O7_36 
REMARK       I    between atoms: N5_15  and  C6_17 
REMARK    6  A    between atoms: C6_17  and  C7_19 
REMARK    7  A    between atoms: C8_20  and  N6_21 
REMARK    8  A    between atoms: C9_24  and  N7_25 
REMARK    9  A    between atoms: C10_32  and  N10_33 
REMARK   10  A    between atoms: O7_36  and  N11_37 
ROOT
HETATM    1  N4  UNL     1      -0.316 -18.210   6.180  1.00  0.00    -0.301 N 
ATOM      2  H4  UNL     1       0.496 -17.877   6.699  1.00  0.00     0.183 HD
HETATM    3  N5  UNL     1      -1.416 -17.690   6.434  1.00  0.00    -0.268 N 
ATOM      4  H5  UNL     1      -2.244 -18.004   5.927  1.00  0.00     0.190 HD
HETATM    5  C6  UNL     1      -1.548 -16.678   7.404  1.00  0.00     0.276 C 
HETATM    6  O4  UNL     1      -0.522 -16.157   7.862  1.00  0.00    -0.266 OA
ENDROOT
BRANCH   1   7
HETATM    7  C5  UNL     1      -0.104 -19.253   5.200  1.00  0.00     0.284 C 
BRANCH   7   8
HETATM    8  C4  UNL     1       0.895 -18.738   4.200  1.00  0.00     0.212 C 
BRANCH   8   9
HETATM    9  N3  UNL     1       2.110 -19.516   4.181  1.00  0.00    -0.230 N 
HETATM   10  N1  UNL     1       2.549 -20.270   3.198  1.00  0.00    -0.239 N 
HETATM   11  C1  UNL     1       1.939 -20.516   1.894  1.00  0.00     0.183 C 
HETATM   12  C2  UNL     1       3.727 -20.803   3.634  1.00  0.00     0.371 A 
HETATM   13  O1  UNL     1       4.435 -21.582   2.946  1.00  0.00    -0.242 OA
HETATM   14  N2  UNL     1       3.986 -20.365   4.876  1.00  0.00    -0.116 N 
HETATM   15  C3  UNL     1       2.974 -19.566   5.205  1.00  0.00     0.372 A 
HETATM   16  O3  UNL     1       2.902 -18.975   6.334  1.00  0.00    -0.242 OA
BRANCH  14  17
HETATM   17  O2  UNL     1       5.075 -20.678   5.647  1.00  0.00    -0.275 OA
ATOM     18  H2  UNL     1       5.074 -21.166   6.462  1.00  0.00     0.245 HD
ENDBRANCH  14  17
ENDBRANCH   8   9
ENDBRANCH   7   8
BRANCH   7  19
HETATM   19  O7  UNL     1      -1.264 -19.717   4.630  1.00  0.00    -0.258 OA
BRANCH  19  20
HETATM   20  N11 UNL     1      -1.792 -20.777   5.276  1.00  0.00    -0.309 N 
ATOM     21 2H11 UNL     1      -2.429 -20.674   6.066  1.00  0.00     0.184 HD
ATOM     22 1H11 UNL     1      -1.492 -21.675   4.896  1.00  0.00     0.184 HD
ENDBRANCH  19  20
ENDBRANCH   7  19
ENDBRANCH   1   7
BRANCH   5  23
HETATM   23  C7  UNL     1      -2.861 -16.262   7.849  1.00  0.00     0.115 A 
HETATM   24  C8  UNL     1      -3.664 -17.162   8.539  1.00  0.00     0.167 A 
HETATM   25  C9  UNL     1      -4.963 -16.796   8.949  1.00  0.00     0.148 A 
HETATM   26  N8  UNL     1      -5.373 -15.560   8.647  1.00  0.00    -0.282 N 
HETATM   27  N9  UNL     1      -4.628 -14.702   7.999  1.00  0.00    -0.283 N 
ATOM     28  H8  UNL     1      -6.309 -15.273   8.934  1.00  0.00     0.188 HD
HETATM   29  C10 UNL     1      -3.349 -14.984   7.563  1.00  0.00     0.132 A 
ATOM     30  H9  UNL     1      -5.012 -13.777   7.806  1.00  0.00     0.188 HD
BRANCH  24  31
HETATM   31  N6  UNL     1      -3.262 -18.476   8.887  1.00  0.00    -0.111 N 
HETATM   32  O5  UNL     1      -2.995 -19.301   7.996  1.00  0.00    -0.532 OA
HETATM   33  O6  UNL     1      -3.111 -18.824  10.196  1.00  0.00    -0.532 OA
ENDBRANCH  24  31
BRANCH  25  34
HETATM   34  N7  UNL     1      -5.702 -17.665   9.576  1.00  0.00    -0.382 N 
ATOM     35  H72 UNL     1      -5.425 -18.115  10.448  1.00  0.00     0.157 HD
ATOM     36  H71 UNL     1      -6.617 -17.909   9.196  1.00  0.00     0.157 HD
ENDBRANCH  25  34
BRANCH  29  37
HETATM   37  N10 UNL     1      -2.702 -14.110   6.951  1.00  0.00    -0.384 N 
ATOM     38 2H10 UNL     1      -1.803 -13.800   7.320  1.00  0.00     0.157 HD
ATOM     39 1H10 UNL     1      -3.014 -13.672   6.084  1.00  0.00     0.157 HD
ENDBRANCH  29  37
ENDBRANCH   5  23
TORSDOF 10
ENDMDL
MODEL 4
REMARK VINA RESULT: -8.477948417      1.836      7.339
REMARK  10 active torsions:
REMARK  status: ('A' for Active; 'I' for Inactive)
REMARK    1  A    between atoms: N2_5  and  O2_6 
REMARK    2  A    between atoms: N3_10  and  C4_11 
REMARK    3  A    between atoms: C4_11  and  C5_12 
REMARK    4  A    between atoms: C5_12  and  N4_13 
REMARK    5  A    between atoms: C5_12  and  O7_36 
REMARK       I    between atoms: N5_15  and  C6_17 
REMARK    6  A    between atoms: C6_17  and  C7_19 
REMARK    7  A    between atoms: C8_20  and  N6_21 
REMARK    8  A    between atoms: C9_24  and  N7_25 
REMARK    9  A    between atoms: C10_32  and  N10_33 
REMARK   10  A    between atoms: O7_36  and  N11_37 
ROOT
HETATM    1  N4  UNL     1      -0.740 -20.770   6.254  1.00  0.00    -0.301 N 
ATOM      2  H4  UNL     1      -1.541 -20.724   5.624  1.00  0.00     0.183 HD
HETATM    3  N5  UNL     1       0.391 -20.622   5.761  1.00  0.00    -0.268 N 
ATOM      4  H5  UNL     1       1.209 -20.662   6.369  1.00  0.00     0.190 HD
HETATM    5  C6  UNL     1       0.571 -20.402   4.381  1.00  0.00     0.276 C 
HETATM    6  O4  UNL     1      -0.421 -20.147   3.686  1.00  0.00    -0.266 OA
ENDROOT
BRANCH   1   7
HETATM    7  C5  UNL     1      -1.003 -21.001   7.658  1.00  0.00     0.284 C 
BRANCH   7   8
HETATM    8  C4  UNL     1      -0.533 -19.787   8.412  1.00  0.00     0.212 C 
BRANCH   8   9
HETATM    9  N3  UNL     1      -1.381 -18.640   8.197  1.00  0.00    -0.230 N 
HETATM   10  N1  UNL     1      -2.518 -18.375   8.800  1.00  0.00    -0.239 N 
HETATM   11  C1  UNL     1      -3.212 -19.153   9.823  1.00  0.00     0.183 C 
HETATM   12  C2  UNL     1      -2.952 -17.193   8.275  1.00  0.00     0.371 A 
HETATM   13  O1  UNL     1      -4.021 -16.627   8.622  1.00  0.00    -0.242 OA
HETATM   14  N2  UNL     1      -2.072 -16.756   7.360  1.00  0.00    -0.116 N 
HETATM   15  C3  UNL     1      -1.100 -17.664   7.321  1.00  0.00     0.372 A 
HETATM   16  O3  UNL     1      -0.090 -17.559   6.547  1.00  0.00    -0.242 OA
BRANCH  14  17
HETATM   17  O2  UNL     1      -2.158 -15.607   6.619  1.00  0.00    -0.275 OA
ATOM     18  H2  UNL     1      -2.028 -15.522   5.682  1.00  0.00     0.245 HD
ENDBRANCH  14  17
ENDBRANCH   8   9
ENDBRANCH   7   8
BRANCH   7  19
HETATM   19  O7  UNL     1      -0.478 -22.179   8.129  1.00  0.00    -0.258 OA
BRANCH  19  20
HETATM   20  N11 UNL     1      -0.873 -22.479   9.383  1.00  0.00    -0.309 N 
ATOM     21 2H11 UNL     1      -1.620 -21.973   9.857  1.00  0.00     0.184 HD
ATOM     22 1H11 UNL     1      -0.353 -23.253   9.799  1.00  0.00     0.184 HD
ENDBRANCH  19  20
ENDBRANCH   7  19
ENDBRANCH   1   7
BRANCH   5  23
HETATM   23  C7  UNL     1       1.895 -20.473   3.799  1.00  0.00     0.115 A 
HETATM   24  C8  UNL     1       2.626 -19.304   3.621  1.00  0.00     0.167 A 
HETATM   25  C9  UNL     1       3.901 -19.341   3.020  1.00  0.00     0.148 A 
HETATM   26  N8  UNL     1       4.363 -20.537   2.639  1.00  0.00    -0.282 N 
HETATM   27  N9  UNL     1       3.686 -21.645   2.801  1.00  0.00    -0.283 N 
ATOM     28  H8  UNL     1       5.283 -20.587   2.202  1.00  0.00     0.188 HD
HETATM   29  C10 UNL     1       2.433 -21.692   3.379  1.00  0.00     0.132 A 
ATOM     30  H9  UNL     1       4.107 -22.519   2.485  1.00  0.00     0.188 HD
BRANCH  24  31
HETATM   31  N6  UNL     1       2.175 -18.021   4.021  1.00  0.00    -0.111 N 
HETATM   32  O5  UNL     1       2.462 -17.586   5.150  1.00  0.00    -0.532 OA
HETATM   33  O6  UNL     1       1.476 -17.238   3.153  1.00  0.00    -0.532 OA
ENDBRANCH  24  31
BRANCH  25  34
HETATM   34  N7  UNL     1       4.556 -18.229   2.846  1.00  0.00    -0.382 N 
ATOM     35  H72 UNL     1       4.174 -17.422   2.354  1.00  0.00     0.157 HD
ATOM     36  H71 UNL     1       5.496 -18.139   3.231  1.00  0.00     0.157 HD
ENDBRANCH  25  34
BRANCH  29  37
HETATM   37  N10 UNL     1       1.853 -22.791   3.497  1.00  0.00    -0.384 N 
ATOM     38 2H10 UNL     1       1.477 -23.064   4.405  1.00  0.00     0.157 HD
ATOM     39 1H10 UNL     1       1.722 -23.453   2.732  1.00  0.00     0.157 HD
ENDBRANCH  29  37
ENDBRANCH   5  23
TORSDOF 10
ENDMDL
MODEL 5
REMARK VINA RESULT: -8.453985238      1.580      2.500
REMARK  10 active torsions:
REMARK  status: ('A' for Active; 'I' for Inactive)
REMARK    1  A    between atoms: N2_5  and  O2_6 
REMARK    2  A    between atoms: N3_10  and  C4_11 
REMARK    3  A    between atoms: C4_11  and  C5_12 
REMARK    4  A    between atoms: C5_12  and  N4_13 
REMARK    5  A    between atoms: C5_12  and  O7_36 
REMARK       I    between atoms: N5_15  and  C6_17 
REMARK    6  A    between atoms: C6_17  and  C7_19 
REMARK    7  A    between atoms: C8_20  and  N6_21 
REMARK    8  A    between atoms: C9_24  and  N7_25 
REMARK    9  A    between atoms: C10_32  and  N10_33 
REMARK   10  A    between atoms: O7_36  and  N11_37 
ROOT
HETATM    1  N4  UNL     1      -0.333 -18.390   6.650  1.00  0.00    -0.301 N 
ATOM      2  H4  UNL     1       0.471 -17.880   7.016  1.00  0.00     0.183 HD
HETATM    3  N5  UNL     1      -1.455 -17.874   6.790  1.00  0.00    -0.268 N 
ATOM      4  H5  UNL     1      -2.275 -18.363   6.432  1.00  0.00     0.190 HD
HETATM    5  C6  UNL     1      -1.621 -16.631   7.430  1.00  0.00     0.276 C 
HETATM    6  O4  UNL     1      -0.617 -15.948   7.672  1.00  0.00    -0.266 OA
ENDROOT
BRANCH   1   7
HETATM    7  C5  UNL     1      -0.084 -19.662   6.007  1.00  0.00     0.284 C 
BRANCH   7   8
HETATM    8  C4  UNL     1       0.089 -19.399   4.536  1.00  0.00     0.212 C 
BRANCH   8   9
HETATM    9  N3  UNL     1       1.474 -19.402   4.133  1.00  0.00    -0.230 N 
HETATM   10  N1  UNL     1       2.297 -20.428   4.142  1.00  0.00    -0.239 N 
HETATM   11  C1  UNL     1       2.034 -21.804   4.553  1.00  0.00     0.183 C 
HETATM   12  C2  UNL     1       3.489 -19.954   3.678  1.00  0.00     0.371 A 
HETATM   13  O1  UNL     1       4.518 -20.666   3.549  1.00  0.00    -0.242 OA
HETATM   14  N2  UNL     1       3.374 -18.646   3.395  1.00  0.00    -0.116 N 
HETATM   15  C3  UNL     1       2.118 -18.316   3.682  1.00  0.00     0.372 A 
HETATM   16  O3  UNL     1       1.665 -17.132   3.528  1.00  0.00    -0.242 OA
BRANCH  14  17
HETATM   17  O2  UNL     1       4.354 -17.822   2.908  1.00  0.00    -0.275 OA
ATOM     18  H2  UNL     1       4.282 -16.891   2.737  1.00  0.00     0.245 HD
ENDBRANCH  14  17
ENDBRANCH   8   9
ENDBRANCH   7   8
BRANCH   7  19
HETATM   19  O7  UNL     1      -1.032 -20.615   6.288  1.00  0.00    -0.258 OA
BRANCH  19  20
HETATM   20  N11 UNL     1      -0.835 -21.236   7.469  1.00  0.00    -0.309 N 
ATOM     21 2H11 UNL     1      -0.429 -20.762   8.275  1.00  0.00     0.184 HD
ATOM     22 1H11 UNL     1      -1.131 -22.213   7.469  1.00  0.00     0.184 HD
ENDBRANCH  19  20
ENDBRANCH   7  19
ENDBRANCH   1   7
BRANCH   5  23
HETATM   23  C7  UNL     1      -2.945 -16.169   7.791  1.00  0.00     0.115 A 
HETATM   24  C8  UNL     1      -3.774 -16.995   8.541  1.00  0.00     0.167 A 
HETATM   25  C9  UNL     1      -5.083 -16.586   8.873  1.00  0.00     0.148 A 
HETATM   26  N8  UNL     1      -5.476 -15.384   8.439  1.00  0.00    -0.282 N 
HETATM   27  N9  UNL     1      -4.706 -14.596   7.733  1.00  0.00    -0.283 N 
ATOM     28  H8  UNL     1      -6.418 -15.068   8.667  1.00  0.00     0.188 HD
HETATM   29  C10 UNL     1      -3.416 -14.924   7.367  1.00  0.00     0.132 A 
ATOM     30  H9  UNL     1      -5.078 -13.693   7.438  1.00  0.00     0.188 HD
BRANCH  24  31
HETATM   31  N6  UNL     1      -3.390 -18.269   9.029  1.00  0.00    -0.111 N 
HETATM   32  O5  UNL     1      -3.278 -19.227   8.243  1.00  0.00    -0.532 OA
HETATM   33  O6  UNL     1      -3.090 -18.438  10.346  1.00  0.00    -0.532 OA
ENDBRANCH  24  31
BRANCH  25  34
HETATM   34  N7  UNL     1      -5.846 -17.387   9.559  1.00  0.00    -0.382 N 
ATOM     35  H72 UNL     1      -5.489 -18.154  10.129  1.00  0.00     0.157 HD
ATOM     36  H71 UNL     1      -6.856 -17.244   9.549  1.00  0.00     0.157 HD
ENDBRANCH  25  34
BRANCH  29  37
HETATM   37  N10 UNL     1      -2.745 -14.116   6.691  1.00  0.00    -0.384 N 
ATOM     38 2H10 UNL     1      -1.993 -13.591   7.138  1.00  0.00     0.157 HD
ATOM     39 1H10 UNL     1      -2.897 -13.938   5.698  1.00  0.00     0.157 HD
ENDBRANCH  29  37
ENDBRANCH   5  23
TORSDOF 10
ENDMDL
