MODEL 1
REMARK VINA RESULT: -6.228321598      0.000      0.000
REMARK  3 active torsions:
REMARK  status: ('A' for Active; 'I' for Inactive)
REMARK    1  A    between atoms: N1_2  and  N2_3 
REMARK    2  A    between atoms: N1_2  and  C2_8 
REMARK    3  A    between atoms: N2_3  and  N3_5 
ROOT
HETATM    1  C2  UNL     1      84.007 -15.418  64.389  1.00  0.00     0.703 A 
HETATM    2  N4  UNL     1      83.843 -14.112  64.051  1.00  0.00    -0.171 N 
ATOM      3  H4  UNL     1      83.453 -13.772  63.172  1.00  0.00     0.186 HD
HETATM    4  C3  UNL     1      84.275 -13.348  65.058  1.00  0.00     0.167 A 
HETATM    5  N5  UNL     1      84.454 -12.103  65.527  1.00  0.00    -0.335 N 
ATOM      6  H5  UNL     1      84.224 -11.241  65.031  1.00  0.00     0.168 HD
HETATM    7  C4  UNL     1      84.987 -12.181  66.758  1.00  0.00     0.183 A 
HETATM    8  N6  UNL     1      85.153 -13.481  67.088  1.00  0.00    -0.335 N 
ATOM      9  H6  UNL     1      85.536 -13.850  67.959  1.00  0.00     0.168 HD
HETATM   10  C5  UNL     1      84.712 -14.188  66.037  1.00  0.00     0.167 A 
HETATM   11  N7  UNL     1      84.544 -15.440  65.617  1.00  0.00    -0.171 N 
ATOM     12  H7  UNL     1      84.785 -16.279  66.144  1.00  0.00     0.186 HD
ENDROOT
BRANCH   1  13
HETATM   13  N1  UNL     1      83.648 -16.537  63.594  1.00  0.00    -0.114 N 
HETATM   14  C1  UNL     1      82.443 -17.240  63.971  1.00  0.00     0.199 C 
BRANCH  13  15
HETATM   15  N2  UNL     1      84.423 -16.913  62.535  1.00  0.00    -0.233 N 
ATOM     16  H2  UNL     1      85.442 -16.941  62.595  1.00  0.00     0.208 HD
BRANCH  15  17
HETATM   17  N3  UNL     1      83.746 -17.256  61.371  1.00  0.00    -0.330 N 
ATOM     18  H32 UNL     1      82.820 -17.682  61.408  1.00  0.00     0.178 HD
ATOM     19  H31 UNL     1      84.229 -17.057  60.495  1.00  0.00     0.178 HD
ENDBRANCH  15  17
ENDBRANCH  13  15
ENDBRANCH   1  13
TORSDOF 3
ENDMDL
MODEL 2
REMARK VINA RESULT: -6.205709487      0.081      1.380
REMARK  3 active torsions:
REMARK  status: ('A' for Active; 'I' for Inactive)
REMARK    1  A    between atoms: N1_2  and  N2_3 
REMARK    2  A    between atoms: N1_2  and  C2_8 
REMARK    3  A    between atoms: N2_3  and  N3_5 
ROOT
HETATM    1  C2  UNL     1      83.946 -15.472  64.387  1.00  0.00     0.703 A 
HETATM    2  N4  UNL     1      84.527 -15.510  65.615  1.00  0.00    -0.171 N 
ATOM      3  H4  UNL     1      84.784 -16.356  66.123  1.00  0.00     0.186 HD
HETATM    4  C3  UNL     1      84.708 -14.258  66.047  1.00  0.00     0.167 A 
HETATM    5  N5  UNL     1      85.166 -13.463  67.026  1.00  0.00    -0.335 N 
ATOM      6  H5  UNL     1      85.587 -13.777  67.901  1.00  0.00     0.168 HD
HETATM    7  C4  UNL     1      84.977 -12.183  66.661  1.00  0.00     0.183 A 
HETATM    8  N6  UNL     1      84.395 -12.150  65.442  1.00  0.00    -0.335 N 
ATOM      9  H6  UNL     1      84.131 -11.320  64.910  1.00  0.00     0.168 HD
HETATM   10  C5  UNL     1      84.234 -13.430  65.075  1.00  0.00     0.167 A 
HETATM   11  N7  UNL     1      83.776 -14.179  64.075  1.00  0.00    -0.171 N 
ATOM     12  H7  UNL     1      83.362 -13.827  63.212  1.00  0.00     0.186 HD
ENDROOT
BRANCH   1  13
HETATM   13  N1  UNL     1      83.614 -16.595  63.587  1.00  0.00    -0.114 N 
HETATM   14  C1  UNL     1      82.430 -17.334  63.965  1.00  0.00     0.199 C 
BRANCH  13  15
HETATM   15  N2  UNL     1      84.396 -16.944  62.523  1.00  0.00    -0.233 N 
ATOM     16  H2  UNL     1      85.412 -16.996  62.594  1.00  0.00     0.208 HD
BRANCH  15  17
HETATM   17  N3  UNL     1      83.726 -17.224  61.337  1.00  0.00    -0.330 N 
ATOM     18  H32 UNL     1      83.938 -18.065  60.800  1.00  0.00     0.178 HD
ATOM     19  H31 UNL     1      83.023 -16.545  61.048  1.00  0.00     0.178 HD
ENDBRANCH  15  17
ENDBRANCH  13  15
ENDBRANCH   1  13
TORSDOF 3
ENDMDL
MODEL 3
REMARK VINA RESULT: -5.992975961      1.803      4.729
REMARK  3 active torsions:
REMARK  status: ('A' for Active; 'I' for Inactive)
REMARK    1  A    between atoms: N1_2  and  N2_3 
REMARK    2  A    between atoms: N1_2  and  C2_8 
REMARK    3  A    between atoms: N2_3  and  N3_5 
ROOT
HETATM    1  C2  UNL     1      84.644 -14.765  65.379  1.00  0.00     0.703 A 
HETATM    2  N4  UNL     1      83.938 -15.924  65.448  1.00  0.00    -0.171 N 
ATOM      3  H4  UNL     1      84.064 -16.654  66.148  1.00  0.00     0.186 HD
HETATM    4  C3  UNL     1      83.051 -15.949  64.448  1.00  0.00     0.167 A 
HETATM    5  N5  UNL     1      82.063 -16.624  63.841  1.00  0.00    -0.335 N 
ATOM      6  H5  UNL     1      81.703 -17.536  64.123  1.00  0.00     0.168 HD
HETATM    7  C4  UNL     1      81.626 -15.896  62.798  1.00  0.00     0.183 A 
HETATM    8  N6  UNL     1      82.334 -14.747  62.731  1.00  0.00    -0.335 N 
ATOM      9  H6  UNL     1      82.226 -13.999  62.045  1.00  0.00     0.168 HD
HETATM   10  C5  UNL     1      83.205 -14.791  63.749  1.00  0.00     0.167 A 
HETATM   11  N7  UNL     1      84.174 -14.083  64.325  1.00  0.00    -0.171 N 
ATOM     12  H7  UNL     1      84.506 -13.170  64.014  1.00  0.00     0.186 HD
ENDROOT
BRANCH   1  13
HETATM   13  N1  UNL     1      85.662 -14.355  66.278  1.00  0.00    -0.114 N 
HETATM   14  C1  UNL     1      87.024 -14.654  65.895  1.00  0.00     0.199 C 
BRANCH  13  15
HETATM   15  N2  UNL     1      85.344 -13.718  67.443  1.00  0.00    -0.233 N 
ATOM     16  H2  UNL     1      85.428 -14.179  68.350  1.00  0.00     0.208 HD
BRANCH  15  17
HETATM   17  N3  UNL     1      84.900 -12.407  67.323  1.00  0.00    -0.330 N 
ATOM     18  H32 UNL     1      84.223 -12.019  67.980  1.00  0.00     0.178 HD
ATOM     19  H31 UNL     1      85.290 -11.869  66.549  1.00  0.00     0.178 HD
ENDBRANCH  15  17
ENDBRANCH  13  15
ENDBRANCH   1  13
TORSDOF 3
ENDMDL
MODEL 4
REMARK VINA RESULT: -5.982077848      1.820      4.523
REMARK  3 active torsions:
REMARK  status: ('A' for Active; 'I' for Inactive)
REMARK    1  A    between atoms: N1_2  and  N2_3 
REMARK    2  A    between atoms: N1_2  and  C2_8 
REMARK    3  A    between atoms: N2_3  and  N3_5 
ROOT
HETATM    1  C2  UNL     1      84.682 -14.779  65.405  1.00  0.00     0.703 A 
HETATM    2  N4  UNL     1      84.242 -14.053  64.345  1.00  0.00    -0.171 N 
ATOM      3  H4  UNL     1      84.612 -13.148  64.051  1.00  0.00     0.186 HD
HETATM    4  C3  UNL     1      83.248 -14.717  63.748  1.00  0.00     0.167 A 
HETATM    5  N5  UNL     1      82.354 -14.740  62.748  1.00  0.00    -0.335 N 
ATOM      6  H5  UNL     1      82.232 -14.014  62.041  1.00  0.00     0.168 HD
HETATM    7  C4  UNL     1      81.646 -15.879  62.832  1.00  0.00     0.183 A 
HETATM    8  N6  UNL     1      82.083 -16.596  63.891  1.00  0.00    -0.335 N 
ATOM      9  H6  UNL     1      81.735 -17.503  64.204  1.00  0.00     0.168 HD
HETATM   10  C5  UNL     1      83.067 -15.873  64.446  1.00  0.00     0.167 A 
HETATM   11  N7  UNL     1      83.943 -15.897  65.447  1.00  0.00    -0.171 N 
ATOM     12  H7  UNL     1      84.037 -16.644  66.134  1.00  0.00     0.186 HD
ENDROOT
BRANCH   1  13
HETATM   13  N1  UNL     1      85.743 -14.423  66.277  1.00  0.00    -0.114 N 
HETATM   14  C1  UNL     1      87.079 -14.778  65.852  1.00  0.00     0.199 C 
BRANCH  13  15
HETATM   15  N2  UNL     1      85.487 -13.786  67.457  1.00  0.00    -0.233 N 
ATOM     16  H2  UNL     1      85.768 -14.179  68.355  1.00  0.00     0.208 HD
BRANCH  15  17
HETATM   17  N3  UNL     1      84.821 -12.569  67.364  1.00  0.00    -0.330 N 
ATOM     18  H32 UNL     1      84.051 -12.440  66.708  1.00  0.00     0.178 HD
ATOM     19  H31 UNL     1      85.150 -11.829  67.984  1.00  0.00     0.178 HD
ENDBRANCH  15  17
ENDBRANCH  13  15
ENDBRANCH   1  13
TORSDOF 3
ENDMDL
MODEL 5
REMARK VINA RESULT: -5.858445484      1.631      4.904
REMARK  3 active torsions:
REMARK  status: ('A' for Active; 'I' for Inactive)
REMARK    1  A    between atoms: N1_2  and  N2_3 
REMARK    2  A    between atoms: N1_2  and  C2_8 
REMARK    3  A    between atoms: N2_3  and  N3_5 
ROOT
HETATM    1  C2  UNL     1      85.022 -15.184  64.978  1.00  0.00     0.703 A 
HETATM    2  N4  UNL     1      83.766 -15.608  65.279  1.00  0.00    -0.171 N 
ATOM      3  H4  UNL     1      83.249 -15.374  66.126  1.00  0.00     0.186 HD
HETATM    4  C3  UNL     1      83.321 -16.381  64.284  1.00  0.00     0.167 A 
HETATM    5  N5  UNL     1      82.309 -17.120  63.802  1.00  0.00    -0.335 N 
ATOM      6  H5  UNL     1      81.415 -17.280  64.266  1.00  0.00     0.168 HD
HETATM    7  C4  UNL     1      82.672 -17.615  62.606  1.00  0.00     0.183 A 
HETATM    8  N6  UNL     1      83.923 -17.195  62.313  1.00  0.00    -0.335 N 
ATOM      9  H6  UNL     1      84.462 -17.409  61.473  1.00  0.00     0.168 HD
HETATM   10  C5  UNL     1      84.311 -16.438  63.350  1.00  0.00     0.167 A 
HETATM   11  N7  UNL     1      85.335 -15.708  63.784  1.00  0.00    -0.171 N 
ATOM     12  H7  UNL     1      86.216 -15.569  63.289  1.00  0.00     0.186 HD
ENDROOT
BRANCH   1  13
HETATM   13  N1  UNL     1      85.825 -14.327  65.772  1.00  0.00    -0.114 N 
HETATM   14  C1  UNL     1      87.179 -14.763  66.032  1.00  0.00     0.199 C 
BRANCH  13  15
HETATM   15  N2  UNL     1      85.318 -13.157  66.262  1.00  0.00    -0.233 N 
ATOM     16  H2  UNL     1      85.203 -12.331  65.674  1.00  0.00     0.208 HD
BRANCH  15  17
HETATM   17  N3  UNL     1      84.969 -13.156  67.607  1.00  0.00    -0.330 N 
ATOM     18  H32 UNL     1      85.669 -13.316  68.332  1.00  0.00     0.178 HD
ATOM     19  H31 UNL     1      83.985 -12.989  67.815  1.00  0.00     0.178 HD
ENDBRANCH  15  17
ENDBRANCH  13  15
ENDBRANCH   1  13
TORSDOF 3
ENDMDL
