MODEL 1
REMARK VINA RESULT: -5.399876782      0.000      0.000
REMARK  2 active torsions:
REMARK  status: ('A' for Active; 'I' for Inactive)
REMARK       I    between atoms: N1_1  and  C1_5 
REMARK       I    between atoms: C1_5  and  N2_6 
REMARK       I    between atoms: C1_5  and  N3_10 
REMARK    1  A    between atoms: N3_10  and  N4_12 
REMARK    2  A    between atoms: C2_14  and  C3_15 
ROOT
HETATM    1  N1  UNL     1      84.813 -12.688  65.200  1.00  0.00    -0.032 N 
ATOM      2  H11 UNL     1      85.325 -12.900  64.343  1.00  0.00     0.279 HD
ATOM      3  H12 UNL     1      84.797 -11.692  65.421  1.00  0.00     0.279 HD
ATOM      4  H13 UNL     1      83.806 -12.818  65.107  1.00  0.00     0.279 HD
HETATM    5  C1  UNL     1      85.403 -13.503  66.263  1.00  0.00     0.494 C 
HETATM    6  N2  UNL     1      84.681 -13.203  67.472  1.00  0.00    -0.032 N 
ATOM      7  H21 UNL     1      85.091 -13.771  68.213  1.00  0.00     0.279 HD
ATOM      8  H22 UNL     1      83.673 -13.333  67.380  1.00  0.00     0.279 HD
ATOM      9  H23 UNL     1      84.664 -12.207  67.693  1.00  0.00     0.279 HD
HETATM   10  N3  UNL     1      85.270 -14.882  65.856  1.00  0.00    -0.284 N 
ATOM     11  H3  UNL     1      84.744 -15.542  66.429  1.00  0.00     0.184 HD
ENDROOT
BRANCH  10  12
HETATM   12  N4  UNL     1      85.866 -15.294  64.685  1.00  0.00    -0.311 N 
HETATM   13  C2  UNL     1      85.281 -15.793  63.677  1.00  0.00     0.137 C 
ATOM     14  H4  UNL     1      86.879 -15.187  64.621  1.00  0.00     0.185 HD
BRANCH  13  15
HETATM   15  C3  UNL     1      83.845 -16.005  63.626  1.00  0.00     0.065 A 
HETATM   16  C4  UNL     1      82.845 -15.103  63.365  1.00  0.00     0.119 A 
HETATM   17  N5  UNL     1      81.662 -15.737  63.422  1.00  0.00    -0.360 N 
HETATM   18  C5  UNL     1      81.897 -17.022  63.714  1.00  0.00     0.180 A 
ATOM     19  H5  UNL     1      80.746 -15.315  63.270  1.00  0.00     0.166 HD
HETATM   20  N6  UNL     1      83.207 -17.183  63.836  1.00  0.00    -0.350 N 
ATOM     21  H6  UNL     1      83.669 -18.066  64.057  1.00  0.00     0.166 HD
ENDBRANCH  13  15
ENDBRANCH  10  12
TORSDOF 2
ENDMDL
MODEL 2
REMARK VINA RESULT: -5.386020543      1.442      1.950
REMARK  2 active torsions:
REMARK  status: ('A' for Active; 'I' for Inactive)
REMARK       I    between atoms: N1_1  and  C1_5 
REMARK       I    between atoms: C1_5  and  N2_6 
REMARK       I    between atoms: C1_5  and  N3_10 
REMARK    1  A    between atoms: N3_10  and  N4_12 
REMARK    2  A    between atoms: C2_14  and  C3_15 
ROOT
HETATM    1  N1  UNL     1      85.241 -13.425  67.178  1.00  0.00    -0.032 N 
ATOM      2  H11 UNL     1      84.998 -14.344  67.548  1.00  0.00     0.279 HD
ATOM      3  H12 UNL     1      85.283 -12.702  67.895  1.00  0.00     0.279 HD
ATOM      4  H13 UNL     1      86.212 -13.361  66.871  1.00  0.00     0.279 HD
HETATM    5  C1  UNL     1      84.281 -13.125  66.115  1.00  0.00     0.494 C 
HETATM    6  N2  UNL     1      84.625 -11.828  65.592  1.00  0.00    -0.032 N 
ATOM      7  H21 UNL     1      83.956 -11.618  64.851  1.00  0.00     0.279 HD
ATOM      8  H22 UNL     1      85.596 -11.763  65.285  1.00  0.00     0.279 HD
ATOM      9  H23 UNL     1      84.667 -11.104  66.310  1.00  0.00     0.279 HD
HETATM   10  N3  UNL     1      84.401 -14.176  65.132  1.00  0.00    -0.284 N 
ATOM     11  H3  UNL     1      84.663 -13.959  64.170  1.00  0.00     0.184 HD
ENDROOT
BRANCH  10  12
HETATM   12  N4  UNL     1      84.155 -15.477  65.512  1.00  0.00    -0.311 N 
HETATM   13  C2  UNL     1      83.477 -16.334  64.869  1.00  0.00     0.137 C 
ATOM     14  H4  UNL     1      84.558 -15.781  66.398  1.00  0.00     0.185 HD
BRANCH  13  15
HETATM   15  C3  UNL     1      82.844 -16.042  63.594  1.00  0.00     0.065 A 
HETATM   16  C4  UNL     1      83.251 -16.378  62.329  1.00  0.00     0.119 A 
HETATM   17  N5  UNL     1      82.359 -15.901  61.444  1.00  0.00    -0.360 N 
HETATM   18  C5  UNL     1      81.397 -15.271  62.129  1.00  0.00     0.180 A 
ATOM     19  H5  UNL     1      82.406 -16.001  60.430  1.00  0.00     0.166 HD
HETATM   20  N6  UNL     1      81.688 -15.356  63.420  1.00  0.00    -0.350 N 
ATOM     21  H6  UNL     1      81.123 -14.961  64.173  1.00  0.00     0.166 HD
ENDBRANCH  13  15
ENDBRANCH  10  12
TORSDOF 2
ENDMDL
MODEL 3
REMARK VINA RESULT: -5.189116456      1.247      4.456
REMARK  2 active torsions:
REMARK  status: ('A' for Active; 'I' for Inactive)
REMARK       I    between atoms: N1_1  and  C1_5 
REMARK       I    between atoms: C1_5  and  N2_6 
REMARK       I    between atoms: C1_5  and  N3_10 
REMARK    1  A    between atoms: N3_10  and  N4_12 
REMARK    2  A    between atoms: C2_14  and  C3_15 
ROOT
HETATM    1  N1  UNL     1      82.888 -16.613  61.670  1.00  0.00    -0.032 N 
ATOM      2  H11 UNL     1      83.877 -16.582  61.422  1.00  0.00     0.279 HD
ATOM      3  H12 UNL     1      82.269 -16.494  60.867  1.00  0.00     0.279 HD
ATOM      4  H13 UNL     1      82.571 -17.545  61.941  1.00  0.00     0.279 HD
HETATM    5  C1  UNL     1      82.676 -15.609  62.712  1.00  0.00     0.494 C 
HETATM    6  N2  UNL     1      81.280 -15.652  63.062  1.00  0.00    -0.032 N 
ATOM      7  H21 UNL     1      81.132 -14.952  63.788  1.00  0.00     0.279 HD
ATOM      8  H22 UNL     1      80.963 -16.584  63.333  1.00  0.00     0.279 HD
ATOM      9  H23 UNL     1      80.661 -15.533  62.259  1.00  0.00     0.279 HD
HETATM   10  N3  UNL     1      83.542 -15.958  63.814  1.00  0.00    -0.284 N 
ATOM     11  H3  UNL     1      83.152 -16.163  64.734  1.00  0.00     0.184 HD
ENDROOT
BRANCH  10  12
HETATM   12  N4  UNL     1      84.902 -16.010  63.604  1.00  0.00    -0.311 N 
HETATM   13  C2  UNL     1      85.789 -15.379  64.254  1.00  0.00     0.137 C 
ATOM     14  H4  UNL     1      85.229 -16.616  62.851  1.00  0.00     0.185 HD
BRANCH  13  15
HETATM   15  C3  UNL     1      85.471 -14.479  65.349  1.00  0.00     0.065 A 
HETATM   16  C4  UNL     1      85.866 -14.540  66.661  1.00  0.00     0.119 A 
HETATM   17  N5  UNL     1      85.335 -13.499  67.324  1.00  0.00    -0.360 N 
HETATM   18  C5  UNL     1      84.614 -12.783  66.455  1.00  0.00     0.180 A 
ATOM     19  H5  UNL     1      85.460 -13.291  68.315  1.00  0.00     0.166 HD
HETATM   20  N6  UNL     1      84.695 -13.371  65.269  1.00  0.00    -0.350 N 
ATOM     21  H6  UNL     1      84.239 -13.037  64.419  1.00  0.00     0.166 HD
ENDBRANCH  13  15
ENDBRANCH  10  12
TORSDOF 2
ENDMDL
MODEL 4
REMARK VINA RESULT: -5.123933710      1.198      1.785
REMARK  2 active torsions:
REMARK  status: ('A' for Active; 'I' for Inactive)
REMARK       I    between atoms: N1_1  and  C1_5 
REMARK       I    between atoms: C1_5  and  N2_6 
REMARK       I    between atoms: C1_5  and  N3_10 
REMARK    1  A    between atoms: N3_10  and  N4_12 
REMARK    2  A    between atoms: C2_14  and  C3_15 
ROOT
HETATM    1  N1  UNL     1      84.864 -12.355  66.915  1.00  0.00    -0.032 N 
ATOM      2  H11 UNL     1      84.503 -11.842  66.110  1.00  0.00     0.279 HD
ATOM      3  H12 UNL     1      85.488 -11.798  67.499  1.00  0.00     0.279 HD
ATOM      4  H13 UNL     1      84.153 -12.539  67.624  1.00  0.00     0.279 HD
HETATM    5  C1  UNL     1      85.492 -13.572  66.401  1.00  0.00     0.494 C 
HETATM    6  N2  UNL     1      86.001 -14.295  67.537  1.00  0.00    -0.032 N 
ATOM      7  H21 UNL     1      86.439 -15.144  67.179  1.00  0.00     0.279 HD
ATOM      8  H22 UNL     1      85.291 -14.480  68.246  1.00  0.00     0.279 HD
ATOM      9  H23 UNL     1      86.626 -13.738  68.120  1.00  0.00     0.279 HD
HETATM   10  N3  UNL     1      84.472 -14.299  65.682  1.00  0.00    -0.284 N 
ATOM     11  H3  UNL     1      84.210 -15.243  65.969  1.00  0.00     0.184 HD
ENDROOT
BRANCH  10  12
HETATM   12  N4  UNL     1      83.859 -13.701  64.604  1.00  0.00    -0.311 N 
HETATM   13  C2  UNL     1      83.296 -14.292  63.634  1.00  0.00     0.137 C 
ATOM     14  H4  UNL     1      83.858 -12.681  64.583  1.00  0.00     0.185 HD
BRANCH  13  15
HETATM   15  C3  UNL     1      83.222 -15.740  63.530  1.00  0.00     0.065 A 
HETATM   16  C4  UNL     1      84.064 -16.604  62.879  1.00  0.00     0.119 A 
HETATM   17  N5  UNL     1      83.613 -17.859  63.045  1.00  0.00    -0.360 N 
HETATM   18  C5  UNL     1      82.503 -17.801  63.790  1.00  0.00     0.180 A 
ATOM     19  H5  UNL     1      84.041 -18.706  62.671  1.00  0.00     0.166 HD
HETATM   20  N6  UNL     1      82.268 -16.529  64.081  1.00  0.00    -0.350 N 
ATOM     21  H6  UNL     1      81.482 -16.194  64.639  1.00  0.00     0.166 HD
ENDBRANCH  13  15
ENDBRANCH  10  12
TORSDOF 2
ENDMDL
MODEL 5
REMARK VINA RESULT: -5.110278870      1.690      2.496
REMARK  2 active torsions:
REMARK  status: ('A' for Active; 'I' for Inactive)
REMARK       I    between atoms: N1_1  and  C1_5 
REMARK       I    between atoms: C1_5  and  N2_6 
REMARK       I    between atoms: C1_5  and  N3_10 
REMARK    1  A    between atoms: N3_10  and  N4_12 
REMARK    2  A    between atoms: C2_14  and  C3_15 
ROOT
HETATM    1  N1  UNL     1      87.457 -14.295  66.026  1.00  0.00    -0.032 N 
ATOM      2  H11 UNL     1      86.725 -13.600  65.881  1.00  0.00     0.279 HD
ATOM      3  H12 UNL     1      88.381 -13.973  65.738  1.00  0.00     0.279 HD
ATOM      4  H13 UNL     1      87.674 -14.449  67.011  1.00  0.00     0.279 HD
HETATM    5  C1  UNL     1      87.032 -15.513  65.335  1.00  0.00     0.494 C 
HETATM    6  N2  UNL     1      88.065 -16.496  65.540  1.00  0.00    -0.032 N 
ATOM      7  H21 UNL     1      87.769 -17.344  65.058  1.00  0.00     0.279 HD
ATOM      8  H22 UNL     1      88.282 -16.649  66.525  1.00  0.00     0.279 HD
ATOM      9  H23 UNL     1      88.989 -16.173  65.252  1.00  0.00     0.279 HD
HETATM   10  N3  UNL     1      85.765 -15.902  65.909  1.00  0.00    -0.284 N 
ATOM     11  H3  UNL     1      85.659 -16.809  66.363  1.00  0.00     0.184 HD
ENDROOT
BRANCH  10  12
HETATM   12  N4  UNL     1      84.702 -15.029  65.833  1.00  0.00    -0.311 N 
HETATM   13  C2  UNL     1      83.722 -15.103  65.033  1.00  0.00     0.137 C 
ATOM     14  H4  UNL     1      84.703 -14.245  66.486  1.00  0.00     0.185 HD
BRANCH  13  15
HETATM   15  C3  UNL     1      83.589 -16.163  64.047  1.00  0.00     0.065 A 
HETATM   16  C4  UNL     1      84.317 -16.379  62.906  1.00  0.00     0.119 A 
HETATM   17  N5  UNL     1      83.847 -17.480  62.293  1.00  0.00    -0.360 N 
HETATM   18  C5  UNL     1      82.839 -17.961  63.028  1.00  0.00     0.180 A 
ATOM     19  H5  UNL     1      84.199 -17.878  61.422  1.00  0.00     0.166 HD
HETATM   20  N6  UNL     1      82.682 -17.171  64.081  1.00  0.00    -0.350 N 
ATOM     21  H6  UNL     1      81.982 -17.302  64.811  1.00  0.00     0.166 HD
ENDBRANCH  13  15
ENDBRANCH  10  12
TORSDOF 2
ENDMDL
