MODEL 1
REMARK VINA RESULT: -8.384874669      0.000      0.000
REMARK  9 active torsions:
REMARK  status: ('A' for Active; 'I' for Inactive)
REMARK    1  A    between atoms: C2_2  and  C3_3 
REMARK    2  A    between atoms: C3_3  and  C4_4 
REMARK    3  A    between atoms: C4_4  and  C5_5 
REMARK    4  A    between atoms: C5_5  and  C6_6 
REMARK    5  A    between atoms: C10_12  and  C11_13 
REMARK    6  A    between atoms: C11_13  and  C12_14 
REMARK    7  A    between atoms: C16_20  and  C17_21 
REMARK    8  A    between atoms: C17_21  and  C18_22 
REMARK    9  A    between atoms: C22_29  and  C23_30 
ROOT
HETATM    1  C6  UNL     1      13.173 -13.026  16.390  1.00  0.00     0.078 C 
HETATM    2  C7  UNL     1      13.403 -14.183  17.329  1.00  0.00     0.024 C 
HETATM    3  C8  UNL     1      14.408 -15.173  16.800  1.00  0.00     0.112 C 
HETATM    4  C9  UNL     1      14.152 -15.644  15.435  1.00  0.00     0.259 C 
HETATM    5  O1  UNL     1      14.756 -15.055  14.495  1.00  0.00    -0.265 OA
HETATM    6  O2  UNL     1      13.324 -16.660  15.060  1.00  0.00    -0.306 OA
HETATM    7  C10 UNL     1      13.224 -17.940  15.713  1.00  0.00     0.231 C 
HETATM    8  C15 UNL     1      11.871 -18.459  15.388  1.00  0.00     0.289 C 
HETATM    9  O3  UNL     1      11.639 -19.616  15.845  1.00  0.00    -0.262 OA
HETATM   10  O4  UNL     1      10.902 -17.842  14.684  1.00  0.00    -0.304 OA
HETATM   11  C16 UNL     1      10.769 -17.330  13.418  1.00  0.00     0.224 C 
HETATM   12  C21 UNL     1       9.326 -17.428  13.026  1.00  0.00     0.248 C 
HETATM   13  O5  UNL     1       8.773 -18.521  13.405  1.00  0.00    -0.271 OA
HETATM   14  N1  UNL     1       8.591 -16.475  12.321  1.00  0.00    -0.347 N 
ATOM     15  H1  UNL     1       8.071 -16.821  11.515  1.00  0.00     0.163 HD
HETATM   16  C22 UNL     1       8.471 -15.060  12.588  1.00  0.00     0.158 C 
HETATM   17  C26 UNL     1       8.673 -14.715  14.019  1.00  0.00     0.166 C 
HETATM   18  O6  UNL     1       8.383 -15.572  14.837  1.00  0.00    -0.295 OA
HETATM   19  C27 UNL     1       9.198 -13.408  14.491  1.00  0.00     0.192 C 
HETATM   20  C28 UNL     1       8.319 -12.753  15.526  1.00  0.00     0.234 C 
HETATM   21  O7  UNL     1       7.509 -11.807  15.604  1.00  0.00    -0.273 OA
HETATM   22  N2  UNL     1       8.833 -13.737  16.443  1.00  0.00    -0.338 N 
ATOM     23  H2  UNL     1       8.485 -14.267  17.242  1.00  0.00     0.164 HD
HETATM   24  C29 UNL     1      10.094 -13.621  15.691  1.00  0.00     0.207 C 
HETATM   25  N3  UNL     1      10.716 -12.364  16.069  1.00  0.00    -0.338 N 
ATOM     26  H3  UNL     1      10.221 -11.502  15.839  1.00  0.00     0.164 HD
HETATM   27  C30 UNL     1      11.966 -12.248  16.737  1.00  0.00     0.223 C 
HETATM   28  O8  UNL     1      12.061 -11.429  17.691  1.00  0.00    -0.273 OA
ENDROOT
BRANCH   1  29
HETATM   29  C5  UNL     1      14.432 -12.162  16.446  1.00  0.00     0.014 C 
BRANCH  29  30
HETATM   30  C4  UNL     1      14.604 -11.539  15.087  1.00  0.00     0.001 C 
BRANCH  30  31
HETATM   31  C3  UNL     1      16.018 -11.701  14.568  1.00  0.00    -0.000 C 
BRANCH  31  32
HETATM   32  C2  UNL     1      16.512 -10.295  14.219  1.00  0.00    -0.005 C 
HETATM   33  C1  UNL     1      16.533 -10.219  12.709  1.00  0.00     0.005 C 
ENDBRANCH  31  32
ENDBRANCH  30  31
ENDBRANCH  29  30
ENDBRANCH   1  29
BRANCH   7  34
HETATM   34  C11 UNL     1      14.359 -18.751  15.241  1.00  0.00     0.046 C 
BRANCH  34  35
HETATM   35  C12 UNL     1      15.476 -19.032  16.146  1.00  0.00    -0.020 C 
HETATM   36  C13 UNL     1      16.747 -18.344  15.611  1.00  0.00     0.009 C 
HETATM   37  C14 UNL     1      15.333 -18.699  17.576  1.00  0.00     0.009 C 
ENDBRANCH  34  35
ENDBRANCH   7  34
BRANCH  16  38
HETATM   38  C23 UNL     1       7.133 -14.586  12.073  1.00  0.00     0.007 C 
HETATM   39  C24 UNL     1       6.173 -15.664  11.729  1.00  0.00     0.012 C 
HETATM   40  C25 UNL     1       7.271 -13.632  10.916  1.00  0.00     0.012 C 
ENDBRANCH  16  38
BRANCH  11  41
HETATM   41  C17 UNL     1      11.575 -18.060  12.380  1.00  0.00     0.046 C 
BRANCH  41  42
HETATM   42  C18 UNL     1      11.150 -17.751  10.974  1.00  0.00    -0.020 C 
HETATM   43  C19 UNL     1      11.585 -16.397  10.498  1.00  0.00     0.009 C 
HETATM   44  C20 UNL     1      11.855 -18.776  10.073  1.00  0.00     0.009 C 
ENDBRANCH  41  42
ENDBRANCH  11  41
TORSDOF 9
ENDMDL
MODEL 2
REMARK VINA RESULT: -8.379539659      0.877      1.027
REMARK  9 active torsions:
REMARK  status: ('A' for Active; 'I' for Inactive)
REMARK    1  A    between atoms: C2_2  and  C3_3 
REMARK    2  A    between atoms: C3_3  and  C4_4 
REMARK    3  A    between atoms: C4_4  and  C5_5 
REMARK    4  A    between atoms: C5_5  and  C6_6 
REMARK    5  A    between atoms: C10_12  and  C11_13 
REMARK    6  A    between atoms: C11_13  and  C12_14 
REMARK    7  A    between atoms: C16_20  and  C17_21 
REMARK    8  A    between atoms: C17_21  and  C18_22 
REMARK    9  A    between atoms: C22_29  and  C23_30 
ROOT
HETATM    1  C6  UNL     1      13.299 -12.971  16.559  1.00  0.00     0.078 C 
HETATM    2  C7  UNL     1      13.520 -14.272  17.288  1.00  0.00     0.024 C 
HETATM    3  C8  UNL     1      14.615 -15.106  16.673  1.00  0.00     0.112 C 
HETATM    4  C9  UNL     1      14.487 -15.325  15.229  1.00  0.00     0.259 C 
HETATM    5  O1  UNL     1      15.126 -14.548  14.466  1.00  0.00    -0.265 OA
HETATM    6  O2  UNL     1      13.746 -16.285  14.607  1.00  0.00    -0.306 OA
HETATM    7  C10 UNL     1      13.666 -17.667  15.005  1.00  0.00     0.231 C 
HETATM    8  C15 UNL     1      12.372 -18.170  14.480  1.00  0.00     0.289 C 
HETATM    9  O3  UNL     1      12.170 -19.400  14.698  1.00  0.00    -0.262 OA
HETATM   10  O4  UNL     1      11.426 -17.472  13.822  1.00  0.00    -0.304 OA
HETATM   11  C16 UNL     1      11.360 -16.739  12.663  1.00  0.00     0.224 C 
HETATM   12  C21 UNL     1       9.958 -16.819  12.141  1.00  0.00     0.248 C 
HETATM   13  O5  UNL     1       9.439 -17.986  12.267  1.00  0.00    -0.271 OA
HETATM   14  N1  UNL     1       9.227 -15.782  11.563  1.00  0.00    -0.347 N 
ATOM     15  H1  UNL     1       8.789 -15.993  10.667  1.00  0.00     0.163 HD
HETATM   16  C22 UNL     1       9.011 -14.448  12.071  1.00  0.00     0.158 C 
HETATM   17  C26 UNL     1       9.087 -14.366  13.553  1.00  0.00     0.166 C 
HETATM   18  O6  UNL     1       8.783 -15.371  14.174  1.00  0.00    -0.295 OA
HETATM   19  C27 UNL     1       9.504 -13.150  14.297  1.00  0.00     0.192 C 
HETATM   20  C28 UNL     1       8.515 -12.734  15.358  1.00  0.00     0.234 C 
HETATM   21  O7  UNL     1       7.652 -11.852  15.538  1.00  0.00    -0.273 OA
HETATM   22  N2  UNL     1       9.012 -13.850  16.119  1.00  0.00    -0.338 N 
ATOM     23  H2  UNL     1       8.634 -14.533  16.776  1.00  0.00     0.164 HD
HETATM   24  C29 UNL     1      10.317 -13.547  15.509  1.00  0.00     0.207 C 
HETATM   25  N3  UNL     1      10.841 -12.358  16.160  1.00  0.00    -0.338 N 
ATOM     26  H3  UNL     1      10.318 -11.489  16.050  1.00  0.00     0.164 HD
HETATM   27  C30 UNL     1      12.029 -12.319  16.940  1.00  0.00     0.223 C 
HETATM   28  O8  UNL     1      12.007 -11.688  18.032  1.00  0.00    -0.273 OA
ENDROOT
BRANCH   1  29
HETATM   29  C5  UNL     1      14.502 -12.083  16.877  1.00  0.00     0.014 C 
BRANCH  29  30
HETATM   30  C4  UNL     1      15.166 -11.751  15.568  1.00  0.00     0.001 C 
BRANCH  30  31
HETATM   31  C3  UNL     1      14.218 -11.051  14.616  1.00  0.00    -0.000 C 
BRANCH  31  32
HETATM   32  C2  UNL     1      15.006  -9.895  13.996  1.00  0.00    -0.005 C 
HETATM   33  C1  UNL     1      16.466 -10.279  14.096  1.00  0.00     0.005 C 
ENDBRANCH  31  32
ENDBRANCH  30  31
ENDBRANCH  29  30
ENDBRANCH   1  29
BRANCH   7  34
HETATM   34  C11 UNL     1      14.876 -18.331  14.491  1.00  0.00     0.046 C 
BRANCH  34  35
HETATM   35  C12 UNL     1      15.926 -18.749  15.421  1.00  0.00    -0.020 C 
HETATM   36  C13 UNL     1      17.111 -17.767  15.323  1.00  0.00     0.009 C 
HETATM   37  C14 UNL     1      15.586 -18.926  16.845  1.00  0.00     0.009 C 
ENDBRANCH  34  35
ENDBRANCH   7  34
BRANCH  16  38
HETATM   38  C23 UNL     1       7.692 -13.939  11.542  1.00  0.00     0.007 C 
HETATM   39  C24 UNL     1       6.608 -14.951  11.475  1.00  0.00     0.012 C 
HETATM   40  C25 UNL     1       7.837 -13.254  10.208  1.00  0.00     0.012 C 
ENDBRANCH  16  38
BRANCH  11  41
HETATM   41  C17 UNL     1      12.280 -17.232  11.581  1.00  0.00     0.046 C 
BRANCH  41  42
HETATM   42  C18 UNL     1      11.984 -18.638  11.147  1.00  0.00    -0.020 C 
HETATM   43  C19 UNL     1      11.571 -18.749   9.709  1.00  0.00     0.009 C 
HETATM   44  C20 UNL     1      13.300 -19.419  11.283  1.00  0.00     0.009 C 
ENDBRANCH  41  42
ENDBRANCH  11  41
TORSDOF 9
ENDMDL
MODEL 3
REMARK VINA RESULT: -8.285333446      0.616      1.015
REMARK  9 active torsions:
REMARK  status: ('A' for Active; 'I' for Inactive)
REMARK    1  A    between atoms: C2_2  and  C3_3 
REMARK    2  A    between atoms: C3_3  and  C4_4 
REMARK    3  A    between atoms: C4_4  and  C5_5 
REMARK    4  A    between atoms: C5_5  and  C6_6 
REMARK    5  A    between atoms: C10_12  and  C11_13 
REMARK    6  A    between atoms: C11_13  and  C12_14 
REMARK    7  A    between atoms: C16_20  and  C17_21 
REMARK    8  A    between atoms: C17_21  and  C18_22 
REMARK    9  A    between atoms: C22_29  and  C23_30 
ROOT
HETATM    1  C6  UNL     1      13.166 -13.162  16.480  1.00  0.00     0.078 C 
HETATM    2  C7  UNL     1      13.349 -14.245  17.512  1.00  0.00     0.024 C 
HETATM    3  C8  UNL     1      14.336 -15.299  17.083  1.00  0.00     0.112 C 
HETATM    4  C9  UNL     1      14.092 -15.871  15.755  1.00  0.00     0.259 C 
HETATM    5  O1  UNL     1      14.727 -15.374  14.784  1.00  0.00    -0.265 OA
HETATM    6  O2  UNL     1      13.244 -16.892  15.445  1.00  0.00    -0.306 OA
HETATM    7  C10 UNL     1      13.098 -18.113  16.196  1.00  0.00     0.231 C 
HETATM    8  C15 UNL     1      11.738 -18.622  15.887  1.00  0.00     0.289 C 
HETATM    9  O3  UNL     1      11.467 -19.733  16.430  1.00  0.00    -0.262 OA
HETATM   10  O4  UNL     1      10.798 -18.040  15.118  1.00  0.00    -0.304 OA
HETATM   11  C16 UNL     1      10.701 -17.626  13.812  1.00  0.00     0.224 C 
HETATM   12  C21 UNL     1       9.263 -17.719  13.401  1.00  0.00     0.248 C 
HETATM   13  O5  UNL     1       8.674 -18.765  13.855  1.00  0.00    -0.271 OA
HETATM   14  N1  UNL     1       8.566 -16.807  12.609  1.00  0.00    -0.347 N 
ATOM     15  H1  UNL     1       8.052 -17.204  11.823  1.00  0.00     0.163 HD
HETATM   16  C22 UNL     1       8.479 -15.373  12.760  1.00  0.00     0.158 C 
HETATM   17  C26 UNL     1       8.665 -14.920  14.163  1.00  0.00     0.166 C 
HETATM   18  O6  UNL     1       8.338 -15.701  15.040  1.00  0.00    -0.295 OA
HETATM   19  C27 UNL     1       9.217 -13.593  14.540  1.00  0.00     0.192 C 
HETATM   20  C28 UNL     1       8.337 -12.836  15.502  1.00  0.00     0.234 C 
HETATM   21  O7  UNL     1       7.552 -11.866  15.489  1.00  0.00    -0.273 OA
HETATM   22  N2  UNL     1       8.808 -13.756  16.504  1.00  0.00    -0.338 N 
ATOM     23  H2  UNL     1       8.433 -14.212  17.335  1.00  0.00     0.164 HD
HETATM   24  C29 UNL     1      10.085 -13.732  15.770  1.00  0.00     0.207 C 
HETATM   25  N3  UNL     1      10.734 -12.465  16.060  1.00  0.00    -0.338 N 
ATOM     26  H3  UNL     1      10.266 -11.613  15.752  1.00  0.00     0.164 HD
HETATM   27  C30 UNL     1      11.975 -12.327  16.741  1.00  0.00     0.223 C 
HETATM   28  O8  UNL     1      12.074 -11.437  17.628  1.00  0.00    -0.273 OA
ENDROOT
BRANCH   1  29
HETATM   29  C5  UNL     1      14.447 -12.328  16.492  1.00  0.00     0.014 C 
BRANCH  29  30
HETATM   30  C4  UNL     1      14.602 -11.732  15.119  1.00  0.00     0.001 C 
BRANCH  30  31
HETATM   31  C3  UNL     1      16.017 -11.876  14.598  1.00  0.00    -0.000 C 
BRANCH  31  32
HETATM   32  C2  UNL     1      16.495 -10.463  14.254  1.00  0.00    -0.005 C 
HETATM   33  C1  UNL     1      16.610 -10.414  12.746  1.00  0.00     0.005 C 
ENDBRANCH  31  32
ENDBRANCH  30  31
ENDBRANCH  29  30
ENDBRANCH   1  29
BRANCH   7  34
HETATM   34  C11 UNL     1      14.219 -18.987  15.812  1.00  0.00     0.046 C 
BRANCH  34  35
HETATM   35  C12 UNL     1      14.848 -18.828  14.500  1.00  0.00    -0.020 C 
HETATM   36  C13 UNL     1      16.354 -18.564  14.687  1.00  0.00     0.009 C 
HETATM   37  C14 UNL     1      14.684 -19.899  13.498  1.00  0.00     0.009 C 
ENDBRANCH  34  35
ENDBRANCH   7  34
BRANCH  16  38
HETATM   38  C23 UNL     1       7.163 -14.908  12.183  1.00  0.00     0.007 C 
HETATM   39  C24 UNL     1       6.261 -15.992  11.720  1.00  0.00     0.012 C 
HETATM   40  C25 UNL     1       7.347 -13.890  11.088  1.00  0.00     0.012 C 
ENDBRANCH  16  38
BRANCH  11  41
HETATM   41  C17 UNL     1      11.505 -18.457  12.852  1.00  0.00     0.046 C 
BRANCH  41  42
HETATM   42  C18 UNL     1      12.184 -17.644  11.788  1.00  0.00    -0.020 C 
HETATM   43  C19 UNL     1      11.489 -17.689  10.460  1.00  0.00     0.009 C 
HETATM   44  C20 UNL     1      12.129 -16.183  12.259  1.00  0.00     0.009 C 
ENDBRANCH  41  42
ENDBRANCH  11  41
TORSDOF 9
ENDMDL
MODEL 4
REMARK VINA RESULT: -8.249612105      1.349      1.666
REMARK  9 active torsions:
REMARK  status: ('A' for Active; 'I' for Inactive)
REMARK    1  A    between atoms: C2_2  and  C3_3 
REMARK    2  A    between atoms: C3_3  and  C4_4 
REMARK    3  A    between atoms: C4_4  and  C5_5 
REMARK    4  A    between atoms: C5_5  and  C6_6 
REMARK    5  A    between atoms: C10_12  and  C11_13 
REMARK    6  A    between atoms: C11_13  and  C12_14 
REMARK    7  A    between atoms: C16_20  and  C17_21 
REMARK    8  A    between atoms: C17_21  and  C18_22 
REMARK    9  A    between atoms: C22_29  and  C23_30 
ROOT
HETATM    1  C6  UNL     1      14.963 -13.500  15.253  1.00  0.00     0.078 C 
HETATM    2  C7  UNL     1      15.063 -14.440  16.428  1.00  0.00     0.024 C 
HETATM    3  C8  UNL     1      15.715 -15.751  16.072  1.00  0.00     0.112 C 
HETATM    4  C9  UNL     1      15.145 -16.427  14.903  1.00  0.00     0.259 C 
HETATM    5  O1  UNL     1      15.713 -16.240  13.791  1.00  0.00    -0.265 OA
HETATM    6  O2  UNL     1      14.055 -17.246  14.879  1.00  0.00    -0.306 OA
HETATM    7  C10 UNL     1      13.765 -18.277  15.842  1.00  0.00     0.231 C 
HETATM    8  C15 UNL     1      12.295 -18.481  15.792  1.00  0.00     0.289 C 
HETATM    9  O3  UNL     1      11.876 -19.405  16.547  1.00  0.00    -0.262 OA
HETATM   10  O4  UNL     1      11.397 -17.802  15.052  1.00  0.00    -0.304 OA
HETATM   11  C16 UNL     1      11.188 -17.565  13.716  1.00  0.00     0.224 C 
HETATM   12  C21 UNL     1       9.719 -17.363  13.504  1.00  0.00     0.248 C 
HETATM   13  O5  UNL     1       8.994 -18.162  14.199  1.00  0.00    -0.271 OA
HETATM   14  N1  UNL     1       9.123 -16.431  12.655  1.00  0.00    -0.347 N 
ATOM     15  H1  UNL     1       8.417 -16.797  12.017  1.00  0.00     0.163 HD
HETATM   16  C22 UNL     1       9.378 -15.012  12.565  1.00  0.00     0.158 C 
HETATM   17  C26 UNL     1       9.878 -14.425  13.835  1.00  0.00     0.166 C 
HETATM   18  O6  UNL     1       9.529 -14.973  14.867  1.00  0.00    -0.295 OA
HETATM   19  C27 UNL     1      10.760 -13.232  13.907  1.00  0.00     0.192 C 
HETATM   20  C28 UNL     1      10.231 -12.156  14.823  1.00  0.00     0.234 C 
HETATM   21  O7  UNL     1       9.686 -11.038  14.736  1.00  0.00    -0.273 OA
HETATM   22  N2  UNL     1      10.640 -13.013  15.904  1.00  0.00    -0.338 N 
ATOM     23  H2  UNL     1      10.309 -13.243  16.841  1.00  0.00     0.164 HD
HETATM   24  C29 UNL     1      11.759 -13.403  15.030  1.00  0.00     0.207 C 
HETATM   25  N3  UNL     1      12.708 -12.302  15.015  1.00  0.00    -0.338 N 
ATOM     26  H3  UNL     1      12.396 -11.414  14.622  1.00  0.00     0.164 HD
HETATM   27  C30 UNL     1      14.040 -12.375  15.507  1.00  0.00     0.223 C 
HETATM   28  O8  UNL     1      14.471 -11.420  16.209  1.00  0.00    -0.273 OA
ENDROOT
BRANCH   1  29
HETATM   29  C5  UNL     1      16.381 -13.008  14.967  1.00  0.00     0.014 C 
BRANCH  29  30
HETATM   30  C4  UNL     1      16.435 -12.635  13.509  1.00  0.00     0.001 C 
BRANCH  30  31
HETATM   31  C3  UNL     1      16.686 -11.154  13.315  1.00  0.00    -0.000 C 
BRANCH  31  32
HETATM   32  C2  UNL     1      17.259 -10.996  11.905  1.00  0.00    -0.005 C 
HETATM   33  C1  UNL     1      17.000  -9.561  11.504  1.00  0.00     0.005 C 
ENDBRANCH  31  32
ENDBRANCH  30  31
ENDBRANCH  29  30
ENDBRANCH   1  29
BRANCH   7  34
HETATM   34  C11 UNL     1      14.592 -19.442  15.484  1.00  0.00     0.046 C 
BRANCH  34  35
HETATM   35  C12 UNL     1      15.687 -19.853  16.365  1.00  0.00    -0.020 C 
HETATM   36  C13 UNL     1      17.032 -19.527  15.688  1.00  0.00     0.009 C 
HETATM   37  C14 UNL     1      15.722 -19.335  17.745  1.00  0.00     0.009 C 
ENDBRANCH  34  35
ENDBRANCH   7  34
BRANCH  16  38
HETATM   38  C23 UNL     1       8.122 -14.328  12.079  1.00  0.00     0.007 C 
HETATM   39  C24 UNL     1       6.949 -15.219  11.899  1.00  0.00     0.012 C 
HETATM   40  C25 UNL     1       8.357 -13.528  10.824  1.00  0.00     0.012 C 
ENDBRANCH  16  38
BRANCH  11  41
HETATM   41  C17 UNL     1      11.629 -18.692  12.825  1.00  0.00     0.046 C 
BRANCH  41  42
HETATM   42  C18 UNL     1      12.665 -18.282  11.819  1.00  0.00    -0.020 C 
HETATM   43  C19 UNL     1      13.870 -19.175  11.799  1.00  0.00     0.009 C 
HETATM   44  C20 UNL     1      12.005 -18.412  10.438  1.00  0.00     0.009 C 
ENDBRANCH  41  42
ENDBRANCH  11  41
TORSDOF 9
ENDMDL
MODEL 5
REMARK VINA RESULT: -8.209078927      2.400      7.145
REMARK  9 active torsions:
REMARK  status: ('A' for Active; 'I' for Inactive)
REMARK    1  A    between atoms: C2_2  and  C3_3 
REMARK    2  A    between atoms: C3_3  and  C4_4 
REMARK    3  A    between atoms: C4_4  and  C5_5 
REMARK    4  A    between atoms: C5_5  and  C6_6 
REMARK    5  A    between atoms: C10_12  and  C11_13 
REMARK    6  A    between atoms: C11_13  and  C12_14 
REMARK    7  A    between atoms: C16_20  and  C17_21 
REMARK    8  A    between atoms: C17_21  and  C18_22 
REMARK    9  A    between atoms: C22_29  and  C23_30 
ROOT
HETATM    1  C6  UNL     1       9.082 -14.829  14.367  1.00  0.00     0.078 C 
HETATM    2  C7  UNL     1       8.877 -14.563  15.836  1.00  0.00     0.024 C 
HETATM    3  C8  UNL     1       9.511 -13.273  16.289  1.00  0.00     0.112 C 
HETATM    4  C9  UNL     1      10.920 -13.112  15.915  1.00  0.00     0.259 C 
HETATM    5  O1  UNL     1      11.169 -12.462  14.862  1.00  0.00    -0.265 OA
HETATM    6  O2  UNL     1      12.005 -13.593  16.584  1.00  0.00    -0.306 OA
HETATM    7  C10 UNL     1      12.193 -13.550  18.011  1.00  0.00     0.231 C 
HETATM    8  C15 UNL     1      13.138 -14.650  18.332  1.00  0.00     0.289 C 
HETATM    9  O3  UNL     1      13.456 -14.716  19.555  1.00  0.00    -0.262 OA
HETATM   10  O4  UNL     1      13.667 -15.552  17.483  1.00  0.00    -0.304 OA
HETATM   11  C16 UNL     1      14.442 -15.514  16.350  1.00  0.00     0.224 C 
HETATM   12  C21 UNL     1      15.244 -16.777  16.293  1.00  0.00     0.248 C 
HETATM   13  O5  UNL     1      15.689 -17.145  17.439  1.00  0.00    -0.271 OA
HETATM   14  N1  UNL     1      15.526 -17.531  15.154  1.00  0.00    -0.347 N 
ATOM     15  H1  UNL     1      16.506 -17.771  15.010  1.00  0.00     0.163 HD
HETATM   16  C22 UNL     1      14.605 -18.014  14.151  1.00  0.00     0.158 C 
HETATM   17  C26 UNL     1      13.226 -18.213  14.669  1.00  0.00     0.166 C 
HETATM   18  O6  UNL     1      13.119 -18.480  15.854  1.00  0.00    -0.295 OA
HETATM   19  C27 UNL     1      12.003 -18.105  13.834  1.00  0.00     0.192 C 
HETATM   20  C28 UNL     1      11.105 -19.313  13.936  1.00  0.00     0.234 C 
HETATM   21  O7  UNL     1      10.792 -20.307  13.251  1.00  0.00    -0.273 OA
HETATM   22  N2  UNL     1      10.740 -18.809  15.234  1.00  0.00    -0.338 N 
ATOM     23  H2  UNL     1      10.493 -19.199  16.144  1.00  0.00     0.164 HD
HETATM   24  C29 UNL     1      10.890 -17.471  14.638  1.00  0.00     0.207 C 
HETATM   25  N3  UNL     1       9.737 -17.239  13.785  1.00  0.00    -0.338 N 
ATOM     26  H3  UNL     1       9.617 -17.849  12.976  1.00  0.00     0.164 HD
HETATM   27  C30 UNL     1       8.764 -16.224  13.996  1.00  0.00     0.223 C 
HETATM   28  O8  UNL     1       7.547 -16.524  13.860  1.00  0.00    -0.273 OA
ENDROOT
BRANCH   1  29
HETATM   29  C5  UNL     1       8.197 -13.835  13.616  1.00  0.00     0.014 C 
BRANCH  29  30
HETATM   30  C4  UNL     1       8.778 -13.677  12.236  1.00  0.00     0.001 C 
BRANCH  30  31
HETATM   31  C3  UNL     1       7.783 -14.054  11.158  1.00  0.00    -0.000 C 
BRANCH  31  32
HETATM   32  C2  UNL     1       8.527 -13.939   9.826  1.00  0.00    -0.005 C 
HETATM   33  C1  UNL     1       7.738 -12.959   8.987  1.00  0.00     0.005 C 
ENDBRANCH  31  32
ENDBRANCH  30  31
ENDBRANCH  29  30
ENDBRANCH   1  29
BRANCH   7  34
HETATM   34  C11 UNL     1      12.648 -12.189  18.342  1.00  0.00     0.046 C 
BRANCH  34  35
HETATM   35  C12 UNL     1      11.818 -11.334  19.193  1.00  0.00    -0.020 C 
HETATM   36  C13 UNL     1      10.572 -12.122  19.643  1.00  0.00     0.009 C 
HETATM   37  C14 UNL     1      12.427 -10.707  20.381  1.00  0.00     0.009 C 
ENDBRANCH  34  35
ENDBRANCH   7  34
BRANCH  16  38
HETATM   38  C23 UNL     1      15.172 -19.278  13.548  1.00  0.00     0.007 C 
HETATM   39  C24 UNL     1      14.511 -19.730  12.299  1.00  0.00     0.012 C 
HETATM   40  C25 UNL     1      15.227 -20.410  14.540  1.00  0.00     0.012 C 
ENDBRANCH  16  38
BRANCH  11  41
HETATM   41  C17 UNL     1      15.403 -14.359  16.313  1.00  0.00     0.046 C 
BRANCH  41  42
HETATM   42  C18 UNL     1      15.124 -13.390  15.200  1.00  0.00    -0.020 C 
HETATM   43  C19 UNL     1      15.210 -11.953  15.618  1.00  0.00     0.009 C 
HETATM   44  C20 UNL     1      16.225 -13.606  14.152  1.00  0.00     0.009 C 
ENDBRANCH  41  42
ENDBRANCH  11  41
TORSDOF 9
ENDMDL
