MODEL 1
REMARK VINA RESULT: -8.548092030      0.000      0.000
REMARK  10 active torsions:
REMARK  status: ('A' for Active; 'I' for Inactive)
REMARK    1  A    between atoms: C5_5  and  O1_6 
REMARK    2  A    between atoms: C7_9  and  C8_10 
REMARK       I    between atoms: C8_10  and  N1_12 
REMARK    3  A    between atoms: C9_14  and  C10_15 
REMARK    4  A    between atoms: C10_15  and  N2_16 
REMARK    5  A    between atoms: C13_19  and  C14_20 
REMARK       I    between atoms: C14_20  and  N3_22 
REMARK    6  A    between atoms: N3_22  and  C15_24 
REMARK    7  A    between atoms: C15_24  and  C16_25 
REMARK    8  A    between atoms: C22_33  and  C23_34 
REMARK    9  A    between atoms: C26_39  and  C27_40 
REMARK   10  A    between atoms: C27_40  and  C28_41 
ROOT
HETATM    1  C1  UNL     1      11.254 -17.310  10.970  1.00  0.00     0.036 C 
HETATM    2  C2  UNL     1      10.799 -15.927  11.275  1.00  0.00    -0.028 C 
HETATM    3  C3  UNL     1      10.750 -15.533  12.549  1.00  0.00    -0.075 C 
HETATM    4  C4  UNL     1      11.127 -16.407  13.678  1.00  0.00     0.072 C 
HETATM    5  C5  UNL     1      12.298 -15.711  14.343  1.00  0.00     0.068 C 
HETATM    6  C6  UNL     1      12.618 -16.294  15.687  1.00  0.00     0.053 C 
HETATM    7  C7  UNL     1      13.399 -15.177  16.294  1.00  0.00     0.094 C 
HETATM    8  C13 UNL     1      12.787 -13.871  15.740  1.00  0.00     0.099 C 
HETATM    9  C19 UNL     1      12.081 -14.229  14.507  1.00  0.00     0.053 C 
HETATM   10  C20 UNL     1      10.643 -13.828  14.327  1.00  0.00     0.065 C 
HETATM   11  C21 UNL     1       9.700 -14.258  15.376  1.00  0.00     0.053 C 
HETATM   12  C22 UNL     1       9.356 -13.053  16.240  1.00  0.00     0.133 C 
HETATM   13  O6  UNL     1      10.284 -12.096  15.852  1.00  0.00    -0.315 OA
HETATM   14  C25 UNL     1      10.583 -12.353  14.498  1.00  0.00     0.269 C 
HETATM   15  O7  UNL     1      10.769 -11.527  13.586  1.00  0.00    -0.264 OA
HETATM   16  C26 UNL     1      10.296 -14.144  12.907  1.00  0.00     0.036 C 
ENDROOT
BRANCH   8  17
HETATM   17  C14 UNL     1      13.952 -12.971  15.507  1.00  0.00     0.224 C 
HETATM   18  O3  UNL     1      14.881 -13.009  16.391  1.00  0.00    -0.273 OA
HETATM   19  N3  UNL     1      14.110 -12.100  14.409  1.00  0.00    -0.342 N 
ATOM     20  H3  UNL     1      13.379 -12.056  13.699  1.00  0.00     0.163 HD
BRANCH  19  21
HETATM   21  C15 UNL     1      15.276 -11.273  14.264  1.00  0.00     0.121 A 
HETATM   22  C17 UNL     1      14.946  -9.806  14.092  1.00  0.00     0.045 A 
HETATM   23  C18 UNL     1      15.652 -10.278  15.305  1.00  0.00     0.045 A 
BRANCH  21  24
HETATM   24  C16 UNL     1      16.357 -11.846  13.420  1.00  0.00     0.202 C 
HETATM   25  O4  UNL     1      17.000 -12.839  13.870  1.00  0.00    -0.646 OA
HETATM   26  O5  UNL     1      16.683 -11.346  12.186  1.00  0.00    -0.646 OA
ENDBRANCH  21  24
ENDBRANCH  19  21
ENDBRANCH   8  17
BRANCH   7  27
HETATM   27  C8  UNL     1      13.457 -15.157  17.754  1.00  0.00     0.226 C 
HETATM   28  O2  UNL     1      12.805 -14.322  18.426  1.00  0.00    -0.273 OA
HETATM   29  N1  UNL     1      14.258 -16.084  18.465  1.00  0.00    -0.339 N 
HETATM   30  C9  UNL     1      15.420 -16.479  18.089  1.00  0.00     0.093 C 
ATOM     31  H1  UNL     1      13.885 -16.463  19.336  1.00  0.00     0.167 HD
BRANCH  30  32
HETATM   32  C10 UNL     1      16.122 -17.456  18.954  1.00  0.00     0.315 C 
BRANCH  32  33
HETATM   33  N2  UNL     1      17.388 -17.891  18.405  1.00  0.00     0.084 N 
HETATM   34  C11 UNL     1      17.988 -16.876  17.578  1.00  0.00     0.309 C 
HETATM   35  C12 UNL     1      17.251 -19.137  17.693  1.00  0.00     0.309 C 
ENDBRANCH  32  33
ENDBRANCH  30  32
ENDBRANCH   7  27
BRANCH   5  36
HETATM   36  O1  UNL     1      13.407 -15.930  13.526  1.00  0.00    -0.389 OA
ATOM     37  H1  UNL     1      14.168 -15.930  14.095  1.00  0.00     0.210 HD
ENDBRANCH   5  36
BRANCH  16  38
HETATM   38  C27 UNL     1       8.905 -14.078  12.454  1.00  0.00     0.037 C 
BRANCH  38  39
HETATM   39  C28 UNL     1       8.563 -13.332  11.252  1.00  0.00    -0.024 C 
HETATM   40  C29 UNL     1       7.930 -13.848  10.197  1.00  0.00    -0.091 C 
HETATM   41  C30 UNL     1       7.590 -13.075   8.980  1.00  0.00     0.042 C 
HETATM   42  C31 UNL     1       7.547 -15.278  10.254  1.00  0.00     0.042 C 
ENDBRANCH  38  39
ENDBRANCH  16  38
BRANCH  12  43
HETATM   43  C23 UNL     1       9.288 -13.360  17.704  1.00  0.00     0.028 C 
HETATM   44  C24 UNL     1       8.378 -12.390  18.422  1.00  0.00     0.007 C 
ENDBRANCH  12  43
TORSDOF 10
ENDMDL
MODEL 2
REMARK VINA RESULT: -8.378417172      1.368      1.804
REMARK  10 active torsions:
REMARK  status: ('A' for Active; 'I' for Inactive)
REMARK    1  A    between atoms: C5_5  and  O1_6 
REMARK    2  A    between atoms: C7_9  and  C8_10 
REMARK       I    between atoms: C8_10  and  N1_12 
REMARK    3  A    between atoms: C9_14  and  C10_15 
REMARK    4  A    between atoms: C10_15  and  N2_16 
REMARK    5  A    between atoms: C13_19  and  C14_20 
REMARK       I    between atoms: C14_20  and  N3_22 
REMARK    6  A    between atoms: N3_22  and  C15_24 
REMARK    7  A    between atoms: C15_24  and  C16_25 
REMARK    8  A    between atoms: C22_33  and  C23_34 
REMARK    9  A    between atoms: C26_39  and  C27_40 
REMARK   10  A    between atoms: C27_40  and  C28_41 
ROOT
HETATM    1  C1  UNL     1      12.243 -18.700  10.717  1.00  0.00     0.036 C 
HETATM    2  C2  UNL     1      11.445 -17.445  10.748  1.00  0.00    -0.028 C 
HETATM    3  C3  UNL     1      11.156 -16.896  11.929  1.00  0.00    -0.075 C 
HETATM    4  C4  UNL     1      11.592 -17.476  13.216  1.00  0.00     0.072 C 
HETATM    5  C5  UNL     1      12.482 -16.422  13.844  1.00  0.00     0.068 C 
HETATM    6  C6  UNL     1      12.769 -16.706  15.288  1.00  0.00     0.053 C 
HETATM    7  C7  UNL     1      13.191 -15.355  15.757  1.00  0.00     0.094 C 
HETATM    8  C13 UNL     1      12.360 -14.336  14.945  1.00  0.00     0.099 C 
HETATM    9  C19 UNL     1      11.908 -15.033  13.739  1.00  0.00     0.053 C 
HETATM   10  C20 UNL     1      10.447 -15.033  13.380  1.00  0.00     0.065 C 
HETATM   11  C21 UNL     1       9.513 -15.528  14.410  1.00  0.00     0.053 C 
HETATM   12  C22 UNL     1       8.799 -14.335  15.028  1.00  0.00     0.133 C 
HETATM   13  O6  UNL     1       9.518 -13.244  14.559  1.00  0.00    -0.315 OA
HETATM   14  C25 UNL     1      10.025 -13.611  13.295  1.00  0.00     0.269 C 
HETATM   15  O7  UNL     1      10.119 -12.904  12.274  1.00  0.00    -0.264 OA
HETATM   16  C26 UNL     1      10.352 -15.627  12.011  1.00  0.00     0.036 C 
ENDROOT
BRANCH   8  17
HETATM   17  C14 UNL     1      13.302 -13.218  14.656  1.00  0.00     0.224 C 
HETATM   18  O3  UNL     1      12.773 -12.124  14.248  1.00  0.00    -0.273 OA
HETATM   19  N3  UNL     1      14.706 -13.269  14.798  1.00  0.00    -0.342 N 
ATOM     20  H3  UNL     1      15.142 -14.134  15.119  1.00  0.00     0.163 HD
BRANCH  19  21
HETATM   21  C15 UNL     1      15.535 -12.134  14.503  1.00  0.00     0.121 A 
HETATM   22  C17 UNL     1      16.941 -12.517  14.094  1.00  0.00     0.045 A 
HETATM   23  C18 UNL     1      16.027 -11.874  13.122  1.00  0.00     0.045 A 
BRANCH  21  24
HETATM   24  C16 UNL     1      15.369 -10.974  15.416  1.00  0.00     0.202 C 
HETATM   25  O4  UNL     1      15.140 -11.208  16.639  1.00  0.00    -0.646 OA
HETATM   26  O5  UNL     1      15.450  -9.673  14.992  1.00  0.00    -0.646 OA
ENDBRANCH  21  24
ENDBRANCH  19  21
ENDBRANCH   8  17
BRANCH   7  27
HETATM   27  C8  UNL     1      13.072 -15.110  17.192  1.00  0.00     0.226 C 
HETATM   28  O2  UNL     1      12.337 -14.199  17.646  1.00  0.00    -0.273 OA
HETATM   29  N1  UNL     1      13.786 -15.897  18.129  1.00  0.00    -0.339 N 
HETATM   30  C9  UNL     1      14.988 -16.315  17.960  1.00  0.00     0.093 C 
ATOM     31  H1  UNL     1      13.313 -16.148  18.998  1.00  0.00     0.167 HD
BRANCH  30  32
HETATM   32  C10 UNL     1      15.587 -17.130  19.042  1.00  0.00     0.315 C 
BRANCH  32  33
HETATM   33  N2  UNL     1      16.918 -17.602  18.726  1.00  0.00     0.084 N 
HETATM   34  C11 UNL     1      17.802 -17.503  19.858  1.00  0.00     0.309 C 
HETATM   35  C12 UNL     1      17.456 -16.921  17.575  1.00  0.00     0.309 C 
ENDBRANCH  32  33
ENDBRANCH  30  32
ENDBRANCH   7  27
BRANCH   5  36
HETATM   36  O1  UNL     1      13.699 -16.473  13.165  1.00  0.00    -0.389 OA
ATOM     37  H1  UNL     1      14.117 -17.288  13.419  1.00  0.00     0.210 HD
ENDBRANCH   5  36
BRANCH  16  38
HETATM   38  C27 UNL     1       9.047 -15.976  11.445  1.00  0.00     0.037 C 
BRANCH  38  39
HETATM   39  C28 UNL     1       8.556 -15.286  10.262  1.00  0.00    -0.024 C 
HETATM   40  C29 UNL     1       7.543 -14.419  10.259  1.00  0.00    -0.091 C 
HETATM   41  C30 UNL     1       7.054 -13.725   9.045  1.00  0.00     0.042 C 
HETATM   42  C31 UNL     1       6.871 -14.138  11.550  1.00  0.00     0.042 C 
ENDBRANCH  38  39
ENDBRANCH  16  38
BRANCH  12  43
HETATM   43  C23 UNL     1       8.633 -14.435  16.513  1.00  0.00     0.028 C 
HETATM   44  C24 UNL     1       8.772 -13.080  17.169  1.00  0.00     0.007 C 
ENDBRANCH  12  43
TORSDOF 10
ENDMDL
MODEL 3
REMARK VINA RESULT: -8.229647132      5.272      9.727
REMARK  10 active torsions:
REMARK  status: ('A' for Active; 'I' for Inactive)
REMARK    1  A    between atoms: C5_5  and  O1_6 
REMARK    2  A    between atoms: C7_9  and  C8_10 
REMARK       I    between atoms: C8_10  and  N1_12 
REMARK    3  A    between atoms: C9_14  and  C10_15 
REMARK    4  A    between atoms: C10_15  and  N2_16 
REMARK    5  A    between atoms: C13_19  and  C14_20 
REMARK       I    between atoms: C14_20  and  N3_22 
REMARK    6  A    between atoms: N3_22  and  C15_24 
REMARK    7  A    between atoms: C15_24  and  C16_25 
REMARK    8  A    between atoms: C22_33  and  C23_34 
REMARK    9  A    between atoms: C26_39  and  C27_40 
REMARK   10  A    between atoms: C27_40  and  C28_41 
ROOT
HETATM    1  C1  UNL     1      13.473 -18.058  12.364  1.00  0.00     0.036 C 
HETATM    2  C2  UNL     1      12.566 -17.159  13.128  1.00  0.00    -0.028 C 
HETATM    3  C3  UNL     1      11.509 -16.634  12.506  1.00  0.00    -0.075 C 
HETATM    4  C4  UNL     1      11.191 -16.902  11.089  1.00  0.00     0.072 C 
HETATM    5  C5  UNL     1       9.836 -17.582  11.109  1.00  0.00     0.068 C 
HETATM    6  C6  UNL     1       9.215 -17.652   9.746  1.00  0.00     0.053 C 
HETATM    7  C7  UNL     1       7.784 -17.872  10.106  1.00  0.00     0.094 C 
HETATM    8  C13 UNL     1       7.546 -17.100  11.423  1.00  0.00     0.099 C 
HETATM    9  C19 UNL     1       8.860 -16.914  12.042  1.00  0.00     0.053 C 
HETATM   10  C20 UNL     1       9.301 -15.537  12.457  1.00  0.00     0.065 C 
HETATM   11  C21 UNL     1       9.285 -14.494  11.414  1.00  0.00     0.053 C 
HETATM   12  C22 UNL     1       8.086 -13.587  11.657  1.00  0.00     0.133 C 
HETATM   13  O6  UNL     1       7.342 -14.274  12.606  1.00  0.00    -0.315 OA
HETATM   14  C25 UNL     1       8.262 -15.012  13.380  1.00  0.00     0.269 C 
HETATM   15  O7  UNL     1       8.241 -15.210  14.609  1.00  0.00    -0.264 OA
HETATM   16  C26 UNL     1      10.563 -15.719  13.238  1.00  0.00     0.036 C 
ENDROOT
BRANCH   8  17
HETATM   17  C14 UNL     1       6.642 -17.975  12.221  1.00  0.00     0.224 C 
HETATM   18  O3  UNL     1       6.934 -19.224  12.238  1.00  0.00    -0.273 OA
HETATM   19  N3  UNL     1       5.512 -17.544  12.949  1.00  0.00    -0.342 N 
ATOM     20  H3  UNL     1       5.265 -16.554  12.943  1.00  0.00     0.163 HD
BRANCH  19  21
HETATM   21  C15 UNL     1       4.702 -18.463  13.698  1.00  0.00     0.121 A 
HETATM   22  C17 UNL     1       3.223 -18.150  13.620  1.00  0.00     0.045 A 
HETATM   23  C18 UNL     1       3.758 -19.392  13.019  1.00  0.00     0.045 A 
BRANCH  21  24
HETATM   24  C16 UNL     1       5.258 -18.868  15.015  1.00  0.00     0.202 C 
HETATM   25  O4  UNL     1       5.834 -17.985  15.715  1.00  0.00    -0.646 OA
HETATM   26  O5  UNL     1       5.174 -20.149  15.498  1.00  0.00    -0.646 OA
ENDBRANCH  21  24
ENDBRANCH  19  21
ENDBRANCH   8  17
BRANCH   7  27
HETATM   27  C8  UNL     1       6.804 -17.498   9.089  1.00  0.00     0.226 C 
HETATM   28  O2  UNL     1       6.111 -16.457   9.194  1.00  0.00    -0.273 OA
HETATM   29  N1  UNL     1       6.600 -18.303   7.940  1.00  0.00    -0.339 N 
HETATM   30  C9  UNL     1       6.607 -19.586   7.943  1.00  0.00     0.093 C 
ATOM     31  H1  UNL     1       6.436 -17.830   7.051  1.00  0.00     0.167 HD
BRANCH  30  32
HETATM   32  C10 UNL     1       6.377 -20.273   6.650  1.00  0.00     0.315 C 
BRANCH  32  33
HETATM   33  N2  UNL     1       7.183 -19.740   5.574  1.00  0.00     0.084 N 
HETATM   34  C11 UNL     1       6.375 -19.334   4.453  1.00  0.00     0.309 C 
HETATM   35  C12 UNL     1       8.208 -20.671   5.175  1.00  0.00     0.309 C 
ENDBRANCH  32  33
ENDBRANCH  30  32
ENDBRANCH   7  27
BRANCH   5  36
HETATM   36  O1  UNL     1      10.056 -18.893  11.529  1.00  0.00    -0.389 OA
ATOM     37  H1  UNL     1       9.933 -19.447  10.767  1.00  0.00     0.210 HD
ENDBRANCH   5  36
BRANCH  16  38
HETATM   38  C27 UNL     1      11.379 -14.560  13.608  1.00  0.00     0.037 C 
BRANCH  38  39
HETATM   39  C28 UNL     1      11.510 -14.177  15.005  1.00  0.00    -0.024 C 
HETATM   40  C29 UNL     1      11.026 -13.049  15.527  1.00  0.00    -0.091 C 
HETATM   41  C30 UNL     1      11.168 -12.672  16.953  1.00  0.00     0.042 C 
HETATM   42  C31 UNL     1      10.304 -12.124  14.623  1.00  0.00     0.042 C 
ENDBRANCH  38  39
ENDBRANCH  16  38
BRANCH  12  43
HETATM   43  C23 UNL     1       7.367 -13.189  10.406  1.00  0.00     0.028 C 
HETATM   44  C24 UNL     1       8.152 -13.588   9.177  1.00  0.00     0.007 C 
ENDBRANCH  12  43
TORSDOF 10
ENDMDL
MODEL 4
REMARK VINA RESULT: -8.149194803      2.278      6.017
REMARK  10 active torsions:
REMARK  status: ('A' for Active; 'I' for Inactive)
REMARK    1  A    between atoms: C5_5  and  O1_6 
REMARK    2  A    between atoms: C7_9  and  C8_10 
REMARK       I    between atoms: C8_10  and  N1_12 
REMARK    3  A    between atoms: C9_14  and  C10_15 
REMARK    4  A    between atoms: C10_15  and  N2_16 
REMARK    5  A    between atoms: C13_19  and  C14_20 
REMARK       I    between atoms: C14_20  and  N3_22 
REMARK    6  A    between atoms: N3_22  and  C15_24 
REMARK    7  A    between atoms: C15_24  and  C16_25 
REMARK    8  A    between atoms: C22_33  and  C23_34 
REMARK    9  A    between atoms: C26_39  and  C27_40 
REMARK   10  A    between atoms: C27_40  and  C28_41 
ROOT
HETATM    1  C1  UNL     1       8.750 -12.492  15.973  1.00  0.00     0.036 C 
HETATM    2  C2  UNL     1       8.629 -13.952  15.719  1.00  0.00    -0.028 C 
HETATM    3  C3  UNL     1       9.596 -14.568  15.036  1.00  0.00    -0.075 C 
HETATM    4  C4  UNL     1      10.788 -13.867  14.516  1.00  0.00     0.072 C 
HETATM    5  C5  UNL     1      11.966 -14.518  15.213  1.00  0.00     0.068 C 
HETATM    6  C6  UNL     1      13.276 -14.147  14.585  1.00  0.00     0.053 C 
HETATM    7  C7  UNL     1      14.146 -15.247  15.091  1.00  0.00     0.094 C 
HETATM    8  C13 UNL     1      13.248 -16.501  15.184  1.00  0.00     0.099 C 
HETATM    9  C19 UNL     1      11.866 -16.021  15.250  1.00  0.00     0.053 C 
HETATM   10  C20 UNL     1      10.842 -16.560  14.288  1.00  0.00     0.065 C 
HETATM   11  C21 UNL     1      11.158 -16.442  12.852  1.00  0.00     0.053 C 
HETATM   12  C22 UNL     1      11.564 -17.815  12.333  1.00  0.00     0.133 C 
HETATM   13  O6  UNL     1      11.735 -18.564  13.489  1.00  0.00    -0.315 OA
HETATM   14  C25 UNL     1      10.841 -18.038  14.445  1.00  0.00     0.269 C 
HETATM   15  O7  UNL     1      10.160 -18.660  15.280  1.00  0.00    -0.264 OA
HETATM   16  C26 UNL     1       9.518 -16.044  14.754  1.00  0.00     0.036 C 
ENDROOT
BRANCH   8  17
HETATM   17  C14 UNL     1      13.687 -17.194  16.429  1.00  0.00     0.224 C 
HETATM   18  O3  UNL     1      13.871 -18.459  16.337  1.00  0.00    -0.273 OA
HETATM   19  N3  UNL     1      13.915 -16.575  17.676  1.00  0.00    -0.342 N 
ATOM     20  H3  UNL     1      13.770 -15.569  17.766  1.00  0.00     0.163 HD
BRANCH  19  21
HETATM   21  C15 UNL     1      14.346 -17.325  18.823  1.00  0.00     0.121 A 
HETATM   22  C17 UNL     1      13.745 -16.826  20.119  1.00  0.00     0.045 A 
HETATM   23  C18 UNL     1      13.395 -18.167  19.598  1.00  0.00     0.045 A 
BRANCH  21  24
HETATM   24  C16 UNL     1      15.782 -17.708  18.824  1.00  0.00     0.202 C 
HETATM   25  O4  UNL     1      16.616 -16.891  18.335  1.00  0.00    -0.646 OA
HETATM   26  O5  UNL     1      16.236 -18.899  19.329  1.00  0.00    -0.646 OA
ENDBRANCH  21  24
ENDBRANCH  19  21
ENDBRANCH   8  17
BRANCH   7  27
HETATM   27  C8  UNL     1      15.352 -15.517  14.311  1.00  0.00     0.226 C 
HETATM   28  O2  UNL     1      15.797 -16.683  14.170  1.00  0.00    -0.273 OA
HETATM   29  N1  UNL     1      16.067 -14.467  13.685  1.00  0.00    -0.339 N 
HETATM   30  C9  UNL     1      16.255 -13.307  14.201  1.00  0.00     0.093 C 
ATOM     31  H1  UNL     1      16.460 -14.645  12.760  1.00  0.00     0.167 HD
BRANCH  30  32
HETATM   32  C10 UNL     1      17.027 -12.322  13.408  1.00  0.00     0.315 C 
BRANCH  32  33
HETATM   33  N2  UNL     1      16.311 -11.085  13.189  1.00  0.00     0.084 N 
HETATM   34  C11 UNL     1      16.927 -10.286  12.162  1.00  0.00     0.309 C 
HETATM   35  C12 UNL     1      16.160 -10.342  14.416  1.00  0.00     0.309 C 
ENDBRANCH  32  33
ENDBRANCH  30  32
ENDBRANCH   7  27
BRANCH   5  36
HETATM   36  O1  UNL     1      11.980 -14.023  16.517  1.00  0.00    -0.389 OA
ATOM     37  H1  UNL     1      11.372 -14.556  17.016  1.00  0.00     0.210 HD
ENDBRANCH   5  36
BRANCH  16  38
HETATM   38  C27 UNL     1       8.327 -16.201  13.917  1.00  0.00     0.037 C 
BRANCH  38  39
HETATM   39  C28 UNL     1       8.426 -16.056  12.473  1.00  0.00    -0.024 C 
HETATM   40  C29 UNL     1       7.882 -15.058  11.775  1.00  0.00    -0.091 C 
HETATM   41  C30 UNL     1       7.991 -14.924  10.304  1.00  0.00     0.042 C 
HETATM   42  C31 UNL     1       7.127 -14.025  12.521  1.00  0.00     0.042 C 
ENDBRANCH  38  39
ENDBRANCH  16  38
BRANCH  12  43
HETATM   43  C23 UNL     1      12.721 -17.781  11.384  1.00  0.00     0.028 C 
HETATM   44  C24 UNL     1      13.470 -19.095  11.390  1.00  0.00     0.007 C 
ENDBRANCH  12  43
TORSDOF 10
ENDMDL
MODEL 5
REMARK VINA RESULT: -8.068708603      2.647      6.514
REMARK  10 active torsions:
REMARK  status: ('A' for Active; 'I' for Inactive)
REMARK    1  A    between atoms: C5_5  and  O1_6 
REMARK    2  A    between atoms: C7_9  and  C8_10 
REMARK       I    between atoms: C8_10  and  N1_12 
REMARK    3  A    between atoms: C9_14  and  C10_15 
REMARK    4  A    between atoms: C10_15  and  N2_16 
REMARK    5  A    between atoms: C13_19  and  C14_20 
REMARK       I    between atoms: C14_20  and  N3_22 
REMARK    6  A    between atoms: N3_22  and  C15_24 
REMARK    7  A    between atoms: C15_24  and  C16_25 
REMARK    8  A    between atoms: C22_33  and  C23_34 
REMARK    9  A    between atoms: C26_39  and  C27_40 
REMARK   10  A    between atoms: C27_40  and  C28_41 
ROOT
HETATM    1  C1  UNL     1       8.658 -12.711  15.907  1.00  0.00     0.036 C 
HETATM    2  C2  UNL     1       8.701 -14.195  15.811  1.00  0.00    -0.028 C 
HETATM    3  C3  UNL     1       9.706 -14.767  15.146  1.00  0.00    -0.075 C 
HETATM    4  C4  UNL     1      10.785 -13.996  14.496  1.00  0.00     0.072 C 
HETATM    5  C5  UNL     1      12.058 -14.430  15.195  1.00  0.00     0.068 C 
HETATM    6  C6  UNL     1      13.289 -13.983  14.465  1.00  0.00     0.053 C 
HETATM    7  C7  UNL     1      14.303 -14.917  15.036  1.00  0.00     0.094 C 
HETATM    8  C13 UNL     1      13.564 -16.247  15.304  1.00  0.00     0.099 C 
HETATM    9  C19 UNL     1      12.138 -15.922  15.391  1.00  0.00     0.053 C 
HETATM   10  C20 UNL     1      11.148 -16.674  14.544  1.00  0.00     0.065 C 
HETATM   11  C21 UNL     1      11.391 -16.678  13.089  1.00  0.00     0.053 C 
HETATM   12  C22 UNL     1      11.937 -18.043  12.694  1.00  0.00     0.133 C 
HETATM   13  O6  UNL     1      12.239 -18.639  13.910  1.00  0.00    -0.315 OA
HETATM   14  C25 UNL     1      11.328 -18.117  14.852  1.00  0.00     0.269 C 
HETATM   15  O7  UNL     1      10.759 -18.719  15.781  1.00  0.00    -0.264 OA
HETATM   16  C26 UNL     1       9.792 -16.265  15.022  1.00  0.00     0.036 C 
ENDROOT
BRANCH   8  17
HETATM   17  C14 UNL     1      14.130 -16.746  16.589  1.00  0.00     0.224 C 
HETATM   18  O3  UNL     1      13.638 -16.238  17.659  1.00  0.00    -0.273 OA
HETATM   19  N3  UNL     1      15.144 -17.719  16.716  1.00  0.00    -0.342 N 
ATOM     20  H3  UNL     1      15.547 -18.131  15.875  1.00  0.00     0.163 HD
BRANCH  19  21
HETATM   21  C15 UNL     1      15.622 -18.146  18.002  1.00  0.00     0.121 A 
HETATM   22  C17 UNL     1      17.102 -18.466  18.008  1.00  0.00     0.045 A 
HETATM   23  C18 UNL     1      16.581 -17.318  18.784  1.00  0.00     0.045 A 
BRANCH  21  24
HETATM   24  C16 UNL     1      14.712 -19.053  18.747  1.00  0.00     0.202 C 
HETATM   25  O4  UNL     1      14.444 -18.769  19.951  1.00  0.00    -0.646 OA
HETATM   26  O5  UNL     1      14.155 -20.175  18.189  1.00  0.00    -0.646 OA
ENDBRANCH  21  24
ENDBRANCH  19  21
ENDBRANCH   8  17
BRANCH   7  27
HETATM   27  C8  UNL     1      15.501 -15.131  14.227  1.00  0.00     0.226 C 
HETATM   28  O2  UNL     1      16.002 -16.273  14.083  1.00  0.00    -0.273 OA
HETATM   29  N1  UNL     1      16.145 -14.050  13.575  1.00  0.00    -0.339 N 
HETATM   30  C9  UNL     1      16.286 -12.878  14.078  1.00  0.00     0.093 C 
ATOM     31  H1  UNL     1      16.522 -14.216  12.641  1.00  0.00     0.167 HD
BRANCH  30  32
HETATM   32  C10 UNL     1      16.985 -11.861  13.257  1.00  0.00     0.315 C 
BRANCH  32  33
HETATM   33  N2  UNL     1      16.542 -10.511  13.530  1.00  0.00     0.084 N 
HETATM   34  C11 UNL     1      15.245 -10.491  14.155  1.00  0.00     0.309 C 
HETATM   35  C12 UNL     1      16.567  -9.701  12.338  1.00  0.00     0.309 C 
ENDBRANCH  32  33
ENDBRANCH  30  32
ENDBRANCH   7  27
BRANCH   5  36
HETATM   36  O1  UNL     1      12.064 -13.798  16.439  1.00  0.00    -0.389 OA
ATOM     37  H1  UNL     1      12.892 -14.019  16.850  1.00  0.00     0.210 HD
ENDBRANCH   5  36
BRANCH  16  38
HETATM   38  C27 UNL     1       8.596 -16.645  14.268  1.00  0.00     0.037 C 
BRANCH  38  39
HETATM   39  C28 UNL     1       7.616 -17.545  14.858  1.00  0.00    -0.024 C 
HETATM   40  C29 UNL     1       7.399 -18.796  14.451  1.00  0.00    -0.091 C 
HETATM   41  C30 UNL     1       6.397 -19.700  15.062  1.00  0.00     0.042 C 
HETATM   42  C31 UNL     1       8.211 -19.305  13.321  1.00  0.00     0.042 C 
ENDBRANCH  38  39
ENDBRANCH  16  38
BRANCH  12  43
HETATM   43  C23 UNL     1      13.043 -17.982  11.688  1.00  0.00     0.028 C 
HETATM   44  C24 UNL     1      13.503 -19.368  11.298  1.00  0.00     0.007 C 
ENDBRANCH  12  43
TORSDOF 10
ENDMDL
