MODEL 1
REMARK VINA RESULT: -8.276892734      0.000      0.000
REMARK  11 active torsions:
REMARK  status: ('A' for Active; 'I' for Inactive)
REMARK    1  A    between atoms: C2_2  and  C3_3 
REMARK    2  A    between atoms: C6_8  and  C7_9 
REMARK    3  A    between atoms: C8_12  and  O3_13 
REMARK    4  A    between atoms: C9_15  and  C10_16 
REMARK    5  A    between atoms: C10_16  and  C11_17 
REMARK    6  A    between atoms: C11_17  and  C12_18 
REMARK    7  A    between atoms: C12_18  and  C13_19 
REMARK    8  A    between atoms: C13_19  and  C14_20 
REMARK    9  A    between atoms: C14_20  and  C15_21 
REMARK   10  A    between atoms: C22_34  and  C23_35 
REMARK   11  A    between atoms: C23_35  and  C25_37 
ROOT
HETATM    1  C3  UNL     1      14.845 -12.141  14.793  1.00  0.00    -0.039 C 
HETATM    2  C4  UNL     1      15.388 -12.661  13.429  1.00  0.00     0.050 C 
HETATM    3  C5  UNL     1      14.239 -13.039  15.516  1.00  0.00     0.033 C 
HETATM    4  N1  UNL     1      14.038 -14.336  15.114  1.00  0.00    -0.350 N 
ATOM      5  H1  UNL     1      14.982 -14.721  15.153  1.00  0.00     0.166 HD
HETATM    6  C6  UNL     1      13.375 -15.314  14.730  1.00  0.00     0.145 C 
HETATM    7  C8  UNL     1      11.970 -15.542  14.465  1.00  0.00     0.122 C 
HETATM    8  C9  UNL     1      10.936 -15.216  13.517  1.00  0.00     0.050 C 
HETATM    9  N2  UNL     1       9.558 -15.248  14.066  1.00  0.00    -0.322 N 
HETATM   10  C17 UNL     1       8.567 -15.945  13.184  1.00  0.00     0.159 C 
HETATM   11  C18 UNL     1       9.060 -14.747  15.258  1.00  0.00     0.246 C 
HETATM   12  O5  UNL     1       8.503 -15.607  16.044  1.00  0.00    -0.271 OA
HETATM   13  C19 UNL     1       9.047 -13.369  15.810  1.00  0.00     0.173 C 
HETATM   14  C20 UNL     1       7.930 -12.513  15.149  1.00  0.00     0.042 C 
HETATM   15  N3  UNL     1       8.700 -13.331  17.218  1.00  0.00    -0.346 N 
ATOM     16  H3  UNL     1       7.925 -13.925  17.513  1.00  0.00     0.163 HD
HETATM   17  C21 UNL     1       9.321 -12.562  18.222  1.00  0.00     0.241 C 
HETATM   18  O6  UNL     1       8.550 -11.798  18.885  1.00  0.00    -0.271 OA
HETATM   19  C22 UNL     1      10.753 -12.542  18.589  1.00  0.00     0.180 C 
HETATM   20  N4  UNL     1      11.579 -11.646  17.858  1.00  0.00    -0.346 N 
ATOM     21  H4  UNL     1      11.428 -10.660  18.069  1.00  0.00     0.163 HD
HETATM   22  C27 UNL     1      12.573 -11.897  16.887  1.00  0.00     0.232 C 
HETATM   23  O7  UNL     1      12.306 -11.313  15.766  1.00  0.00    -0.272 OA
HETATM   24  C28 UNL     1      13.787 -12.662  16.927  1.00  0.00     0.076 C 
HETATM   25  C29 UNL     1      13.631 -13.993  17.697  1.00  0.00     0.032 C 
HETATM   26  C30 UNL     1      14.814 -11.933  17.728  1.00  0.00     0.032 C 
ENDROOT
BRANCH   8  27
HETATM   27  C10 UNL     1      11.071 -14.279  12.395  1.00  0.00     0.060 C 
BRANCH  27  28
HETATM   28  C11 UNL     1      11.012 -14.734  11.004  1.00  0.00     0.006 C 
BRANCH  28  29
HETATM   29  C12 UNL     1       9.771 -14.650  10.227  1.00  0.00     0.001 C 
BRANCH  29  30
HETATM   30  C13 UNL     1       8.794 -13.579  10.441  1.00  0.00     0.007 C 
BRANCH  30  31
HETATM   31  C14 UNL     1       7.459 -13.597   9.819  1.00  0.00     0.077 C 
BRANCH  31  32
HETATM   32  C15 UNL     1       6.457 -14.458  10.489  1.00  0.00     0.123 C 
HETATM   33  C16 UNL     1       5.622 -13.890  11.572  1.00  0.00     0.091 C 
HETATM   34  O4  UNL     1       6.312 -15.606  10.167  1.00  0.00    -0.298 OA
ENDBRANCH  31  32
ENDBRANCH  30  31
ENDBRANCH  29  30
ENDBRANCH  28  29
ENDBRANCH  27  28
ENDBRANCH   8  27
BRANCH   7  35
HETATM   35  O3  UNL     1      11.438 -16.336  15.435  1.00  0.00    -0.356 OA
ATOM     36  H3  UNL     1      10.540 -16.081  15.606  1.00  0.00     0.218 HD
ENDBRANCH   7  35
BRANCH   6  37
HETATM   37  C7  UNL     1      14.223 -16.550  14.522  1.00  0.00     0.229 C 
HETATM   38  O1  UNL     1      13.865 -17.628  15.066  1.00  0.00    -0.643 OA
HETATM   39  O2  UNL     1      15.364 -16.611  13.779  1.00  0.00    -0.643 OA
ENDBRANCH   6  37
BRANCH   1  40
HETATM   40  C2  UNL     1      15.133 -10.757  15.051  1.00  0.00    -0.002 C 
HETATM   41  C1  UNL     1      15.055  -9.886  14.044  1.00  0.00     0.012 C 
ENDBRANCH   1  40
BRANCH  19  42
HETATM   42  C23 UNL     1      10.931 -12.178  20.069  1.00  0.00     0.013 C 
HETATM   43  C24 UNL     1      11.735 -13.163  20.845  1.00  0.00     0.012 C 
BRANCH  42  44
HETATM   44  C25 UNL     1      11.441 -10.758  20.203  1.00  0.00     0.002 C 
HETATM   45  C26 UNL     1      12.408 -10.658  21.362  1.00  0.00     0.005 C 
ENDBRANCH  42  44
ENDBRANCH  19  42
TORSDOF 11
ENDMDL
MODEL 2
REMARK VINA RESULT: -7.770137056      2.654      7.330
REMARK  11 active torsions:
REMARK  status: ('A' for Active; 'I' for Inactive)
REMARK    1  A    between atoms: C2_2  and  C3_3 
REMARK    2  A    between atoms: C6_8  and  C7_9 
REMARK    3  A    between atoms: C8_12  and  O3_13 
REMARK    4  A    between atoms: C9_15  and  C10_16 
REMARK    5  A    between atoms: C10_16  and  C11_17 
REMARK    6  A    between atoms: C11_17  and  C12_18 
REMARK    7  A    between atoms: C12_18  and  C13_19 
REMARK    8  A    between atoms: C13_19  and  C14_20 
REMARK    9  A    between atoms: C14_20  and  C15_21 
REMARK   10  A    between atoms: C22_34  and  C23_35 
REMARK   11  A    between atoms: C23_35  and  C25_37 
ROOT
HETATM    1  C3  UNL     1      13.660 -15.732  17.543  1.00  0.00    -0.039 C 
HETATM    2  C4  UNL     1      13.179 -14.409  18.207  1.00  0.00     0.050 C 
HETATM    3  C5  UNL     1      13.810 -15.669  16.250  1.00  0.00     0.033 C 
HETATM    4  N1  UNL     1      13.530 -14.554  15.501  1.00  0.00    -0.350 N 
ATOM      5  H1  UNL     1      14.281 -13.919  15.773  1.00  0.00     0.166 HD
HETATM    6  C6  UNL     1      12.892 -13.867  14.685  1.00  0.00     0.145 C 
HETATM    7  C8  UNL     1      11.720 -14.097  13.868  1.00  0.00     0.122 C 
HETATM    8  C9  UNL     1      10.290 -14.242  13.967  1.00  0.00     0.050 C 
HETATM    9  N2  UNL     1       9.670 -15.039  12.880  1.00  0.00    -0.322 N 
HETATM   10  C17 UNL     1       8.426 -14.428  12.310  1.00  0.00     0.159 C 
HETATM   11  C18 UNL     1      10.069 -16.240  12.315  1.00  0.00     0.246 C 
HETATM   12  O5  UNL     1      10.294 -16.220  11.044  1.00  0.00    -0.271 OA
HETATM   13  C19 UNL     1      10.288 -17.578  12.917  1.00  0.00     0.173 C 
HETATM   14  C20 UNL     1       8.938 -18.308  13.165  1.00  0.00     0.042 C 
HETATM   15  N3  UNL     1      10.993 -18.485  12.031  1.00  0.00    -0.346 N 
ATOM     16  H3  UNL     1      10.697 -18.491  11.055  1.00  0.00     0.163 HD
HETATM   17  C21 UNL     1      12.045 -19.357  12.375  1.00  0.00     0.241 C 
HETATM   18  O6  UNL     1      11.857 -20.583  12.092  1.00  0.00    -0.271 OA
HETATM   19  C22 UNL     1      13.330 -19.014  13.021  1.00  0.00     0.180 C 
HETATM   20  N4  UNL     1      13.333 -18.986  14.442  1.00  0.00    -0.346 N 
ATOM     21  H4  UNL     1      13.262 -19.902  14.886  1.00  0.00     0.163 HD
HETATM   22  C27 UNL     1      13.418 -17.900  15.340  1.00  0.00     0.232 C 
HETATM   23  O7  UNL     1      12.397 -17.852  16.132  1.00  0.00    -0.272 OA
HETATM   24  C28 UNL     1      14.405 -16.874  15.521  1.00  0.00     0.076 C 
HETATM   25  C29 UNL     1      14.959 -16.335  14.182  1.00  0.00     0.032 C 
HETATM   26  C30 UNL     1      15.616 -17.452  16.173  1.00  0.00     0.032 C 
ENDROOT
BRANCH   8  27
HETATM   27  C10 UNL     1       9.523 -14.304  15.217  1.00  0.00     0.060 C 
BRANCH  27  28
HETATM   28  C11 UNL     1       8.686 -13.188  15.661  1.00  0.00     0.006 C 
BRANCH  28  29
HETATM   29  C12 UNL     1       8.685 -12.746  17.059  1.00  0.00     0.001 C 
BRANCH  29  30
HETATM   30  C13 UNL     1       9.882 -12.833  17.901  1.00  0.00     0.007 C 
BRANCH  30  31
HETATM   31  C14 UNL     1       9.974 -12.163  19.209  1.00  0.00     0.077 C 
BRANCH  31  32
HETATM   32  C15 UNL     1      11.315 -11.643  19.564  1.00  0.00     0.123 C 
HETATM   33  C16 UNL     1      11.910 -12.008  20.870  1.00  0.00     0.091 C 
HETATM   34  O4  UNL     1      11.923 -10.931  18.812  1.00  0.00    -0.298 OA
ENDBRANCH  31  32
ENDBRANCH  30  31
ENDBRANCH  29  30
ENDBRANCH  28  29
ENDBRANCH  27  28
ENDBRANCH   8  27
BRANCH   7  35
HETATM   35  O3  UNL     1      12.081 -14.214  12.561  1.00  0.00    -0.356 OA
ATOM     36  H3  UNL     1      11.306 -14.240  12.012  1.00  0.00     0.218 HD
ENDBRANCH   7  35
BRANCH   6  37
HETATM   37  C7  UNL     1      13.496 -12.495  14.478  1.00  0.00     0.229 C 
HETATM   38  O1  UNL     1      14.397 -12.356  13.608  1.00  0.00    -0.643 OA
HETATM   39  O2  UNL     1      13.148 -11.365  15.156  1.00  0.00    -0.643 OA
ENDBRANCH   6  37
BRANCH   1  40
HETATM   40  C2  UNL     1      13.896 -16.805  18.469  1.00  0.00    -0.002 C 
HETATM   41  C1  UNL     1      13.642 -16.603  19.764  1.00  0.00     0.012 C 
ENDBRANCH   1  40
BRANCH  19  42
HETATM   42  C23 UNL     1      14.428 -20.002  12.609  1.00  0.00     0.013 C 
HETATM   43  C24 UNL     1      14.771 -19.961  11.160  1.00  0.00     0.012 C 
BRANCH  42  44
HETATM   44  C25 UNL     1      15.636 -19.851  13.510  1.00  0.00     0.002 C 
HETATM   45  C26 UNL     1      15.995 -21.182  14.132  1.00  0.00     0.005 C 
ENDBRANCH  42  44
ENDBRANCH  19  42
TORSDOF 11
ENDMDL
MODEL 3
REMARK VINA RESULT: -7.729248063      1.468      2.290
REMARK  11 active torsions:
REMARK  status: ('A' for Active; 'I' for Inactive)
REMARK    1  A    between atoms: C2_2  and  C3_3 
REMARK    2  A    between atoms: C6_8  and  C7_9 
REMARK    3  A    between atoms: C8_12  and  O3_13 
REMARK    4  A    between atoms: C9_15  and  C10_16 
REMARK    5  A    between atoms: C10_16  and  C11_17 
REMARK    6  A    between atoms: C11_17  and  C12_18 
REMARK    7  A    between atoms: C12_18  and  C13_19 
REMARK    8  A    between atoms: C13_19  and  C14_20 
REMARK    9  A    between atoms: C14_20  and  C15_21 
REMARK   10  A    between atoms: C22_34  and  C23_35 
REMARK   11  A    between atoms: C23_35  and  C25_37 
ROOT
HETATM    1  C3  UNL     1      14.876 -12.092  14.816  1.00  0.00    -0.039 C 
HETATM    2  C4  UNL     1      15.435 -12.591  13.451  1.00  0.00     0.050 C 
HETATM    3  C5  UNL     1      14.268 -13.004  15.521  1.00  0.00     0.033 C 
HETATM    4  N1  UNL     1      14.080 -14.296  15.100  1.00  0.00    -0.350 N 
ATOM      5  H1  UNL     1      15.026 -14.676  15.143  1.00  0.00     0.166 HD
HETATM    6  C6  UNL     1      13.426 -15.273  14.696  1.00  0.00     0.145 C 
HETATM    7  C8  UNL     1      12.025 -15.506  14.416  1.00  0.00     0.122 C 
HETATM    8  C9  UNL     1      10.998 -15.173  13.462  1.00  0.00     0.050 C 
HETATM    9  N2  UNL     1       9.615 -15.222  13.997  1.00  0.00    -0.322 N 
HETATM   10  C17 UNL     1       8.637 -15.912  13.096  1.00  0.00     0.159 C 
HETATM   11  C18 UNL     1       9.103 -14.739  15.191  1.00  0.00     0.246 C 
HETATM   12  O5  UNL     1       8.544 -15.613  15.960  1.00  0.00    -0.271 OA
HETATM   13  C19 UNL     1       9.076 -13.370  15.761  1.00  0.00     0.173 C 
HETATM   14  C20 UNL     1       7.960 -12.511  15.101  1.00  0.00     0.042 C 
HETATM   15  N3  UNL     1       8.716 -13.353  17.166  1.00  0.00    -0.346 N 
ATOM     16  H3  UNL     1       7.941 -13.955  17.446  1.00  0.00     0.163 HD
HETATM   17  C21 UNL     1       9.323 -12.593  18.186  1.00  0.00     0.241 C 
HETATM   18  O6  UNL     1       8.541 -11.842  18.852  1.00  0.00    -0.271 OA
HETATM   19  C22 UNL     1      10.751 -12.570  18.568  1.00  0.00     0.180 C 
HETATM   20  N4  UNL     1      11.578 -11.659  17.856  1.00  0.00    -0.346 N 
ATOM     21  H4  UNL     1      11.420 -10.676  18.079  1.00  0.00     0.163 HD
HETATM   22  C27 UNL     1      12.583 -11.891  16.892  1.00  0.00     0.232 C 
HETATM   23  O7  UNL     1      12.323 -11.293  15.776  1.00  0.00    -0.272 OA
HETATM   24  C28 UNL     1      13.802 -12.649  16.933  1.00  0.00     0.076 C 
HETATM   25  C29 UNL     1      13.646 -13.991  17.683  1.00  0.00     0.032 C 
HETATM   26  C30 UNL     1      14.816 -11.924  17.753  1.00  0.00     0.032 C 
ENDROOT
BRANCH   8  27
HETATM   27  C10 UNL     1      11.138 -14.221  12.353  1.00  0.00     0.060 C 
BRANCH  27  28
HETATM   28  C11 UNL     1      10.685 -14.547  10.999  1.00  0.00     0.006 C 
BRANCH  28  29
HETATM   29  C12 UNL     1      11.298 -15.637  10.233  1.00  0.00     0.001 C 
BRANCH  29  30
HETATM   30  C13 UNL     1      10.631 -16.929  10.054  1.00  0.00     0.007 C 
BRANCH  30  31
HETATM   31  C14 UNL     1      11.333 -18.210  10.246  1.00  0.00     0.077 C 
BRANCH  31  32
HETATM   32  C15 UNL     1      11.972 -18.393  11.570  1.00  0.00     0.123 C 
HETATM   33  C16 UNL     1      11.136 -18.773  12.731  1.00  0.00     0.091 C 
HETATM   34  O4  UNL     1      13.154 -18.236  11.714  1.00  0.00    -0.298 OA
ENDBRANCH  31  32
ENDBRANCH  30  31
ENDBRANCH  29  30
ENDBRANCH  28  29
ENDBRANCH  27  28
ENDBRANCH   8  27
BRANCH   7  35
HETATM   35  O3  UNL     1      11.489 -16.316  15.369  1.00  0.00    -0.356 OA
ATOM     36  H3  UNL     1      10.712 -16.745  15.031  1.00  0.00     0.218 HD
ENDBRANCH   7  35
BRANCH   6  37
HETATM   37  C7  UNL     1      14.283 -16.501  14.480  1.00  0.00     0.229 C 
HETATM   38  O1  UNL     1      13.884 -17.606  14.935  1.00  0.00    -0.643 OA
HETATM   39  O2  UNL     1      15.475 -16.528  13.818  1.00  0.00    -0.643 OA
ENDBRANCH   6  37
BRANCH   1  40
HETATM   40  C2  UNL     1      15.153 -10.710  15.095  1.00  0.00    -0.002 C 
HETATM   41  C1  UNL     1      16.126 -10.100  14.417  1.00  0.00     0.012 C 
ENDBRANCH   1  40
BRANCH  19  42
HETATM   42  C23 UNL     1      10.913 -12.224  20.053  1.00  0.00     0.013 C 
HETATM   43  C24 UNL     1      11.746 -13.195  20.817  1.00  0.00     0.012 C 
BRANCH  42  44
HETATM   44  C25 UNL     1      11.377 -10.791  20.213  1.00  0.00     0.002 C 
HETATM   45  C26 UNL     1      12.392 -10.692  21.331  1.00  0.00     0.005 C 
ENDBRANCH  42  44
ENDBRANCH  19  42
TORSDOF 11
ENDMDL
MODEL 4
REMARK VINA RESULT: -7.681808295      2.783      6.093
REMARK  11 active torsions:
REMARK  status: ('A' for Active; 'I' for Inactive)
REMARK    1  A    between atoms: C2_2  and  C3_3 
REMARK    2  A    between atoms: C6_8  and  C7_9 
REMARK    3  A    between atoms: C8_12  and  O3_13 
REMARK    4  A    between atoms: C9_15  and  C10_16 
REMARK    5  A    between atoms: C10_16  and  C11_17 
REMARK    6  A    between atoms: C11_17  and  C12_18 
REMARK    7  A    between atoms: C12_18  and  C13_19 
REMARK    8  A    between atoms: C13_19  and  C14_20 
REMARK    9  A    between atoms: C14_20  and  C15_21 
REMARK   10  A    between atoms: C22_34  and  C23_35 
REMARK   11  A    between atoms: C23_35  and  C25_37 
ROOT
HETATM    1  C3  UNL     1       9.732 -14.020  15.882  1.00  0.00    -0.039 C 
HETATM    2  C4  UNL     1       8.438 -14.866  15.696  1.00  0.00     0.050 C 
HETATM    3  C5  UNL     1      10.629 -14.187  14.953  1.00  0.00     0.033 C 
HETATM    4  N1  UNL     1      10.492 -15.064  13.906  1.00  0.00    -0.350 N 
ATOM      5  H1  UNL     1       9.770 -14.613  13.342  1.00  0.00     0.166 HD
HETATM    6  C6  UNL     1      10.736 -16.087  13.245  1.00  0.00     0.145 C 
HETATM    7  C8  UNL     1      11.655 -17.195  13.399  1.00  0.00     0.122 C 
HETATM    8  C9  UNL     1      11.874 -18.373  14.199  1.00  0.00     0.050 C 
HETATM    9  N2  UNL     1      13.290 -18.810  14.285  1.00  0.00    -0.322 N 
HETATM   10  C17 UNL     1      13.484 -20.284  14.103  1.00  0.00     0.159 C 
HETATM   11  C18 UNL     1      14.441 -18.068  14.496  1.00  0.00     0.246 C 
HETATM   12  O5  UNL     1      15.340 -18.146  13.573  1.00  0.00    -0.271 OA
HETATM   13  C19 UNL     1      14.841 -17.182  15.617  1.00  0.00     0.173 C 
HETATM   14  C20 UNL     1      15.322 -18.011  16.841  1.00  0.00     0.042 C 
HETATM   15  N3  UNL     1      15.996 -16.363  15.301  1.00  0.00    -0.346 N 
ATOM     16  H3  UNL     1      16.766 -16.826  14.817  1.00  0.00     0.163 HD
HETATM   17  C21 UNL     1      16.168 -14.994  15.590  1.00  0.00     0.241 C 
HETATM   18  O6  UNL     1      17.208 -14.700  16.261  1.00  0.00    -0.271 OA
HETATM   19  C22 UNL     1      15.285 -13.872  15.205  1.00  0.00     0.180 C 
HETATM   20  N4  UNL     1      14.212 -13.582  16.091  1.00  0.00    -0.346 N 
ATOM     21  H4  UNL     1      14.493 -13.164  16.977  1.00  0.00     0.163 HD
HETATM   22  C27 UNL     1      12.822 -13.779  15.945  1.00  0.00     0.232 C 
HETATM   23  O7  UNL     1      12.344 -14.532  16.880  1.00  0.00    -0.272 OA
HETATM   24  C28 UNL     1      11.878 -13.305  14.972  1.00  0.00     0.076 C 
HETATM   25  C29 UNL     1      12.442 -13.326  13.533  1.00  0.00     0.032 C 
HETATM   26  C30 UNL     1      11.606 -11.856  15.202  1.00  0.00     0.032 C 
ENDROOT
BRANCH   8  27
HETATM   27  C10 UNL     1      11.094 -18.760  15.380  1.00  0.00     0.060 C 
BRANCH  27  28
HETATM   28  C11 UNL     1       9.947 -19.666  15.280  1.00  0.00     0.006 C 
BRANCH  28  29
HETATM   29  C12 UNL     1       9.360 -20.010  13.980  1.00  0.00     0.001 C 
BRANCH  29  30
HETATM   30  C13 UNL     1       8.258 -19.239  13.399  1.00  0.00     0.007 C 
BRANCH  30  31
HETATM   31  C14 UNL     1       7.587 -18.151  14.131  1.00  0.00     0.077 C 
BRANCH  31  32
HETATM   32  C15 UNL     1       6.391 -18.549  14.909  1.00  0.00     0.123 C 
HETATM   33  C16 UNL     1       5.674 -19.793  14.547  1.00  0.00     0.091 C 
HETATM   34  O4  UNL     1       5.997 -17.880  15.825  1.00  0.00    -0.298 OA
ENDBRANCH  31  32
ENDBRANCH  30  31
ENDBRANCH  29  30
ENDBRANCH  28  29
ENDBRANCH  27  28
ENDBRANCH   8  27
BRANCH   7  35
HETATM   35  O3  UNL     1      12.652 -17.102  12.477  1.00  0.00    -0.356 OA
ATOM     36  H3  UNL     1      13.303 -17.776  12.634  1.00  0.00     0.218 HD
ENDBRANCH   7  35
BRANCH   6  37
HETATM   37  C7  UNL     1       9.907 -16.180  11.982  1.00  0.00     0.229 C 
HETATM   38  O1  UNL     1       9.020 -15.309  11.776  1.00  0.00    -0.643 OA
HETATM   39  O2  UNL     1      10.033 -17.137  11.020  1.00  0.00    -0.643 OA
ENDBRANCH   6  37
BRANCH   1  40
HETATM   40  C2  UNL     1       9.715 -13.164  17.036  1.00  0.00    -0.002 C 
HETATM   41  C1  UNL     1       8.548 -12.915  17.633  1.00  0.00     0.012 C 
ENDBRANCH   1  40
BRANCH  19  42
HETATM   42  C23 UNL     1      16.087 -12.572  15.065  1.00  0.00     0.013 C 
HETATM   43  C24 UNL     1      16.689 -12.371  13.717  1.00  0.00     0.012 C 
BRANCH  42  44
HETATM   44  C25 UNL     1      15.260 -11.391  15.526  1.00  0.00     0.002 C 
HETATM   45  C26 UNL     1      14.963 -10.473  14.360  1.00  0.00     0.005 C 
ENDBRANCH  42  44
ENDBRANCH  19  42
TORSDOF 11
ENDMDL
MODEL 5
REMARK VINA RESULT: -7.578821272      2.742      5.939
REMARK  11 active torsions:
REMARK  status: ('A' for Active; 'I' for Inactive)
REMARK    1  A    between atoms: C2_2  and  C3_3 
REMARK    2  A    between atoms: C6_8  and  C7_9 
REMARK    3  A    between atoms: C8_12  and  O3_13 
REMARK    4  A    between atoms: C9_15  and  C10_16 
REMARK    5  A    between atoms: C10_16  and  C11_17 
REMARK    6  A    between atoms: C11_17  and  C12_18 
REMARK    7  A    between atoms: C12_18  and  C13_19 
REMARK    8  A    between atoms: C13_19  and  C14_20 
REMARK    9  A    between atoms: C14_20  and  C15_21 
REMARK   10  A    between atoms: C22_34  and  C23_35 
REMARK   11  A    between atoms: C23_35  and  C25_37 
ROOT
HETATM    1  C3  UNL     1       9.748 -13.975  15.895  1.00  0.00    -0.039 C 
HETATM    2  C4  UNL     1       8.453 -14.820  15.719  1.00  0.00     0.050 C 
HETATM    3  C5  UNL     1      10.642 -14.148  14.963  1.00  0.00     0.033 C 
HETATM    4  N1  UNL     1      10.500 -15.031  13.922  1.00  0.00    -0.350 N 
ATOM      5  H1  UNL     1       9.777 -14.584  13.359  1.00  0.00     0.166 HD
HETATM    6  C6  UNL     1      10.740 -16.060  13.267  1.00  0.00     0.145 C 
HETATM    7  C8  UNL     1      11.659 -17.167  13.424  1.00  0.00     0.122 C 
HETATM    8  C9  UNL     1      11.880 -18.341  14.230  1.00  0.00     0.050 C 
HETATM    9  N2  UNL     1      13.295 -18.778  14.314  1.00  0.00    -0.322 N 
HETATM   10  C17 UNL     1      13.487 -20.254  14.140  1.00  0.00     0.159 C 
HETATM   11  C18 UNL     1      14.448 -18.036  14.516  1.00  0.00     0.246 C 
HETATM   12  O5  UNL     1      15.344 -18.121  13.590  1.00  0.00    -0.271 OA
HETATM   13  C19 UNL     1      14.853 -17.144  15.630  1.00  0.00     0.173 C 
HETATM   14  C20 UNL     1      15.338 -17.966  16.857  1.00  0.00     0.042 C 
HETATM   15  N3  UNL     1      16.008 -16.328  15.304  1.00  0.00    -0.346 N 
ATOM     16  H3  UNL     1      16.775 -16.795  14.821  1.00  0.00     0.163 HD
HETATM   17  C21 UNL     1      16.182 -14.958  15.584  1.00  0.00     0.241 C 
HETATM   18  O6  UNL     1      17.225 -14.661  16.249  1.00  0.00    -0.271 OA
HETATM   19  C22 UNL     1      15.299 -13.837  15.196  1.00  0.00     0.180 C 
HETATM   20  N4  UNL     1      14.230 -13.541  16.084  1.00  0.00    -0.346 N 
ATOM     21  H4  UNL     1      14.514 -13.117  16.967  1.00  0.00     0.163 HD
HETATM   22  C27 UNL     1      12.839 -13.737  15.945  1.00  0.00     0.232 C 
HETATM   23  O7  UNL     1      12.363 -14.484  16.886  1.00  0.00    -0.272 OA
HETATM   24  C28 UNL     1      11.892 -13.268  14.973  1.00  0.00     0.076 C 
HETATM   25  C29 UNL     1      12.450 -13.299  13.532  1.00  0.00     0.032 C 
HETATM   26  C30 UNL     1      11.622 -11.817  15.195  1.00  0.00     0.032 C 
ENDROOT
BRANCH   8  27
HETATM   27  C10 UNL     1      11.103 -18.719  15.417  1.00  0.00     0.060 C 
BRANCH  27  28
HETATM   28  C11 UNL     1       9.980 -19.655  15.333  1.00  0.00     0.006 C 
BRANCH  28  29
HETATM   29  C12 UNL     1       8.850 -19.408  14.431  1.00  0.00     0.001 C 
BRANCH  29  30
HETATM   30  C13 UNL     1       7.925 -18.290  14.633  1.00  0.00     0.007 C 
BRANCH  30  31
HETATM   31  C14 UNL     1       6.571 -18.275  14.052  1.00  0.00     0.077 C 
BRANCH  31  32
HETATM   32  C15 UNL     1       6.472 -17.713  12.686  1.00  0.00     0.123 C 
HETATM   33  C16 UNL     1       6.552 -18.624  11.521  1.00  0.00     0.091 C 
HETATM   34  O4  UNL     1       6.327 -16.533  12.509  1.00  0.00    -0.298 OA
ENDBRANCH  31  32
ENDBRANCH  30  31
ENDBRANCH  29  30
ENDBRANCH  28  29
ENDBRANCH  27  28
ENDBRANCH   8  27
BRANCH   7  35
HETATM   35  O3  UNL     1      12.653 -17.081  12.497  1.00  0.00    -0.356 OA
ATOM     36  H3  UNL     1      12.466 -16.377  11.887  1.00  0.00     0.218 HD
ENDBRANCH   7  35
BRANCH   6  37
HETATM   37  C7  UNL     1       9.906 -16.159  12.008  1.00  0.00     0.229 C 
HETATM   38  O1  UNL     1       9.825 -17.271  11.422  1.00  0.00    -0.643 OA
HETATM   39  O2  UNL     1       9.213 -15.134  11.435  1.00  0.00    -0.643 OA
ENDBRANCH   6  37
BRANCH   1  40
HETATM   40  C2  UNL     1       9.736 -13.112  17.043  1.00  0.00    -0.002 C 
HETATM   41  C1  UNL     1       8.582 -12.905  17.679  1.00  0.00     0.012 C 
ENDBRANCH   1  40
BRANCH  19  42
HETATM   42  C23 UNL     1      16.102 -12.539  15.044  1.00  0.00     0.013 C 
HETATM   43  C24 UNL     1      16.700 -12.348  13.694  1.00  0.00     0.012 C 
BRANCH  42  44
HETATM   44  C25 UNL     1      15.277 -11.353  15.500  1.00  0.00     0.002 C 
HETATM   45  C26 UNL     1      14.982 -10.441  14.330  1.00  0.00     0.005 C 
ENDBRANCH  42  44
ENDBRANCH  19  42
TORSDOF 11
ENDMDL
