MODEL 1
REMARK VINA RESULT: -8.983532985      0.000      0.000
REMARK  10 active torsions:
REMARK  status: ('A' for Active; 'I' for Inactive)
REMARK    1  A    between atoms: C4_4  and  S1_5 
REMARK    2  A    between atoms: S1_5  and  N1_8 
REMARK    3  A    between atoms: N1_8  and  C6_10 
REMARK    4  A    between atoms: C6_10  and  C7_11 
REMARK       I    between atoms: C7_11  and  N2_13 
REMARK    5  A    between atoms: N2_13  and  C8_14 
REMARK    6  A    between atoms: N2_13  and  C19_30 
REMARK    7  A    between atoms: C8_14  and  C9_15 
REMARK    8  A    between atoms: C13_19  and  C14_20 
REMARK    9  A    between atoms: C22_33  and  O7_34 
REMARK   10  A    between atoms: C27_40  and  N4_41 
ROOT
HETATM    1  C7  UNL     1      12.615 -12.579  16.467  1.00  0.00     0.259 C 
HETATM    2  O3  UNL     1      12.930 -11.655  17.303  1.00  0.00    -0.267 OA
HETATM    3  N2  UNL     1      13.594 -13.588  16.315  1.00  0.00    -0.309 N 
ENDROOT
BRANCH   3   4
HETATM    4  C8  UNL     1      14.980 -13.229  16.557  1.00  0.00     0.176 C 
BRANCH   4   5
HETATM    5  C9  UNL     1      15.767 -12.914  15.326  1.00  0.00     0.029 A 
HETATM    6  C10 UNL     1      15.665 -11.580  14.876  1.00  0.00     0.028 A 
HETATM    7  C11 UNL     1      16.245 -11.249  13.673  1.00  0.00    -0.008 A 
HETATM    8  C12 UNL     1      16.099  -9.937  13.192  1.00  0.00     0.032 A 
HETATM    9  C17 UNL     1      16.911 -12.182  12.924  1.00  0.00     0.045 A 
HETATM   10  C13 UNL     1      16.632  -9.616  11.975  1.00  0.00     0.041 A 
HETATM   11  C15 UNL     1      17.314 -10.592  11.236  1.00  0.00     0.021 A 
HETATM   12  C16 UNL     1      17.466 -11.865  11.680  1.00  0.00     0.031 A 
HETATM   13  N3  UNL     1      16.991 -13.434  13.387  1.00  0.00    -0.322 N 
HETATM   14  C18 UNL     1      16.431 -13.788  14.557  1.00  0.00     0.253 A 
ATOM     15  H3  UNL     1      17.489 -14.136  12.840  1.00  0.00     0.169 HD
HETATM   16  O6  UNL     1      16.574 -14.982  14.870  1.00  0.00    -0.268 OA
BRANCH  10  17
HETATM   17  C14 UNL     1      16.478  -8.283  11.411  1.00  0.00     0.209 C 
HETATM   18  O4  UNL     1      15.383  -7.699  11.463  1.00  0.00    -0.644 OA
HETATM   19  O5  UNL     1      17.550  -7.637  10.812  1.00  0.00    -0.644 OA
ENDBRANCH  10  17
ENDBRANCH   4   5
ENDBRANCH   3   4
BRANCH   3  20
HETATM   20  C19 UNL     1      13.197 -14.858  15.830  1.00  0.00     0.038 A 
HETATM   21  C20 UNL     1      13.012 -15.976  16.607  1.00  0.00     0.032 A 
HETATM   22  C21 UNL     1      12.602 -17.183  16.080  1.00  0.00     0.039 A 
HETATM   23  C22 UNL     1      12.356 -17.340  14.739  1.00  0.00     0.065 A 
HETATM   24  C23 UNL     1      12.531 -16.243  13.934  1.00  0.00     0.039 A 
HETATM   25  C24 UNL     1      12.939 -15.039  14.454  1.00  0.00     0.032 A 
BRANCH  23  26
HETATM   26  O7  UNL     1      11.942 -18.532  14.170  1.00  0.00    -0.361 OA
ATOM     27  H7  UNL     1      11.603 -18.602  13.286  1.00  0.00     0.217 HD
ENDBRANCH  23  26
ENDBRANCH   3  20
BRANCH   1  28
HETATM   28  C6  UNL     1      11.364 -12.579  15.739  1.00  0.00     0.151 C 
BRANCH  28  29
HETATM   29  N1  UNL     1      10.176 -12.233  16.423  1.00  0.00    -0.182 NA
HETATM   30  C5  UNL     1      10.476 -12.503  17.863  1.00  0.00     0.135 C 
BRANCH  29  31
HETATM   31  S1  UNL     1       8.760 -13.084  16.088  1.00  0.00     0.247 S 
HETATM   32  O1  UNL     1       7.658 -12.064  15.799  1.00  0.00    -0.205 OA
HETATM   33  O2  UNL     1       8.263 -13.981  17.174  1.00  0.00    -0.205 OA
BRANCH  31  34
HETATM   34  C4  UNL     1       8.899 -14.085  14.656  1.00  0.00     0.075 A 
HETATM   35  C3  UNL     1       9.055 -13.655  13.388  1.00  0.00     0.033 A 
HETATM   36  C2  UNL     1       9.161 -14.542  12.331  1.00  0.00    -0.034 A 
HETATM   37  C1  UNL     1       9.289 -14.006  10.922  1.00  0.00     0.050 C 
HETATM   38  C27 UNL     1       9.117 -15.886  12.517  1.00  0.00     0.035 A 
HETATM   39  C26 UNL     1       8.961 -16.364  13.809  1.00  0.00     0.031 A 
HETATM   40  C25 UNL     1       8.856 -15.474  14.842  1.00  0.00     0.027 A 
BRANCH  38  41
HETATM   41  N4  UNL     1       9.220 -16.771  11.430  1.00  0.00    -0.389 N 
HETATM   42  C28 UNL     1       8.071 -17.237  10.692  1.00  0.00     0.149 C 
HETATM   43  C29 UNL     1      10.528 -17.236  11.014  1.00  0.00     0.149 C 
ENDBRANCH  38  41
ENDBRANCH  31  34
ENDBRANCH  29  31
ENDBRANCH  28  29
ENDBRANCH   1  28
TORSDOF 10
ENDMDL
MODEL 2
REMARK VINA RESULT: -8.816546033      2.462      6.612
REMARK  10 active torsions:
REMARK  status: ('A' for Active; 'I' for Inactive)
REMARK    1  A    between atoms: C4_4  and  S1_5 
REMARK    2  A    between atoms: S1_5  and  N1_8 
REMARK    3  A    between atoms: N1_8  and  C6_10 
REMARK    4  A    between atoms: C6_10  and  C7_11 
REMARK       I    between atoms: C7_11  and  N2_13 
REMARK    5  A    between atoms: N2_13  and  C8_14 
REMARK    6  A    between atoms: N2_13  and  C19_30 
REMARK    7  A    between atoms: C8_14  and  C9_15 
REMARK    8  A    between atoms: C13_19  and  C14_20 
REMARK    9  A    between atoms: C22_33  and  O7_34 
REMARK   10  A    between atoms: C27_40  and  N4_41 
ROOT
HETATM    1  C7  UNL     1      14.560 -13.174  16.424  1.00  0.00     0.259 C 
HETATM    2  O3  UNL     1      13.982 -13.108  17.570  1.00  0.00    -0.267 OA
HETATM    3  N2  UNL     1      14.305 -12.070  15.576  1.00  0.00    -0.309 N 
ENDROOT
BRANCH   3   4
HETATM    4  C8  UNL     1      13.051 -11.358  15.750  1.00  0.00     0.176 C 
BRANCH   4   5
HETATM    5  C9  UNL     1      11.828 -12.186  15.524  1.00  0.00     0.029 A 
HETATM    6  C10 UNL     1      11.624 -12.602  14.190  1.00  0.00     0.028 A 
HETATM    7  C11 UNL     1      10.449 -13.245  13.878  1.00  0.00    -0.008 A 
HETATM    8  C12 UNL     1      10.214 -13.611  12.542  1.00  0.00     0.032 A 
HETATM    9  C17 UNL     1       9.496 -13.489  14.830  1.00  0.00     0.045 A 
HETATM   10  C13 UNL     1       9.028 -14.208  12.218  1.00  0.00     0.041 A 
HETATM   11  C15 UNL     1       8.076 -14.449  13.218  1.00  0.00     0.021 A 
HETATM   12  C16 UNL     1       8.280 -14.104  14.514  1.00  0.00     0.031 A 
HETATM   13  N3  UNL     1       9.729 -13.086  16.084  1.00  0.00    -0.322 N 
HETATM   14  C18 UNL     1      10.866 -12.450  16.419  1.00  0.00     0.253 A 
ATOM     15  H3  UNL     1       9.029 -13.266  16.804  1.00  0.00     0.169 HD
HETATM   16  O6  UNL     1      10.956 -12.125  17.615  1.00  0.00    -0.268 OA
BRANCH  10  17
HETATM   17  C14 UNL     1       8.716 -14.571  10.844  1.00  0.00     0.209 C 
HETATM   18  O4  UNL     1       8.757 -13.720   9.941  1.00  0.00    -0.644 OA
HETATM   19  O5  UNL     1       8.374 -15.875  10.514  1.00  0.00    -0.644 OA
ENDBRANCH  10  17
ENDBRANCH   4   5
ENDBRANCH   3   4
BRANCH   3  20
HETATM   20  C19 UNL     1      15.221 -11.783  14.535  1.00  0.00     0.038 A 
HETATM   21  C20 UNL     1      16.020 -12.709  13.911  1.00  0.00     0.032 A 
HETATM   22  C21 UNL     1      16.880 -12.372  12.885  1.00  0.00     0.039 A 
HETATM   23  C22 UNL     1      16.990 -11.083  12.429  1.00  0.00     0.065 A 
HETATM   24  C23 UNL     1      16.207 -10.132  13.032  1.00  0.00     0.039 A 
HETATM   25  C24 UNL     1      15.348 -10.462  14.053  1.00  0.00     0.032 A 
BRANCH  23  26
HETATM   26  O7  UNL     1      17.838 -10.702  11.403  1.00  0.00    -0.361 OA
ATOM     27  H7  UNL     1      18.673 -11.120  11.228  1.00  0.00     0.217 HD
ENDBRANCH  23  26
ENDBRANCH   3  20
BRANCH   1  28
HETATM   28  C6  UNL     1      15.396 -14.289  16.035  1.00  0.00     0.151 C 
BRANCH  28  29
HETATM   29  N1  UNL     1      15.665 -15.305  16.982  1.00  0.00    -0.182 NA
HETATM   30  C5  UNL     1      16.971 -15.890  16.548  1.00  0.00     0.135 C 
BRANCH  29  31
HETATM   31  S1  UNL     1      14.604 -16.608  17.108  1.00  0.00     0.247 S 
HETATM   32  O1  UNL     1      13.546 -16.251  18.154  1.00  0.00    -0.205 OA
HETATM   33  O2  UNL     1      15.212 -17.910  17.517  1.00  0.00    -0.205 OA
BRANCH  31  34
HETATM   34  C4  UNL     1      13.741 -16.921  15.615  1.00  0.00     0.075 A 
HETATM   35  C3  UNL     1      14.137 -17.732  14.614  1.00  0.00     0.033 A 
HETATM   36  C2  UNL     1      13.366 -17.908  13.478  1.00  0.00    -0.034 A 
HETATM   37  C1  UNL     1      13.879 -18.794  12.364  1.00  0.00     0.050 C 
HETATM   38  C27 UNL     1      12.175 -17.278  13.316  1.00  0.00     0.035 A 
HETATM   39  C26 UNL     1      11.734 -16.439  14.329  1.00  0.00     0.031 A 
HETATM   40  C25 UNL     1      12.508 -16.274  15.444  1.00  0.00     0.027 A 
BRANCH  38  41
HETATM   41  N4  UNL     1      11.409 -17.466  12.153  1.00  0.00    -0.389 N 
HETATM   42  C28 UNL     1      11.668 -16.751  10.926  1.00  0.00     0.149 C 
HETATM   43  C29 UNL     1      10.318 -18.419  12.166  1.00  0.00     0.149 C 
ENDBRANCH  38  41
ENDBRANCH  31  34
ENDBRANCH  29  31
ENDBRANCH  28  29
ENDBRANCH   1  28
TORSDOF 10
ENDMDL
MODEL 3
REMARK VINA RESULT: -8.805937869      2.494      6.603
REMARK  10 active torsions:
REMARK  status: ('A' for Active; 'I' for Inactive)
REMARK    1  A    between atoms: C4_4  and  S1_5 
REMARK    2  A    between atoms: S1_5  and  N1_8 
REMARK    3  A    between atoms: N1_8  and  C6_10 
REMARK    4  A    between atoms: C6_10  and  C7_11 
REMARK       I    between atoms: C7_11  and  N2_13 
REMARK    5  A    between atoms: N2_13  and  C8_14 
REMARK    6  A    between atoms: N2_13  and  C19_30 
REMARK    7  A    between atoms: C8_14  and  C9_15 
REMARK    8  A    between atoms: C13_19  and  C14_20 
REMARK    9  A    between atoms: C22_33  and  O7_34 
REMARK   10  A    between atoms: C27_40  and  N4_41 
ROOT
HETATM    1  C7  UNL     1      14.604 -13.360  16.547  1.00  0.00     0.259 C 
HETATM    2  O3  UNL     1      14.061 -13.305  17.711  1.00  0.00    -0.267 OA
HETATM    3  N2  UNL     1      14.366 -12.226  15.737  1.00  0.00    -0.309 N 
ENDROOT
BRANCH   3   4
HETATM    4  C8  UNL     1      13.144 -11.474  15.966  1.00  0.00     0.176 C 
BRANCH   4   5
HETATM    5  C9  UNL     1      11.886 -12.234  15.696  1.00  0.00     0.029 A 
HETATM    6  C10 UNL     1      11.708 -12.642  14.356  1.00  0.00     0.028 A 
HETATM    7  C11 UNL     1      10.512 -13.220  14.001  1.00  0.00    -0.008 A 
HETATM    8  C12 UNL     1      10.307 -13.577  12.659  1.00  0.00     0.032 A 
HETATM    9  C17 UNL     1       9.512 -13.406  14.918  1.00  0.00     0.045 A 
HETATM   10  C13 UNL     1       9.102 -14.109  12.292  1.00  0.00     0.041 A 
HETATM   11  C15 UNL     1       8.102 -14.292  13.256  1.00  0.00     0.021 A 
HETATM   12  C16 UNL     1       8.277 -13.954  14.558  1.00  0.00     0.031 A 
HETATM   13  N3  UNL     1       9.721 -13.012  16.179  1.00  0.00    -0.322 N 
HETATM   14  C18 UNL     1      10.878 -12.440  16.555  1.00  0.00     0.253 A 
ATOM     15  H3  UNL     1       8.985 -13.150  16.872  1.00  0.00     0.169 HD
HETATM   16  O6  UNL     1      10.942 -12.116  17.753  1.00  0.00    -0.268 OA
BRANCH  10  17
HETATM   17  C14 UNL     1       8.821 -14.460  10.908  1.00  0.00     0.209 C 
HETATM   18  O4  UNL     1       8.790 -13.583  10.028  1.00  0.00    -0.644 OA
HETATM   19  O5  UNL     1       8.592 -15.778  10.542  1.00  0.00    -0.644 OA
ENDBRANCH  10  17
ENDBRANCH   4   5
ENDBRANCH   3   4
BRANCH   3  20
HETATM   20  C19 UNL     1      15.262 -11.943  14.677  1.00  0.00     0.038 A 
HETATM   21  C20 UNL     1      16.073 -12.866  14.064  1.00  0.00     0.032 A 
HETATM   22  C21 UNL     1      16.912 -12.534  13.019  1.00  0.00     0.039 A 
HETATM   23  C22 UNL     1      16.988 -11.254  12.532  1.00  0.00     0.065 A 
HETATM   24  C23 UNL     1      16.191 -10.306  13.123  1.00  0.00     0.039 A 
HETATM   25  C24 UNL     1      15.354 -10.631  14.163  1.00  0.00     0.032 A 
BRANCH  23  26
HETATM   26  O7  UNL     1      17.814 -10.879  11.486  1.00  0.00    -0.361 OA
ATOM     27  H7  UNL     1      17.866  -9.993  11.149  1.00  0.00     0.217 HD
ENDBRANCH  23  26
ENDBRANCH   3  20
BRANCH   1  28
HETATM   28  C6  UNL     1      15.388 -14.494  16.105  1.00  0.00     0.151 C 
BRANCH  28  29
HETATM   29  N1  UNL     1      15.740 -15.489  17.046  1.00  0.00    -0.182 NA
HETATM   30  C5  UNL     1      17.097 -15.952  16.616  1.00  0.00     0.135 C 
BRANCH  29  31
HETATM   31  S1  UNL     1      14.800 -16.883  17.154  1.00  0.00     0.247 S 
HETATM   32  O1  UNL     1      13.796 -16.684  18.290  1.00  0.00    -0.205 OA
HETATM   33  O2  UNL     1      15.539 -18.152  17.430  1.00  0.00    -0.205 OA
BRANCH  31  34
HETATM   34  C4  UNL     1      13.858 -17.174  15.704  1.00  0.00     0.075 A 
HETATM   35  C3  UNL     1      12.536 -16.963  15.549  1.00  0.00     0.033 A 
HETATM   36  C2  UNL     1      11.897 -17.225  14.350  1.00  0.00    -0.034 A 
HETATM   37  C1  UNL     1      10.403 -17.013  14.244  1.00  0.00     0.050 C 
HETATM   38  C27 UNL     1      12.567 -17.702  13.271  1.00  0.00     0.035 A 
HETATM   39  C26 UNL     1      13.930 -17.927  13.393  1.00  0.00     0.031 A 
HETATM   40  C25 UNL     1      14.546 -17.666  14.585  1.00  0.00     0.027 A 
BRANCH  38  41
HETATM   41  N4  UNL     1      11.900 -17.967  12.063  1.00  0.00    -0.389 N 
HETATM   42  C28 UNL     1      11.767 -16.983  11.015  1.00  0.00     0.149 C 
HETATM   43  C29 UNL     1      11.325 -19.278  11.841  1.00  0.00     0.149 C 
ENDBRANCH  38  41
ENDBRANCH  31  34
ENDBRANCH  29  31
ENDBRANCH  28  29
ENDBRANCH   1  28
TORSDOF 10
ENDMDL
MODEL 4
REMARK VINA RESULT: -8.795078469      2.443      6.598
REMARK  10 active torsions:
REMARK  status: ('A' for Active; 'I' for Inactive)
REMARK    1  A    between atoms: C4_4  and  S1_5 
REMARK    2  A    between atoms: S1_5  and  N1_8 
REMARK    3  A    between atoms: N1_8  and  C6_10 
REMARK    4  A    between atoms: C6_10  and  C7_11 
REMARK       I    between atoms: C7_11  and  N2_13 
REMARK    5  A    between atoms: N2_13  and  C8_14 
REMARK    6  A    between atoms: N2_13  and  C19_30 
REMARK    7  A    between atoms: C8_14  and  C9_15 
REMARK    8  A    between atoms: C13_19  and  C14_20 
REMARK    9  A    between atoms: C22_33  and  O7_34 
REMARK   10  A    between atoms: C27_40  and  N4_41 
ROOT
HETATM    1  C7  UNL     1      14.621 -13.347  16.607  1.00  0.00     0.259 C 
HETATM    2  O3  UNL     1      14.064 -13.288  17.764  1.00  0.00    -0.267 OA
HETATM    3  N2  UNL     1      14.350 -12.239  15.771  1.00  0.00    -0.309 N 
ENDROOT
BRANCH   3   4
HETATM    4  C8  UNL     1      13.100 -11.528  15.972  1.00  0.00     0.176 C 
BRANCH   4   5
HETATM    5  C9  UNL     1      11.875 -12.310  15.622  1.00  0.00     0.029 A 
HETATM    6  C10 UNL     1      11.808 -12.749  14.281  1.00  0.00     0.028 A 
HETATM    7  C11 UNL     1      10.650 -13.350  13.847  1.00  0.00    -0.008 A 
HETATM    8  C12 UNL     1      10.556 -13.738  12.501  1.00  0.00     0.032 A 
HETATM    9  C17 UNL     1       9.584 -13.530  14.687  1.00  0.00     0.045 A 
HETATM   10  C13 UNL     1       9.389 -14.294  12.053  1.00  0.00     0.041 A 
HETATM   11  C15 UNL     1       8.319 -14.470  12.940  1.00  0.00     0.021 A 
HETATM   12  C16 UNL     1       8.387 -14.102  14.243  1.00  0.00     0.031 A 
HETATM   13  N3  UNL     1       9.689 -13.107  15.952  1.00  0.00    -0.322 N 
HETATM   14  C18 UNL     1      10.806 -12.511  16.404  1.00  0.00     0.253 A 
ATOM     15  H3  UNL     1       8.902 -13.240  16.588  1.00  0.00     0.169 HD
HETATM   16  O6  UNL     1      10.772 -12.161  17.595  1.00  0.00    -0.268 OA
BRANCH  10  17
HETATM   17  C14 UNL     1       9.222 -14.678  10.659  1.00  0.00     0.209 C 
HETATM   18  O4  UNL     1       9.767 -15.702  10.216  1.00  0.00    -0.644 OA
HETATM   19  O5  UNL     1       8.445 -13.913   9.800  1.00  0.00    -0.644 OA
ENDBRANCH  10  17
ENDBRANCH   4   5
ENDBRANCH   3   4
BRANCH   3  20
HETATM   20  C19 UNL     1      15.247 -11.945  14.715  1.00  0.00     0.038 A 
HETATM   21  C20 UNL     1      16.005 -12.873  14.044  1.00  0.00     0.032 A 
HETATM   22  C21 UNL     1      16.847 -12.529  13.006  1.00  0.00     0.039 A 
HETATM   23  C22 UNL     1      16.980 -11.230  12.584  1.00  0.00     0.065 A 
HETATM   24  C23 UNL     1      16.237 -10.277  13.233  1.00  0.00     0.039 A 
HETATM   25  C24 UNL     1      15.397 -10.615  14.267  1.00  0.00     0.032 A 
BRANCH  23  26
HETATM   26  O7  UNL     1      17.811 -10.842  11.547  1.00  0.00    -0.361 OA
ATOM     27  H7  UNL     1      17.534 -10.283  10.832  1.00  0.00     0.217 HD
ENDBRANCH  23  26
ENDBRANCH   3  20
BRANCH   1  28
HETATM   28  C6  UNL     1      15.450 -14.460  16.197  1.00  0.00     0.151 C 
BRANCH  28  29
HETATM   29  N1  UNL     1      14.973 -15.777  16.394  1.00  0.00    -0.182 NA
HETATM   30  C5  UNL     1      15.922 -16.379  17.381  1.00  0.00     0.135 C 
BRANCH  29  31
HETATM   31  S1  UNL     1      14.944 -16.841  15.087  1.00  0.00     0.247 S 
HETATM   32  O1  UNL     1      15.761 -18.075  15.470  1.00  0.00    -0.205 OA
HETATM   33  O2  UNL     1      15.503 -16.318  13.804  1.00  0.00    -0.205 OA
BRANCH  31  34
HETATM   34  C4  UNL     1      13.328 -17.409  14.718  1.00  0.00     0.075 A 
HETATM   35  C3  UNL     1      13.002 -18.576  14.127  1.00  0.00     0.033 A 
HETATM   36  C2  UNL     1      11.684 -18.924  13.890  1.00  0.00    -0.034 A 
HETATM   37  C1  UNL     1      11.376 -20.226  13.183  1.00  0.00     0.050 C 
HETATM   38  C27 UNL     1      10.654 -18.112  14.242  1.00  0.00     0.035 A 
HETATM   39  C26 UNL     1      10.952 -16.905  14.856  1.00  0.00     0.031 A 
HETATM   40  C25 UNL     1      12.260 -16.575  15.081  1.00  0.00     0.027 A 
BRANCH  38  41
HETATM   41  N4  UNL     1       9.322 -18.481  13.988  1.00  0.00    -0.389 N 
HETATM   42  C28 UNL     1       8.514 -19.192  14.949  1.00  0.00     0.149 C 
HETATM   43  C29 UNL     1       8.717 -18.130  12.719  1.00  0.00     0.149 C 
ENDBRANCH  38  41
ENDBRANCH  31  34
ENDBRANCH  29  31
ENDBRANCH  28  29
ENDBRANCH   1  28
TORSDOF 10
ENDMDL
MODEL 5
REMARK VINA RESULT: -8.745905124      2.557      6.537
REMARK  10 active torsions:
REMARK  status: ('A' for Active; 'I' for Inactive)
REMARK    1  A    between atoms: C4_4  and  S1_5 
REMARK    2  A    between atoms: S1_5  and  N1_8 
REMARK    3  A    between atoms: N1_8  and  C6_10 
REMARK    4  A    between atoms: C6_10  and  C7_11 
REMARK       I    between atoms: C7_11  and  N2_13 
REMARK    5  A    between atoms: N2_13  and  C8_14 
REMARK    6  A    between atoms: N2_13  and  C19_30 
REMARK    7  A    between atoms: C8_14  and  C9_15 
REMARK    8  A    between atoms: C13_19  and  C14_20 
REMARK    9  A    between atoms: C22_33  and  O7_34 
REMARK   10  A    between atoms: C27_40  and  N4_41 
ROOT
HETATM    1  C7  UNL     1       8.590 -15.533  14.335  1.00  0.00     0.259 C 
HETATM    2  O3  UNL     1       9.251 -15.589  15.437  1.00  0.00    -0.267 OA
HETATM    3  N2  UNL     1       8.282 -14.221  13.904  1.00  0.00    -0.309 N 
ENDROOT
BRANCH   3   4
HETATM    4  C8  UNL     1       8.151 -13.189  14.917  1.00  0.00     0.176 C 
BRANCH   4   5
HETATM    5  C9  UNL     1       9.419 -12.851  15.632  1.00  0.00     0.029 A 
HETATM    6  C10 UNL     1      10.510 -12.528  14.795  1.00  0.00     0.028 A 
HETATM    7  C11 UNL     1      11.745 -12.345  15.372  1.00  0.00    -0.008 A 
HETATM    8  C12 UNL     1      12.845 -12.079  14.540  1.00  0.00     0.032 A 
HETATM    9  C17 UNL     1      11.924 -12.465  16.724  1.00  0.00     0.045 A 
HETATM   10  C13 UNL     1      14.083 -11.944  15.105  1.00  0.00     0.041 A 
HETATM   11  C15 UNL     1      14.231 -12.066  16.493  1.00  0.00     0.021 A 
HETATM   12  C16 UNL     1      13.184 -12.324  17.315  1.00  0.00     0.031 A 
HETATM   13  N3  UNL     1      10.865 -12.766  17.484  1.00  0.00    -0.322 N 
HETATM   14  C18 UNL     1       9.646 -12.956  16.949  1.00  0.00     0.253 A 
ATOM     15  H3  UNL     1      10.985 -12.854  18.493  1.00  0.00     0.169 HD
HETATM   16  O6  UNL     1       8.750 -13.234  17.763  1.00  0.00    -0.268 OA
BRANCH  10  17
HETATM   17  C14 UNL     1      15.264 -11.707  14.287  1.00  0.00     0.209 C 
HETATM   18  O4  UNL     1      15.419 -12.311  13.213  1.00  0.00    -0.644 OA
HETATM   19  O5  UNL     1      16.233 -10.798  14.686  1.00  0.00    -0.644 OA
ENDBRANCH  10  17
ENDBRANCH   4   5
ENDBRANCH   3   4
BRANCH   3  20
HETATM   20  C19 UNL     1       8.009 -13.999  12.532  1.00  0.00     0.038 A 
HETATM   21  C20 UNL     1       6.755 -13.848  11.993  1.00  0.00     0.032 A 
HETATM   22  C21 UNL     1       6.552 -13.612  10.649  1.00  0.00     0.039 A 
HETATM   23  C22 UNL     1       7.598 -13.517   9.766  1.00  0.00     0.065 A 
HETATM   24  C23 UNL     1       8.864 -13.663  10.271  1.00  0.00     0.039 A 
HETATM   25  C24 UNL     1       9.072 -13.898  11.609  1.00  0.00     0.032 A 
BRANCH  23  26
HETATM   26  O7  UNL     1       7.439 -13.280   8.412  1.00  0.00    -0.361 OA
ATOM     27  H7  UNL     1       6.677 -13.555   7.915  1.00  0.00     0.217 HD
ENDBRANCH  23  26
ENDBRANCH   3  20
BRANCH   1  28
HETATM   28  C6  UNL     1       8.192 -16.716  13.603  1.00  0.00     0.151 C 
BRANCH  28  29
HETATM   29  N1  UNL     1       9.157 -17.395  12.824  1.00  0.00    -0.182 NA
HETATM   30  C5  UNL     1       8.365 -18.089  11.762  1.00  0.00     0.135 C 
BRANCH  29  31
HETATM   31  S1  UNL     1      10.096 -18.594  13.545  1.00  0.00     0.247 S 
HETATM   32  O1  UNL     1      10.312 -19.703  12.514  1.00  0.00    -0.205 OA
HETATM   33  O2  UNL     1       9.521 -19.230  14.768  1.00  0.00    -0.205 OA
BRANCH  31  34
HETATM   34  C4  UNL     1      11.689 -18.020  13.998  1.00  0.00     0.075 A 
HETATM   35  C3  UNL     1      11.995 -17.263  15.071  1.00  0.00     0.033 A 
HETATM   36  C2  UNL     1      13.296 -16.873  15.334  1.00  0.00    -0.034 A 
HETATM   37  C1  UNL     1      13.579 -15.986  16.526  1.00  0.00     0.050 C 
HETATM   38  C27 UNL     1      14.329 -17.235  14.530  1.00  0.00     0.035 A 
HETATM   39  C26 UNL     1      14.051 -18.018  13.419  1.00  0.00     0.031 A 
HETATM   40  C25 UNL     1      12.760 -18.393  13.172  1.00  0.00     0.027 A 
BRANCH  38  41
HETATM   41  N4  UNL     1      15.643 -16.824  14.810  1.00  0.00    -0.389 N 
HETATM   42  C28 UNL     1      16.594 -17.668  15.495  1.00  0.00     0.149 C 
HETATM   43  C29 UNL     1      16.081 -15.508  14.393  1.00  0.00     0.149 C 
ENDBRANCH  38  41
ENDBRANCH  31  34
ENDBRANCH  29  31
ENDBRANCH  28  29
ENDBRANCH   1  28
TORSDOF 10
ENDMDL
