MODEL 1
REMARK VINA RESULT: -8.305936659      0.000      0.000
REMARK  13 active torsions:
REMARK  status: ('A' for Active; 'I' for Inactive)
REMARK    1  A    between atoms: N1_2  and  C2_4 
REMARK    2  A    between atoms: C4_6  and  C5_7 
REMARK    3  A    between atoms: C10_12  and  C11_13 
REMARK    4  A    between atoms: C11_13  and  N2_14 
REMARK    5  A    between atoms: N3_17  and  C14_18 
REMARK    6  A    between atoms: C14_18  and  C15_19 
REMARK    7  A    between atoms: C15_19  and  O1_20 
REMARK    8  A    between atoms: C15_19  and  C16_22 
REMARK    9  A    between atoms: C16_22  and  C17_23 
REMARK   10  A    between atoms: C17_23  and  C18_24 
REMARK   11  A    between atoms: C21_27  and  C22_28 
REMARK   12  A    between atoms: C32_44  and  N7_45 
REMARK   13  A    between atoms: N7_45  and  C33_47 
ROOT
HETATM    1  C5  UNL     1       9.500 -16.611  11.938  1.00  0.00     0.060 A 
HETATM    2  C6  UNL     1      10.637 -16.423  11.184  1.00  0.00     0.033 A 
HETATM    3  C7  UNL     1      11.908 -16.742  11.631  1.00  0.00     0.016 A 
HETATM    4  C8  UNL     1      12.057 -17.273  12.890  1.00  0.00    -0.006 A 
HETATM    5  C9  UNL     1      13.281 -17.631  13.405  1.00  0.00     0.040 A 
HETATM    6  C10 UNL     1      13.424 -18.183  14.677  1.00  0.00     0.038 A 
HETATM    7  N4  UNL     1      12.277 -18.345  15.378  1.00  0.00    -0.365 N 
ATOM      8  H4  UNL     1      12.335 -18.744  16.315  1.00  0.00     0.165 HD
HETATM    9  C30 UNL     1      11.071 -18.006  14.905  1.00  0.00     0.118 A 
HETATM   10  C31 UNL     1      10.910 -17.452  13.630  1.00  0.00     0.058 A 
HETATM   11  N5  UNL     1       9.691 -17.134  13.170  1.00  0.00    -0.353 N 
ATOM     12  H5  UNL     1       8.880 -17.293  13.769  1.00  0.00     0.166 HD
ENDROOT
BRANCH   6  13
HETATM   13  C11 UNL     1      14.742 -18.596  15.198  1.00  0.00     0.329 C 
BRANCH  13  14
HETATM   14  N2  UNL     1      15.237 -17.573  16.144  1.00  0.00     0.100 N 
HETATM   15  C12 UNL     1      16.525 -17.156  15.598  1.00  0.00     0.293 C 
HETATM   16  C13 UNL     1      16.244 -15.990  14.640  1.00  0.00     0.157 C 
HETATM   17  N3  UNL     1      15.872 -14.911  15.558  1.00  0.00    -0.368 N 
HETATM   18  C28 UNL     1      14.711 -15.126  16.269  1.00  0.00     0.093 C 
HETATM   19  C29 UNL     1      14.246 -16.564  16.185  1.00  0.00     0.317 C 
BRANCH  17  20
HETATM   20  C14 UNL     1      16.462 -13.697  15.262  1.00  0.00     0.094 C 
BRANCH  20  21
HETATM   21  C15 UNL     1      16.282 -13.173  13.898  1.00  0.00     0.157 C 
BRANCH  21  22
HETATM   22  O1  UNL     1      17.468 -12.566  13.419  1.00  0.00    -0.390 OA
ATOM     23  H1  UNL     1      17.884 -13.099  12.751  1.00  0.00     0.210 HD
ENDBRANCH  21  22
BRANCH  21  24
HETATM   24  C16 UNL     1      15.110 -12.378  13.529  1.00  0.00     0.042 C 
BRANCH  24  25
HETATM   25  C17 UNL     1      14.399 -11.726  14.673  1.00  0.00     0.041 C 
BRANCH  25  26
HETATM   26  C18 UNL     1      12.982 -12.143  14.746  1.00  0.00    -0.058 A 
HETATM   27  C19 UNL     1      12.087 -11.678  15.680  1.00  0.00     0.007 A 
HETATM   28  C20 UNL     1      10.771 -12.116  15.736  1.00  0.00     0.008 A 
HETATM   29  C21 UNL     1      10.289 -13.052  14.848  1.00  0.00    -0.051 A 
HETATM   30  C26 UNL     1      11.168 -13.533  13.902  1.00  0.00     0.008 A 
HETATM   31  C27 UNL     1      12.481 -13.095  13.848  1.00  0.00     0.007 A 
BRANCH  29  32
HETATM   32  C22 UNL     1       8.866 -13.511  14.941  1.00  0.00    -0.024 C 
HETATM   33  C23 UNL     1       8.254 -13.583  13.571  1.00  0.00     0.019 C 
HETATM   34  C24 UNL     1       8.083 -12.488  15.746  1.00  0.00     0.019 C 
HETATM   35  C25 UNL     1       8.749 -14.835  15.663  1.00  0.00     0.019 C 
ENDBRANCH  29  32
ENDBRANCH  25  26
ENDBRANCH  24  25
ENDBRANCH  21  24
ENDBRANCH  20  21
ENDBRANCH  17  20
ENDBRANCH  13  14
ENDBRANCH   6  13
BRANCH   1  36
HETATM   36  C4  UNL     1       8.150 -16.305  11.460  1.00  0.00     0.079 A 
HETATM   37  C3  UNL     1       7.009 -16.792  12.047  1.00  0.00     0.081 A 
HETATM   38  C2  UNL     1       5.740 -16.436  11.561  1.00  0.00     0.118 A 
HETATM   39  N8  UNL     1       5.667 -15.608  10.508  1.00  0.00    -0.177 N 
HETATM   40  C32 UNL     1       6.801 -15.131   9.932  1.00  0.00     0.686 A 
ATOM     41  H8  UNL     1       4.756 -15.336  10.139  1.00  0.00     0.186 HD
HETATM   42  N6  UNL     1       8.013 -15.478  10.406  1.00  0.00    -0.189 N 
ATOM     43  H6  UNL     1       8.850 -15.105   9.955  1.00  0.00     0.184 HD
BRANCH  38  44
HETATM   44  N1  UNL     1       4.687 -16.901  12.129  1.00  0.00    -0.380 N 
HETATM   45  C1  UNL     1       3.357 -16.455  11.859  1.00  0.00     0.147 C 
ATOM     46  H1  UNL     1       4.808 -17.641  12.821  1.00  0.00     0.160 HD
ENDBRANCH  38  44
BRANCH  40  47
HETATM   47  N7  UNL     1       6.655 -14.336   8.924  1.00  0.00    -0.167 N 
ATOM     48  H7  UNL     1       5.922 -14.517   8.239  1.00  0.00     0.186 HD
BRANCH  47  49
HETATM   49  C33 UNL     1       7.514 -13.207   8.763  1.00  0.00     0.368 C 
HETATM   50  O2  UNL     1       7.843 -12.496   9.737  1.00  0.00    -0.283 OA
ENDBRANCH  47  49
ENDBRANCH  40  47
ENDBRANCH   1  36
TORSDOF 13
ENDMDL
MODEL 2
REMARK VINA RESULT: -7.908584723      1.427      2.422
REMARK  13 active torsions:
REMARK  status: ('A' for Active; 'I' for Inactive)
REMARK    1  A    between atoms: N1_2  and  C2_4 
REMARK    2  A    between atoms: C4_6  and  C5_7 
REMARK    3  A    between atoms: C10_12  and  C11_13 
REMARK    4  A    between atoms: C11_13  and  N2_14 
REMARK    5  A    between atoms: N3_17  and  C14_18 
REMARK    6  A    between atoms: C14_18  and  C15_19 
REMARK    7  A    between atoms: C15_19  and  O1_20 
REMARK    8  A    between atoms: C15_19  and  C16_22 
REMARK    9  A    between atoms: C16_22  and  C17_23 
REMARK   10  A    between atoms: C17_23  and  C18_24 
REMARK   11  A    between atoms: C21_27  and  C22_28 
REMARK   12  A    between atoms: C32_44  and  N7_45 
REMARK   13  A    between atoms: N7_45  and  C33_47 
ROOT
HETATM    1  C5  UNL     1       9.707 -16.570  11.942  1.00  0.00     0.060 A 
HETATM    2  C6  UNL     1      10.846 -16.552  11.167  1.00  0.00     0.033 A 
HETATM    3  C7  UNL     1      12.090 -16.946  11.631  1.00  0.00     0.016 A 
HETATM    4  C8  UNL     1      12.208 -17.379  12.930  1.00  0.00    -0.006 A 
HETATM    5  C9  UNL     1      13.402 -17.802  13.466  1.00  0.00     0.040 A 
HETATM    6  C10 UNL     1      13.514 -18.255  14.779  1.00  0.00     0.038 A 
HETATM    7  N4  UNL     1      12.368 -18.251  15.500  1.00  0.00    -0.365 N 
ATOM      8  H4  UNL     1      12.403 -18.573  16.467  1.00  0.00     0.165 HD
HETATM    9  C30 UNL     1      11.190 -17.846  15.007  1.00  0.00     0.118 A 
HETATM   10  C31 UNL     1      11.061 -17.390  13.691  1.00  0.00     0.058 A 
HETATM   11  N5  UNL     1       9.869 -17.002  13.213  1.00  0.00    -0.353 N 
ATOM     12  H5  UNL     1       9.056 -17.035  13.830  1.00  0.00     0.166 HD
ENDROOT
BRANCH   6  13
HETATM   13  C11 UNL     1      14.797 -18.740  15.325  1.00  0.00     0.329 C 
BRANCH  13  14
HETATM   14  N2  UNL     1      15.374 -17.707  16.212  1.00  0.00     0.100 N 
HETATM   15  C12 UNL     1      16.578 -17.256  15.520  1.00  0.00     0.293 C 
HETATM   16  C13 UNL     1      16.158 -16.095  14.609  1.00  0.00     0.157 C 
HETATM   17  N3  UNL     1      15.869 -15.029  15.570  1.00  0.00    -0.368 N 
HETATM   18  C28 UNL     1      14.805 -15.275  16.410  1.00  0.00     0.093 C 
HETATM   19  C29 UNL     1      14.370 -16.723  16.374  1.00  0.00     0.317 C 
BRANCH  17  20
HETATM   20  C14 UNL     1      16.390 -13.800  15.213  1.00  0.00     0.094 C 
BRANCH  20  21
HETATM   21  C15 UNL     1      15.856 -13.167  13.994  1.00  0.00     0.157 C 
BRANCH  21  22
HETATM   22  O1  UNL     1      16.866 -13.003  13.015  1.00  0.00    -0.390 OA
ATOM     23  H1  UNL     1      16.493 -12.824  12.160  1.00  0.00     0.210 HD
ENDBRANCH  21  22
BRANCH  21  24
HETATM   24  C16 UNL     1      15.000 -11.982  14.057  1.00  0.00     0.042 C 
BRANCH  24  25
HETATM   25  C17 UNL     1      14.522 -11.615  15.426  1.00  0.00     0.041 C 
BRANCH  25  26
HETATM   26  C18 UNL     1      13.116 -12.020  15.642  1.00  0.00    -0.058 A 
HETATM   27  C19 UNL     1      12.153 -12.021  14.661  1.00  0.00     0.007 A 
HETATM   28  C20 UNL     1      10.835 -12.378  14.908  1.00  0.00     0.008 A 
HETATM   29  C21 UNL     1      10.419 -12.753  16.166  1.00  0.00    -0.051 A 
HETATM   30  C26 UNL     1      11.366 -12.760  17.167  1.00  0.00     0.008 A 
HETATM   31  C27 UNL     1      12.681 -12.402  16.918  1.00  0.00     0.007 A 
BRANCH  29  32
HETATM   32  C22 UNL     1       8.986 -13.124  16.402  1.00  0.00    -0.024 C 
HETATM   33  C23 UNL     1       8.738 -14.538  15.960  1.00  0.00     0.019 C 
HETATM   34  C24 UNL     1       8.110 -12.213  15.561  1.00  0.00     0.019 C 
HETATM   35  C25 UNL     1       8.586 -12.924  17.847  1.00  0.00     0.019 C 
ENDBRANCH  29  32
ENDBRANCH  25  26
ENDBRANCH  24  25
ENDBRANCH  21  24
ENDBRANCH  20  21
ENDBRANCH  17  20
ENDBRANCH  13  14
ENDBRANCH   6  13
BRANCH   1  36
HETATM   36  C4  UNL     1       8.384 -16.185  11.449  1.00  0.00     0.079 A 
HETATM   37  C3  UNL     1       8.188 -15.315  10.406  1.00  0.00     0.081 A 
HETATM   38  C2  UNL     1       6.893 -15.009   9.956  1.00  0.00     0.118 A 
HETATM   39  N8  UNL     1       5.849 -15.588  10.569  1.00  0.00    -0.177 N 
HETATM   40  C32 UNL     1       6.052 -16.448  11.601  1.00  0.00     0.686 A 
ATOM     41  H8  UNL     1       4.900 -15.381  10.259  1.00  0.00     0.186 HD
HETATM   42  N6  UNL     1       7.298 -16.735  12.024  1.00  0.00    -0.189 N 
ATOM     43  H6  UNL     1       7.422 -17.385  12.801  1.00  0.00     0.184 HD
BRANCH  38  44
HETATM   44  N1  UNL     1       6.734 -14.194   8.977  1.00  0.00    -0.380 N 
HETATM   45  C1  UNL     1       7.584 -13.077   8.707  1.00  0.00     0.147 C 
ATOM     46  H1  UNL     1       5.947 -14.354   8.349  1.00  0.00     0.160 HD
ENDBRANCH  38  44
BRANCH  40  47
HETATM   47  N7  UNL     1       5.001 -16.970  12.141  1.00  0.00    -0.167 N 
ATOM     48  H7  UNL     1       4.087 -16.547  11.984  1.00  0.00     0.186 HD
BRANCH  47  49
HETATM   49  C33 UNL     1       5.111 -18.136  12.958  1.00  0.00     0.368 C 
HETATM   50  O2  UNL     1       5.570 -18.076  14.120  1.00  0.00    -0.283 OA
ENDBRANCH  47  49
ENDBRANCH  40  47
ENDBRANCH   1  36
TORSDOF 13
ENDMDL
MODEL 3
REMARK VINA RESULT: -7.832367323      2.100      3.057
REMARK  13 active torsions:
REMARK  status: ('A' for Active; 'I' for Inactive)
REMARK    1  A    between atoms: N1_2  and  C2_4 
REMARK    2  A    between atoms: C4_6  and  C5_7 
REMARK    3  A    between atoms: C10_12  and  C11_13 
REMARK    4  A    between atoms: C11_13  and  N2_14 
REMARK    5  A    between atoms: N3_17  and  C14_18 
REMARK    6  A    between atoms: C14_18  and  C15_19 
REMARK    7  A    between atoms: C15_19  and  O1_20 
REMARK    8  A    between atoms: C15_19  and  C16_22 
REMARK    9  A    between atoms: C16_22  and  C17_23 
REMARK   10  A    between atoms: C17_23  and  C18_24 
REMARK   11  A    between atoms: C21_27  and  C22_28 
REMARK   12  A    between atoms: C32_44  and  N7_45 
REMARK   13  A    between atoms: N7_45  and  C33_47 
ROOT
HETATM    1  C5  UNL     1       6.994 -16.855  11.352  1.00  0.00     0.060 A 
HETATM    2  C6  UNL     1       7.903 -15.988  10.785  1.00  0.00     0.033 A 
HETATM    3  C7  UNL     1       9.264 -16.042  11.034  1.00  0.00     0.016 A 
HETATM    4  C8  UNL     1       9.746 -17.005  11.888  1.00  0.00    -0.006 A 
HETATM    5  C9  UNL     1      11.085 -17.138  12.177  1.00  0.00     0.040 A 
HETATM    6  C10 UNL     1      11.570 -18.126  13.032  1.00  0.00     0.038 A 
HETATM    7  N4  UNL     1      10.638 -18.950  13.564  1.00  0.00    -0.365 N 
ATOM      8  H4  UNL     1      10.948 -19.688  14.197  1.00  0.00     0.165 HD
HETATM    9  C30 UNL     1       9.328 -18.847  13.302  1.00  0.00     0.118 A 
HETATM   10  C31 UNL     1       8.825 -17.862  12.446  1.00  0.00     0.058 A 
HETATM   11  N5  UNL     1       7.511 -17.786  12.185  1.00  0.00    -0.353 N 
ATOM     12  H5  UNL     1       6.880 -18.452  12.632  1.00  0.00     0.166 HD
ENDROOT
BRANCH   6  13
HETATM   13  C11 UNL     1      13.014 -18.276  13.301  1.00  0.00     0.329 C 
BRANCH  13  14
HETATM   14  N2  UNL     1      13.271 -18.052  14.740  1.00  0.00     0.100 N 
HETATM   15  C12 UNL     1      14.671 -17.645  14.807  1.00  0.00     0.293 C 
HETATM   16  C13 UNL     1      14.696 -16.117  14.667  1.00  0.00     0.157 C 
HETATM   17  N3  UNL     1      14.127 -15.675  15.942  1.00  0.00    -0.368 N 
HETATM   18  C28 UNL     1      12.811 -16.030  16.147  1.00  0.00     0.093 C 
HETATM   19  C29 UNL     1      12.339 -17.072  15.156  1.00  0.00     0.317 C 
BRANCH  17  20
HETATM   20  C14 UNL     1      14.815 -14.629  16.528  1.00  0.00     0.094 C 
BRANCH  20  21
HETATM   21  C15 UNL     1      15.549 -13.718  15.634  1.00  0.00     0.157 C 
BRANCH  21  22
HETATM   22  O1  UNL     1      16.949 -13.845  15.807  1.00  0.00    -0.390 OA
ATOM     23  H1  UNL     1      17.330 -14.411  15.146  1.00  0.00     0.210 HD
ENDBRANCH  21  22
BRANCH  21  24
HETATM   24  C16 UNL     1      15.172 -12.311  15.493  1.00  0.00     0.042 C 
BRANCH  24  25
HETATM   25  C17 UNL     1      14.376 -11.987  14.268  1.00  0.00     0.041 C 
BRANCH  25  26
HETATM   26  C18 UNL     1      12.951 -12.350  14.430  1.00  0.00    -0.058 A 
HETATM   27  C19 UNL     1      12.108 -11.777  15.353  1.00  0.00     0.007 A 
HETATM   28  C20 UNL     1      10.784 -12.166  15.497  1.00  0.00     0.008 A 
HETATM   29  C21 UNL     1      10.239 -13.158  14.712  1.00  0.00    -0.051 A 
HETATM   30  C26 UNL     1      11.065 -13.747  13.779  1.00  0.00     0.008 A 
HETATM   31  C27 UNL     1      12.387 -13.358  13.638  1.00  0.00     0.007 A 
BRANCH  29  32
HETATM   32  C22 UNL     1       8.808 -13.561  14.899  1.00  0.00    -0.024 C 
HETATM   33  C23 UNL     1       8.116 -13.645  13.568  1.00  0.00     0.019 C 
HETATM   34  C24 UNL     1       8.111 -12.490  15.718  1.00  0.00     0.019 C 
HETATM   35  C25 UNL     1       8.686 -14.861  15.661  1.00  0.00     0.019 C 
ENDBRANCH  29  32
ENDBRANCH  25  26
ENDBRANCH  24  25
ENDBRANCH  21  24
ENDBRANCH  20  21
ENDBRANCH  17  20
ENDBRANCH  13  14
ENDBRANCH   6  13
BRANCH   1  36
HETATM   36  C4  UNL     1       5.558 -16.824  11.069  1.00  0.00     0.079 A 
HETATM   37  C3  UNL     1       5.003 -17.304   9.910  1.00  0.00     0.081 A 
HETATM   38  C2  UNL     1       3.613 -17.275   9.710  1.00  0.00     0.118 A 
HETATM   39  N8  UNL     1       2.838 -16.767  10.679  1.00  0.00    -0.177 N 
HETATM   40  C32 UNL     1       3.395 -16.293  11.824  1.00  0.00     0.686 A 
ATOM     41  H8  UNL     1       1.826 -16.737  10.556  1.00  0.00     0.186 HD
HETATM   42  N6  UNL     1       4.729 -16.325  12.006  1.00  0.00    -0.189 N 
ATOM     43  H6  UNL     1       5.122 -15.963  12.875  1.00  0.00     0.184 HD
BRANCH  38  44
HETATM   44  N1  UNL     1       3.117 -17.734   8.618  1.00  0.00    -0.380 N 
HETATM   45  C1  UNL     1       3.743 -17.632   7.338  1.00  0.00     0.147 C 
ATOM     46  H1  UNL     1       2.212 -18.202   8.668  1.00  0.00     0.160 HD
ENDBRANCH  38  44
BRANCH  40  47
HETATM   47  N7  UNL     1       2.588 -15.821  12.716  1.00  0.00    -0.167 N 
ATOM     48  H7  UNL     1       2.579 -14.820  12.912  1.00  0.00     0.186 HD
BRANCH  47  49
HETATM   49  C33 UNL     1       1.708 -16.691  13.428  1.00  0.00     0.368 C 
HETATM   50  O2  UNL     1       1.848 -17.933  13.389  1.00  0.00    -0.283 OA
ENDBRANCH  47  49
ENDBRANCH  40  47
ENDBRANCH   1  36
TORSDOF 13
ENDMDL
MODEL 4
REMARK VINA RESULT: -7.828323209      2.486      7.768
REMARK  13 active torsions:
REMARK  status: ('A' for Active; 'I' for Inactive)
REMARK    1  A    between atoms: N1_2  and  C2_4 
REMARK    2  A    between atoms: C4_6  and  C5_7 
REMARK    3  A    between atoms: C10_12  and  C11_13 
REMARK    4  A    between atoms: C11_13  and  N2_14 
REMARK    5  A    between atoms: N3_17  and  C14_18 
REMARK    6  A    between atoms: C14_18  and  C15_19 
REMARK    7  A    between atoms: C15_19  and  O1_20 
REMARK    8  A    between atoms: C15_19  and  C16_22 
REMARK    9  A    between atoms: C16_22  and  C17_23 
REMARK   10  A    between atoms: C17_23  and  C18_24 
REMARK   11  A    between atoms: C21_27  and  C22_28 
REMARK   12  A    between atoms: C32_44  and  N7_45 
REMARK   13  A    between atoms: N7_45  and  C33_47 
ROOT
HETATM    1  C5  UNL     1      12.999 -15.388  14.545  1.00  0.00     0.060 A 
HETATM    2  C6  UNL     1      11.820 -15.775  15.143  1.00  0.00     0.033 A 
HETATM    3  C7  UNL     1      11.076 -16.865  14.725  1.00  0.00     0.016 A 
HETATM    4  C8  UNL     1      11.526 -17.607  13.659  1.00  0.00    -0.006 A 
HETATM    5  C9  UNL     1      10.856 -18.713  13.189  1.00  0.00     0.040 A 
HETATM    6  C10 UNL     1      11.325 -19.471  12.117  1.00  0.00     0.038 A 
HETATM    7  N4  UNL     1      12.485 -19.048  11.563  1.00  0.00    -0.365 N 
ATOM      8  H4  UNL     1      12.864 -19.572  10.774  1.00  0.00     0.165 HD
HETATM    9  C30 UNL     1      13.160 -17.976  11.998  1.00  0.00     0.118 A 
HETATM   10  C31 UNL     1      12.705 -17.205  13.072  1.00  0.00     0.058 A 
HETATM   11  N5  UNL     1      13.404 -16.144  13.501  1.00  0.00    -0.353 N 
ATOM     12  H5  UNL     1      14.272 -15.900  13.022  1.00  0.00     0.166 HD
ENDROOT
BRANCH   6  13
HETATM   13  C11 UNL     1      10.611 -20.677  11.651  1.00  0.00     0.329 C 
BRANCH  13  14
HETATM   14  N2  UNL     1      10.110 -20.450  10.279  1.00  0.00     0.100 N 
HETATM   15  C12 UNL     1       8.667 -20.648  10.375  1.00  0.00     0.293 C 
HETATM   16  C13 UNL     1       8.052 -19.284  10.717  1.00  0.00     0.157 C 
HETATM   17  N3  UNL     1       8.235 -18.535   9.472  1.00  0.00    -0.368 N 
HETATM   18  C28 UNL     1       9.546 -18.300   9.121  1.00  0.00     0.093 C 
HETATM   19  C29 UNL     1      10.514 -19.140   9.925  1.00  0.00     0.317 C 
BRANCH  17  20
HETATM   20  C14 UNL     1       7.120 -17.816   9.084  1.00  0.00     0.094 C 
BRANCH  20  21
HETATM   21  C15 UNL     1       6.715 -16.686   9.938  1.00  0.00     0.157 C 
BRANCH  21  22
HETATM   22  O1  UNL     1       5.434 -16.902  10.504  1.00  0.00    -0.390 OA
ATOM     23  H1  UNL     1       5.183 -16.185  11.074  1.00  0.00     0.210 HD
ENDBRANCH  21  22
BRANCH  21  24
HETATM   24  C16 UNL     1       6.855 -15.299   9.494  1.00  0.00     0.042 C 
BRANCH  24  25
HETATM   25  C17 UNL     1       8.193 -14.681   9.752  1.00  0.00     0.041 C 
BRANCH  25  26
HETATM   26  C18 UNL     1       8.353 -14.297  11.172  1.00  0.00    -0.058 A 
HETATM   27  C19 UNL     1       7.307 -14.036  12.024  1.00  0.00     0.007 A 
HETATM   28  C20 UNL     1       7.497 -13.648  13.343  1.00  0.00     0.008 A 
HETATM   29  C21 UNL     1       8.760 -13.502  13.871  1.00  0.00    -0.051 A 
HETATM   30  C26 UNL     1       9.825 -13.758  13.036  1.00  0.00     0.008 A 
HETATM   31  C27 UNL     1       9.634 -14.145  11.720  1.00  0.00     0.007 A 
BRANCH  29  32
HETATM   32  C22 UNL     1       8.931 -13.072  15.297  1.00  0.00    -0.024 C 
HETATM   33  C23 UNL     1      10.295 -12.475  15.497  1.00  0.00     0.019 C 
HETATM   34  C24 UNL     1       8.827 -14.300  16.184  1.00  0.00     0.019 C 
HETATM   35  C25 UNL     1       7.846 -12.112  15.728  1.00  0.00     0.019 C 
ENDBRANCH  29  32
ENDBRANCH  25  26
ENDBRANCH  24  25
ENDBRANCH  21  24
ENDBRANCH  20  21
ENDBRANCH  17  20
ENDBRANCH  13  14
ENDBRANCH   6  13
BRANCH   1  36
HETATM   36  C4  UNL     1      13.806 -14.255  15.003  1.00  0.00     0.079 A 
HETATM   37  C3  UNL     1      13.591 -13.601  16.189  1.00  0.00     0.081 A 
HETATM   38  C2  UNL     1      14.421 -12.541  16.589  1.00  0.00     0.118 A 
HETATM   39  N8  UNL     1      15.431 -12.181  15.784  1.00  0.00    -0.177 N 
HETATM   40  C32 UNL     1      15.638 -12.832  14.611  1.00  0.00     0.686 A 
ATOM     41  H8  UNL     1      16.048 -11.414  16.055  1.00  0.00     0.186 HD
HETATM   42  N6  UNL     1      14.836 -13.848  14.236  1.00  0.00    -0.189 N 
ATOM     43  H6  UNL     1      15.014 -14.322  13.350  1.00  0.00     0.184 HD
BRANCH  38  44
HETATM   44  N1  UNL     1      14.202 -11.946  17.706  1.00  0.00    -0.380 N 
HETATM   45  C1  UNL     1      13.079 -12.200  18.552  1.00  0.00     0.147 C 
ATOM     46  H1  UNL     1      14.875 -11.243  18.010  1.00  0.00     0.160 HD
ENDBRANCH  38  44
BRANCH  40  47
HETATM   47  N7  UNL     1      16.631 -12.434  13.887  1.00  0.00    -0.167 N 
ATOM     48  H7  UNL     1      17.381 -13.086  13.653  1.00  0.00     0.186 HD
BRANCH  47  49
HETATM   49  C33 UNL     1      16.688 -11.089  13.413  1.00  0.00     0.368 C 
HETATM   50  O2  UNL     1      16.786 -10.124  14.203  1.00  0.00    -0.283 OA
ENDBRANCH  47  49
ENDBRANCH  40  47
ENDBRANCH   1  36
TORSDOF 13
ENDMDL
MODEL 5
REMARK VINA RESULT: -7.699719901      3.495      9.133
REMARK  13 active torsions:
REMARK  status: ('A' for Active; 'I' for Inactive)
REMARK    1  A    between atoms: N1_2  and  C2_4 
REMARK    2  A    between atoms: C4_6  and  C5_7 
REMARK    3  A    between atoms: C10_12  and  C11_13 
REMARK    4  A    between atoms: C11_13  and  N2_14 
REMARK    5  A    between atoms: N3_17  and  C14_18 
REMARK    6  A    between atoms: C14_18  and  C15_19 
REMARK    7  A    between atoms: C15_19  and  O1_20 
REMARK    8  A    between atoms: C15_19  and  C16_22 
REMARK    9  A    between atoms: C16_22  and  C17_23 
REMARK   10  A    between atoms: C17_23  and  C18_24 
REMARK   11  A    between atoms: C21_27  and  C22_28 
REMARK   12  A    between atoms: C32_44  and  N7_45 
REMARK   13  A    between atoms: N7_45  and  C33_47 
ROOT
HETATM    1  C5  UNL     1      12.632 -14.312  14.616  1.00  0.00     0.060 A 
HETATM    2  C6  UNL     1      11.261 -14.263  14.744  1.00  0.00     0.033 A 
HETATM    3  C7  UNL     1      10.413 -15.227  14.224  1.00  0.00     0.016 A 
HETATM    4  C8  UNL     1      10.954 -16.292  13.545  1.00  0.00    -0.006 A 
HETATM    5  C9  UNL     1      10.186 -17.300  13.011  1.00  0.00     0.040 A 
HETATM    6  C10 UNL     1      10.740 -18.386  12.336  1.00  0.00     0.038 A 
HETATM    7  N4  UNL     1      12.090 -18.385  12.235  1.00  0.00    -0.365 N 
ATOM      8  H4  UNL     1      12.539 -19.161  11.747  1.00  0.00     0.165 HD
HETATM    9  C30 UNL     1      12.866 -17.419  12.744  1.00  0.00     0.118 A 
HETATM   10  C31 UNL     1      12.326 -16.324  13.425  1.00  0.00     0.058 A 
HETATM   11  N5  UNL     1      13.122 -15.375  13.940  1.00  0.00    -0.353 N 
ATOM     12  H5  UNL     1      14.131 -15.459  13.817  1.00  0.00     0.166 HD
ENDROOT
BRANCH   6  13
HETATM   13  C11 UNL     1       9.901 -19.477  11.802  1.00  0.00     0.329 C 
BRANCH  13  14
HETATM   14  N2  UNL     1      10.242 -19.708  10.382  1.00  0.00     0.100 N 
HETATM   15  C12 UNL     1       9.627 -20.992  10.058  1.00  0.00     0.293 C 
HETATM   16  C13 UNL     1       8.205 -20.691   9.564  1.00  0.00     0.157 C 
HETATM   17  N3  UNL     1       8.449 -20.066   8.262  1.00  0.00    -0.368 N 
HETATM   18  C28 UNL     1       9.112 -18.859   8.312  1.00  0.00     0.093 C 
HETATM   19  C29 UNL     1       9.727 -18.599   9.669  1.00  0.00     0.317 C 
BRANCH  17  20
HETATM   20  C14 UNL     1       7.622 -20.529   7.257  1.00  0.00     0.094 C 
BRANCH  20  21
HETATM   21  C15 UNL     1       6.175 -20.550   7.528  1.00  0.00     0.157 C 
BRANCH  21  22
HETATM   22  O1  UNL     1       5.520 -21.540   6.755  1.00  0.00    -0.390 OA
ATOM     23  H1  UNL     1       4.635 -21.690   7.064  1.00  0.00     0.210 HD
ENDBRANCH  21  22
BRANCH  21  24
HETATM   24  C16 UNL     1       5.384 -19.319   7.567  1.00  0.00     0.042 C 
BRANCH  24  25
HETATM   25  C17 UNL     1       4.983 -18.865   8.935  1.00  0.00     0.041 C 
BRANCH  25  26
HETATM   26  C18 UNL     1       5.755 -17.679   9.366  1.00  0.00    -0.058 A 
HETATM   27  C19 UNL     1       6.002 -16.586   8.569  1.00  0.00     0.007 A 
HETATM   28  C20 UNL     1       6.758 -15.505   8.998  1.00  0.00     0.008 A 
HETATM   29  C21 UNL     1       7.308 -15.471  10.261  1.00  0.00    -0.051 A 
HETATM   30  C26 UNL     1       7.073 -16.555  11.078  1.00  0.00     0.008 A 
HETATM   31  C27 UNL     1       6.319 -17.634  10.648  1.00  0.00     0.007 A 
BRANCH  29  32
HETATM   32  C22 UNL     1       8.127 -14.292  10.690  1.00  0.00    -0.024 C 
HETATM   33  C23 UNL     1       7.765 -13.894  12.093  1.00  0.00     0.019 C 
HETATM   34  C24 UNL     1       7.802 -13.123   9.778  1.00  0.00     0.019 C 
HETATM   35  C25 UNL     1       9.609 -14.563  10.564  1.00  0.00     0.019 C 
ENDBRANCH  29  32
ENDBRANCH  25  26
ENDBRANCH  24  25
ENDBRANCH  21  24
ENDBRANCH  20  21
ENDBRANCH  17  20
ENDBRANCH  13  14
ENDBRANCH   6  13
BRANCH   1  36
HETATM   36  C4  UNL     1      13.536 -13.313  15.190  1.00  0.00     0.079 A 
HETATM   37  C3  UNL     1      14.487 -12.645  14.461  1.00  0.00     0.081 A 
HETATM   38  C2  UNL     1      15.304 -11.672  15.062  1.00  0.00     0.118 A 
HETATM   39  N8  UNL     1      15.133 -11.410  16.366  1.00  0.00    -0.177 N 
HETATM   40  C32 UNL     1      14.189 -12.077  17.081  1.00  0.00     0.686 A 
ATOM     41  H8  UNL     1      15.714 -10.707  16.823  1.00  0.00     0.186 HD
HETATM   42  N6  UNL     1      13.411 -13.007  16.495  1.00  0.00    -0.189 N 
ATOM     43  H6  UNL     1      12.709 -13.493  17.054  1.00  0.00     0.184 HD
BRANCH  38  44
HETATM   44  N1  UNL     1      16.185 -11.057  14.359  1.00  0.00    -0.380 N 
HETATM   45  C1  UNL     1      16.591 -11.449  13.046  1.00  0.00     0.147 C 
ATOM     46  H1  UNL     1      16.627 -10.233  14.766  1.00  0.00     0.160 HD
ENDBRANCH  38  44
BRANCH  40  47
HETATM   47  N7  UNL     1      14.078 -11.771  18.331  1.00  0.00    -0.167 N 
ATOM     48  H7  UNL     1      14.913 -11.553  18.875  1.00  0.00     0.186 HD
BRANCH  47  49
HETATM   49  C33 UNL     1      12.795 -11.736  18.956  1.00  0.00     0.368 C 
HETATM   50  O2  UNL     1      11.790 -11.298  18.355  1.00  0.00    -0.283 OA
ENDBRANCH  47  49
ENDBRANCH  40  47
ENDBRANCH   1  36
TORSDOF 13
ENDMDL
