MODEL 1
REMARK VINA RESULT: -8.019429720      0.000      0.000
REMARK  12 active torsions:
REMARK  status: ('A' for Active; 'I' for Inactive)
REMARK    1  A    between atoms: C4_4  and  C5_5 
REMARK    2  A    between atoms: C8_8  and  C9_9 
REMARK    3  A    between atoms: C9_9  and  C10_10 
REMARK    4  A    between atoms: C13_13  and  O1_14 
REMARK    5  A    between atoms: C14_18  and  C15_19 
REMARK    6  A    between atoms: C15_19  and  C16_20 
REMARK    7  A    between atoms: C20_26  and  C21_27 
REMARK    8  A    between atoms: C21_27  and  C22_28 
REMARK    9  A    between atoms: N2_33  and  C26_34 
REMARK   10  A    between atoms: C29_39  and  C30_40 
REMARK   11  A    between atoms: C30_40  and  O6_41 
REMARK   12  A    between atoms: N4_43  and  O7_45 
ROOT
HETATM    1  C5  UNL     1      13.291 -15.960  16.271  1.00  0.00     0.038 C 
HETATM    2  C6  UNL     1      11.856 -15.817  16.194  1.00  0.00     0.030 C 
HETATM    3  C7  UNL     1      11.175 -15.132  15.105  1.00  0.00     0.013 C 
HETATM    4  C8  UNL     1      10.577 -15.626  14.018  1.00  0.00    -0.007 C 
HETATM    5  C13 UNL     1      10.454 -17.045  13.699  1.00  0.00     0.142 C 
HETATM    6  N1  UNL     1      11.408 -17.996  13.280  1.00  0.00    -0.357 N 
ATOM      7  H1  UNL     1      11.556 -18.794  13.899  1.00  0.00     0.162 HD
HETATM    8  C14 UNL     1      12.197 -17.967  12.076  1.00  0.00     0.183 C 
HETATM    9  C19 UNL     1      13.522 -18.593  12.210  1.00  0.00     0.282 C 
HETATM   10  O2  UNL     1      13.740 -19.636  11.479  1.00  0.00    -0.263 OA
HETATM   11  O3  UNL     1      14.576 -18.247  12.989  1.00  0.00    -0.305 OA
HETATM   12  C20 UNL     1      14.541 -17.760  14.334  1.00  0.00     0.224 C 
HETATM   13  C25 UNL     1      14.633 -16.307  14.251  1.00  0.00     0.255 C 
HETATM   14  O4  UNL     1      15.154 -15.829  13.183  1.00  0.00    -0.270 OA
HETATM   15  N2  UNL     1      14.176 -15.351  15.293  1.00  0.00    -0.299 N 
ENDROOT
BRANCH  15  16
HETATM   16  C26 UNL     1      14.741 -14.090  15.206  1.00  0.00     0.216 C 
HETATM   17  C27 UNL     1      14.170 -12.917  14.506  1.00  0.00     0.246 C 
HETATM   18  O5  UNL     1      13.286 -12.436  13.838  1.00  0.00    -0.271 OA
HETATM   19  N3  UNL     1      15.382 -12.270  15.012  1.00  0.00    -0.340 N 
HETATM   20  C28 UNL     1      16.354 -11.357  14.608  1.00  0.00     0.153 C 
HETATM   21  C29 UNL     1      15.055 -13.102  16.227  1.00  0.00     0.195 C 
BRANCH  21  22
HETATM   22  C30 UNL     1      14.101 -12.286  16.960  1.00  0.00     0.161 C 
HETATM   23  N4  UNL     1      12.834 -12.297  16.855  1.00  0.00    -0.249 N 
ATOM     24  H4  UNL     1      12.426 -12.948  16.184  1.00  0.00     0.196 HD
BRANCH  22  25
HETATM   25  O6  UNL     1      14.620 -11.375  17.894  1.00  0.00    -0.346 OA
ATOM     26  H6  UNL     1      14.287 -10.486  17.864  1.00  0.00     0.219 HD
ENDBRANCH  22  25
BRANCH  23  27
HETATM   27  O7  UNL     1      11.979 -11.513  17.564  1.00  0.00    -0.288 OA
ATOM     28  H7  UNL     1      11.267 -11.004  17.195  1.00  0.00     0.244 HD
ENDBRANCH  23  27
ENDBRANCH  21  22
ENDBRANCH  15  16
BRANCH   1  29
HETATM   29  C4  UNL     1      13.854 -15.906  17.670  1.00  0.00     0.032 C 
HETATM   30  C2  UNL     1      13.929 -16.907  18.518  1.00  0.00    -0.086 C 
HETATM   31  C1  UNL     1      14.526 -16.682  19.907  1.00  0.00     0.043 C 
HETATM   32  C3  UNL     1      13.486 -18.291  18.207  1.00  0.00     0.043 C 
ENDBRANCH   1  29
BRANCH  12  33
HETATM   33  C21 UNL     1      15.738 -18.263  15.108  1.00  0.00     0.046 C 
BRANCH  33  34
HETATM   34  C22 UNL     1      15.872 -19.739  15.212  1.00  0.00    -0.020 C 
HETATM   35  C23 UNL     1      17.010 -20.179  16.111  1.00  0.00     0.009 C 
HETATM   36  C24 UNL     1      14.590 -20.469  15.474  1.00  0.00     0.009 C 
ENDBRANCH  33  34
ENDBRANCH  12  33
BRANCH   4  37
HETATM   37  C9  UNL     1       9.938 -14.633  13.051  1.00  0.00     0.046 C 
BRANCH  37  38
HETATM   38  C10 UNL     1       8.481 -14.434  13.292  1.00  0.00    -0.018 C 
HETATM   39  C11 UNL     1       7.797 -14.067  11.974  1.00  0.00     0.010 C 
HETATM   40  C12 UNL     1       8.242 -13.383  14.349  1.00  0.00     0.010 C 
ENDBRANCH  37  38
ENDBRANCH   4  37
BRANCH   5  41
HETATM   41  O1  UNL     1       9.237 -17.514  13.829  1.00  0.00    -0.346 OA
ATOM     42  H1  UNL     1       9.105 -18.026  14.618  1.00  0.00     0.219 HD
ENDBRANCH   5  41
BRANCH   8  43
HETATM   43  C15 UNL     1      11.506 -18.370  10.822  1.00  0.00     0.039 C 
BRANCH  43  44
HETATM   44  C16 UNL     1      10.825 -17.366   9.994  1.00  0.00    -0.020 C 
HETATM   45  C17 UNL     1      11.447 -15.971  10.293  1.00  0.00     0.009 C 
HETATM   46  C18 UNL     1       9.357 -17.149  10.244  1.00  0.00     0.009 C 
ENDBRANCH  43  44
ENDBRANCH   8  43
TORSDOF 12
ENDMDL
MODEL 2
REMARK VINA RESULT: -8.011237773      1.710      2.863
REMARK  12 active torsions:
REMARK  status: ('A' for Active; 'I' for Inactive)
REMARK    1  A    between atoms: C4_4  and  C5_5 
REMARK    2  A    between atoms: C8_8  and  C9_9 
REMARK    3  A    between atoms: C9_9  and  C10_10 
REMARK    4  A    between atoms: C13_13  and  O1_14 
REMARK    5  A    between atoms: C14_18  and  C15_19 
REMARK    6  A    between atoms: C15_19  and  C16_20 
REMARK    7  A    between atoms: C20_26  and  C21_27 
REMARK    8  A    between atoms: C21_27  and  C22_28 
REMARK    9  A    between atoms: N2_33  and  C26_34 
REMARK   10  A    between atoms: C29_39  and  C30_40 
REMARK   11  A    between atoms: C30_40  and  O6_41 
REMARK   12  A    between atoms: N4_43  and  O7_45 
ROOT
HETATM    1  C5  UNL     1      12.440 -14.533  16.172  1.00  0.00     0.038 C 
HETATM    2  C6  UNL     1      11.205 -14.785  15.466  1.00  0.00     0.030 C 
HETATM    3  C7  UNL     1      11.066 -14.663  14.023  1.00  0.00     0.013 C 
HETATM    4  C8  UNL     1      11.095 -15.602  13.073  1.00  0.00    -0.007 C 
HETATM    5  C13 UNL     1      11.253 -17.033  13.313  1.00  0.00     0.142 C 
HETATM    6  N1  UNL     1      12.366 -17.796  13.726  1.00  0.00    -0.357 N 
ATOM      7  H1  UNL     1      12.268 -18.300  14.608  1.00  0.00     0.162 HD
HETATM    8  C14 UNL     1      13.624 -17.942  13.042  1.00  0.00     0.183 C 
HETATM    9  C19 UNL     1      14.775 -18.143  13.938  1.00  0.00     0.282 C 
HETATM   10  O2  UNL     1      15.396 -19.271  13.829  1.00  0.00    -0.263 OA
HETATM   11  O3  UNL     1      15.303 -17.320  14.877  1.00  0.00    -0.305 OA
HETATM   12  C20 UNL     1      14.599 -16.468  15.784  1.00  0.00     0.224 C 
HETATM   13  C25 UNL     1      14.601 -15.137  15.187  1.00  0.00     0.255 C 
HETATM   14  O4  UNL     1      15.522 -14.897  14.332  1.00  0.00    -0.270 OA
HETATM   15  N2  UNL     1      13.630 -14.053  15.488  1.00  0.00    -0.299 N 
ENDROOT
BRANCH  15  16
HETATM   16  C26 UNL     1      14.063 -12.781  15.156  1.00  0.00     0.216 C 
HETATM   17  C27 UNL     1      13.255 -11.541  15.182  1.00  0.00     0.246 C 
HETATM   18  O5  UNL     1      12.196 -10.997  15.383  1.00  0.00    -0.271 OA
HETATM   19  N3  UNL     1      14.518 -10.940  14.749  1.00  0.00    -0.340 N 
HETATM   20  C28 UNL     1      14.993  -9.967  13.873  1.00  0.00     0.153 C 
HETATM   21  C29 UNL     1      15.075 -11.921  15.751  1.00  0.00     0.195 C 
BRANCH  21  22
HETATM   22  C30 UNL     1      14.972 -11.219  17.019  1.00  0.00     0.161 C 
HETATM   23  N4  UNL     1      14.308 -11.571  18.045  1.00  0.00    -0.249 N 
ATOM     24  H4  UNL     1      13.784 -12.443  17.987  1.00  0.00     0.196 HD
BRANCH  22  25
HETATM   25  O6  UNL     1      15.677 -10.011  17.143  1.00  0.00    -0.346 OA
ATOM     26  H6  UNL     1      15.172  -9.207  17.095  1.00  0.00     0.219 HD
ENDBRANCH  22  25
BRANCH  23  27
HETATM   27  O7  UNL     1      14.240 -10.879  19.214  1.00  0.00    -0.288 OA
ATOM     28  H7  UNL     1      13.487 -10.388  19.519  1.00  0.00     0.244 HD
ENDBRANCH  23  27
ENDBRANCH  21  22
ENDBRANCH  15  16
BRANCH   1  29
HETATM   29  C4  UNL     1      12.269 -13.910  17.536  1.00  0.00     0.032 C 
HETATM   30  C2  UNL     1      11.247 -13.190  17.939  1.00  0.00    -0.086 C 
HETATM   31  C1  UNL     1      11.230 -12.625  19.359  1.00  0.00     0.043 C 
HETATM   32  C3  UNL     1      10.058 -12.894  17.099  1.00  0.00     0.043 C 
ENDBRANCH   1  29
BRANCH  12  33
HETATM   33  C21 UNL     1      15.325 -16.389  17.107  1.00  0.00     0.046 C 
BRANCH  33  34
HETATM   34  C22 UNL     1      14.563 -16.855  18.295  1.00  0.00    -0.020 C 
HETATM   35  C23 UNL     1      13.454 -17.830  17.955  1.00  0.00     0.009 C 
HETATM   36  C24 UNL     1      15.408 -17.294  19.451  1.00  0.00     0.009 C 
ENDBRANCH  33  34
ENDBRANCH  12  33
BRANCH   4  37
HETATM   37  C9  UNL     1      10.910 -15.149  11.627  1.00  0.00     0.046 C 
BRANCH  37  38
HETATM   38  C10 UNL     1       9.485 -15.151  11.190  1.00  0.00    -0.018 C 
HETATM   39  C11 UNL     1       9.303 -16.176  10.069  1.00  0.00     0.010 C 
HETATM   40  C12 UNL     1       9.048 -13.774  10.756  1.00  0.00     0.010 C 
ENDBRANCH  37  38
ENDBRANCH   4  37
BRANCH   5  41
HETATM   41  O1  UNL     1      10.162 -17.729  13.105  1.00  0.00    -0.346 OA
ATOM     42  H1  UNL     1      10.100 -18.096  12.231  1.00  0.00     0.219 HD
ENDBRANCH   5  41
BRANCH   8  43
HETATM   43  C15 UNL     1      13.643 -18.872  11.882  1.00  0.00     0.039 C 
BRANCH  43  44
HETATM   44  C16 UNL     1      12.392 -19.452  11.374  1.00  0.00    -0.020 C 
HETATM   45  C17 UNL     1      12.648 -20.943  11.012  1.00  0.00     0.009 C 
HETATM   46  C18 UNL     1      11.837 -18.878  10.099  1.00  0.00     0.009 C 
ENDBRANCH  43  44
ENDBRANCH   8  43
TORSDOF 12
ENDMDL
MODEL 3
REMARK VINA RESULT: -8.006970946      1.943      2.858
REMARK  12 active torsions:
REMARK  status: ('A' for Active; 'I' for Inactive)
REMARK    1  A    between atoms: C4_4  and  C5_5 
REMARK    2  A    between atoms: C8_8  and  C9_9 
REMARK    3  A    between atoms: C9_9  and  C10_10 
REMARK    4  A    between atoms: C13_13  and  O1_14 
REMARK    5  A    between atoms: C14_18  and  C15_19 
REMARK    6  A    between atoms: C15_19  and  C16_20 
REMARK    7  A    between atoms: C20_26  and  C21_27 
REMARK    8  A    between atoms: C21_27  and  C22_28 
REMARK    9  A    between atoms: N2_33  and  C26_34 
REMARK   10  A    between atoms: C29_39  and  C30_40 
REMARK   11  A    between atoms: C30_40  and  O6_41 
REMARK   12  A    between atoms: N4_43  and  O7_45 
ROOT
HETATM    1  C5  UNL     1      11.201 -13.905  16.068  1.00  0.00     0.038 C 
HETATM    2  C6  UNL     1       9.965 -13.668  15.358  1.00  0.00     0.030 C 
HETATM    3  C7  UNL     1       9.883 -13.537  13.911  1.00  0.00     0.013 C 
HETATM    4  C8  UNL     1       9.539 -14.435  12.984  1.00  0.00    -0.007 C 
HETATM    5  C13 UNL     1       9.123 -15.806  13.257  1.00  0.00     0.142 C 
HETATM    6  N1  UNL     1       9.846 -16.935  13.697  1.00  0.00    -0.357 N 
ATOM      7  H1  UNL     1       9.559 -17.338  14.589  1.00  0.00     0.162 HD
HETATM    8  C14 UNL     1      10.945 -17.581  13.028  1.00  0.00     0.183 C 
HETATM    9  C19 UNL     1      11.926 -18.196  13.937  1.00  0.00     0.282 C 
HETATM   10  O2  UNL     1      12.053 -19.479  13.859  1.00  0.00    -0.263 OA
HETATM   11  O3  UNL     1      12.736 -17.624  14.861  1.00  0.00    -0.305 OA
HETATM   12  C20 UNL     1      12.424 -16.541  15.742  1.00  0.00     0.224 C 
HETATM   13  C25 UNL     1      12.948 -15.333  15.115  1.00  0.00     0.255 C 
HETATM   14  O4  UNL     1      13.889 -15.496  14.263  1.00  0.00    -0.270 OA
HETATM   15  N2  UNL     1      12.482 -13.948  15.384  1.00  0.00    -0.299 N 
ENDROOT
BRANCH  15  16
HETATM   16  C26 UNL     1      13.380 -12.957  15.026  1.00  0.00     0.216 C 
HETATM   17  C27 UNL     1      13.092 -11.511  14.905  1.00  0.00     0.246 C 
HETATM   18  O5  UNL     1      12.300 -10.601  14.972  1.00  0.00    -0.271 OA
HETATM   19  N3  UNL     1      14.515 -11.453  14.565  1.00  0.00    -0.340 N 
HETATM   20  C28 UNL     1      15.379 -10.802  13.687  1.00  0.00     0.153 C 
HETATM   21  C29 UNL     1      14.595 -12.479  15.669  1.00  0.00     0.195 C 
BRANCH  21  22
HETATM   22  C30 UNL     1      14.671 -11.680  16.881  1.00  0.00     0.161 C 
HETATM   23  N4  UNL     1      14.156 -11.943  18.013  1.00  0.00    -0.249 N 
ATOM     24  H4  UNL     1      13.626 -12.810  18.096  1.00  0.00     0.196 HD
BRANCH  22  25
HETATM   25  O6  UNL     1      15.391 -10.476  16.811  1.00  0.00    -0.346 OA
ATOM     26  H6  UNL     1      14.891  -9.680  16.672  1.00  0.00     0.219 HD
ENDBRANCH  22  25
BRANCH  23  27
HETATM   27  O7  UNL     1      14.254 -11.163  19.123  1.00  0.00    -0.288 OA
ATOM     28  H7  UNL     1      13.611 -11.116  19.820  1.00  0.00     0.244 HD
ENDBRANCH  23  27
ENDBRANCH  21  22
ENDBRANCH  15  16
BRANCH   1  29
HETATM   29  C4  UNL     1      11.289 -13.232  17.416  1.00  0.00     0.032 C 
HETATM   30  C2  UNL     1      10.284 -12.762  18.119  1.00  0.00    -0.086 C 
HETATM   31  C1  UNL     1      10.547 -12.101  19.472  1.00  0.00     0.043 C 
HETATM   32  C3  UNL     1       8.863 -12.851  17.694  1.00  0.00     0.043 C 
ENDBRANCH   1  29
BRANCH  12  33
HETATM   33  C21 UNL     1      13.124 -16.723  17.069  1.00  0.00     0.046 C 
BRANCH  33  34
HETATM   34  C22 UNL     1      14.402 -17.480  17.032  1.00  0.00    -0.020 C 
HETATM   35  C23 UNL     1      15.618 -16.625  17.327  1.00  0.00     0.009 C 
HETATM   36  C24 UNL     1      14.387 -18.775  17.784  1.00  0.00     0.009 C 
ENDBRANCH  33  34
ENDBRANCH  12  33
BRANCH   4  37
HETATM   37  C9  UNL     1       9.545 -13.981  11.526  1.00  0.00     0.046 C 
BRANCH  37  38
HETATM   38  C10 UNL     1       8.212 -14.098  10.870  1.00  0.00    -0.018 C 
HETATM   39  C11 UNL     1       8.198 -15.339   9.976  1.00  0.00     0.010 C 
HETATM   40  C12 UNL     1       7.879 -12.851  10.089  1.00  0.00     0.010 C 
ENDBRANCH  37  38
ENDBRANCH   4  37
BRANCH   5  41
HETATM   41  O1  UNL     1       7.845 -16.022  13.057  1.00  0.00    -0.346 OA
ATOM     42  H1  UNL     1       7.660 -16.530  12.276  1.00  0.00     0.219 HD
ENDBRANCH   5  41
BRANCH   8  43
HETATM   43  C15 UNL     1      10.595 -18.471  11.889  1.00  0.00     0.039 C 
BRANCH  43  44
HETATM   44  C16 UNL     1      11.170 -18.236  10.558  1.00  0.00    -0.020 C 
HETATM   45  C17 UNL     1      11.629 -16.751  10.472  1.00  0.00     0.009 C 
HETATM   46  C18 UNL     1      10.250 -18.380   9.377  1.00  0.00     0.009 C 
ENDBRANCH  43  44
ENDBRANCH   8  43
TORSDOF 12
ENDMDL
MODEL 4
REMARK VINA RESULT: -7.921431563      1.660      2.232
REMARK  12 active torsions:
REMARK  status: ('A' for Active; 'I' for Inactive)
REMARK    1  A    between atoms: C4_4  and  C5_5 
REMARK    2  A    between atoms: C8_8  and  C9_9 
REMARK    3  A    between atoms: C9_9  and  C10_10 
REMARK    4  A    between atoms: C13_13  and  O1_14 
REMARK    5  A    between atoms: C14_18  and  C15_19 
REMARK    6  A    between atoms: C15_19  and  C16_20 
REMARK    7  A    between atoms: C20_26  and  C21_27 
REMARK    8  A    between atoms: C21_27  and  C22_28 
REMARK    9  A    between atoms: N2_33  and  C26_34 
REMARK   10  A    between atoms: C29_39  and  C30_40 
REMARK   11  A    between atoms: C30_40  and  O6_41 
REMARK   12  A    between atoms: N4_43  and  O7_45 
ROOT
HETATM    1  C5  UNL     1      12.725 -14.672  16.302  1.00  0.00     0.038 C 
HETATM    2  C6  UNL     1      11.428 -14.934  15.722  1.00  0.00     0.030 C 
HETATM    3  C7  UNL     1      11.130 -14.757  14.308  1.00  0.00     0.013 C 
HETATM    4  C8  UNL     1      11.083 -15.654  13.320  1.00  0.00    -0.007 C 
HETATM    5  C13 UNL     1      11.306 -17.087  13.475  1.00  0.00     0.142 C 
HETATM    6  N1  UNL     1      12.477 -17.830  13.733  1.00  0.00    -0.357 N 
ATOM      7  H1  UNL     1      12.489 -18.374  14.596  1.00  0.00     0.162 HD
HETATM    8  C14 UNL     1      13.658 -17.907  12.913  1.00  0.00     0.183 C 
HETATM    9  C19 UNL     1      14.904 -18.108  13.671  1.00  0.00     0.282 C 
HETATM   10  O2  UNL     1      15.541 -19.209  13.445  1.00  0.00    -0.263 OA
HETATM   11  O3  UNL     1      15.507 -17.309  14.584  1.00  0.00    -0.305 OA
HETATM   12  C20 UNL     1      14.881 -16.519  15.599  1.00  0.00     0.224 C 
HETATM   13  C25 UNL     1      14.782 -15.164  15.066  1.00  0.00     0.255 C 
HETATM   14  O4  UNL     1      15.599 -14.859  14.130  1.00  0.00    -0.270 OA
HETATM   15  N2  UNL     1      13.820 -14.126  15.518  1.00  0.00    -0.299 N 
ENDROOT
BRANCH  15  16
HETATM   16  C26 UNL     1      14.180 -12.828  15.200  1.00  0.00     0.216 C 
HETATM   17  C27 UNL     1      13.297 -11.640  15.224  1.00  0.00     0.246 C 
HETATM   18  O5  UNL     1      12.205 -11.162  15.414  1.00  0.00    -0.271 OA
HETATM   19  N3  UNL     1      14.527 -10.960  14.811  1.00  0.00    -0.340 N 
HETATM   20  C28 UNL     1      14.953  -9.954  13.946  1.00  0.00     0.153 C 
HETATM   21  C29 UNL     1      15.130 -11.913  15.813  1.00  0.00     0.195 C 
BRANCH  21  22
HETATM   22  C30 UNL     1      14.969 -11.227  17.084  1.00  0.00     0.161 C 
HETATM   23  N4  UNL     1      14.262 -11.594  18.076  1.00  0.00    -0.249 N 
ATOM     24  H4  UNL     1      13.743 -12.467  17.983  1.00  0.00     0.196 HD
BRANCH  22  25
HETATM   25  O6  UNL     1      15.665 -10.019  17.254  1.00  0.00    -0.346 OA
ATOM     26  H6  UNL     1      16.001  -9.831  18.123  1.00  0.00     0.219 HD
ENDBRANCH  22  25
BRANCH  23  27
HETATM   27  O7  UNL     1      14.140 -10.918  19.249  1.00  0.00    -0.288 OA
ATOM     28  H7  UNL     1      14.543 -10.080  19.445  1.00  0.00     0.244 HD
ENDBRANCH  23  27
ENDBRANCH  21  22
ENDBRANCH  15  16
BRANCH   1  29
HETATM   29  C4  UNL     1      12.684 -14.113  17.703  1.00  0.00     0.032 C 
HETATM   30  C2  UNL     1      13.003 -14.753  18.806  1.00  0.00    -0.086 C 
HETATM   31  C1  UNL     1      12.901 -14.040  20.154  1.00  0.00     0.043 C 
HETATM   32  C3  UNL     1      13.492 -16.155  18.838  1.00  0.00     0.043 C 
ENDBRANCH   1  29
BRANCH  12  33
HETATM   33  C21 UNL     1      15.743 -16.473  16.839  1.00  0.00     0.046 C 
BRANCH  33  34
HETATM   34  C22 UNL     1      16.847 -17.466  16.901  1.00  0.00    -0.020 C 
HETATM   35  C23 UNL     1      18.187 -16.857  17.262  1.00  0.00     0.009 C 
HETATM   36  C24 UNL     1      16.531 -18.709  17.674  1.00  0.00     0.009 C 
ENDBRANCH  33  34
ENDBRANCH  12  33
BRANCH   4  37
HETATM   37  C9  UNL     1      10.731 -15.146  11.923  1.00  0.00     0.046 C 
BRANCH  37  38
HETATM   38  C10 UNL     1       9.264 -15.115  11.664  1.00  0.00    -0.018 C 
HETATM   39  C11 UNL     1       8.931 -16.085  10.528  1.00  0.00     0.010 C 
HETATM   40  C12 UNL     1       8.796 -13.715  11.348  1.00  0.00     0.010 C 
ENDBRANCH  37  38
ENDBRANCH   4  37
BRANCH   5  41
HETATM   41  O1  UNL     1      10.218 -17.809  13.354  1.00  0.00    -0.346 OA
ATOM     42  H1  UNL     1       9.818 -18.043  14.183  1.00  0.00     0.219 HD
ENDBRANCH   5  41
BRANCH   8  43
HETATM   43  C15 UNL     1      13.577 -18.786  11.717  1.00  0.00     0.039 C 
BRANCH  43  44
HETATM   44  C16 UNL     1      12.279 -19.297  11.257  1.00  0.00    -0.020 C 
HETATM   45  C17 UNL     1      12.459 -20.777  10.809  1.00  0.00     0.009 C 
HETATM   46  C18 UNL     1      11.673 -18.643  10.045  1.00  0.00     0.009 C 
ENDBRANCH  43  44
ENDBRANCH   8  43
TORSDOF 12
ENDMDL
MODEL 5
REMARK VINA RESULT: -7.912647510      3.236      6.508
REMARK  12 active torsions:
REMARK  status: ('A' for Active; 'I' for Inactive)
REMARK    1  A    between atoms: C4_4  and  C5_5 
REMARK    2  A    between atoms: C8_8  and  C9_9 
REMARK    3  A    between atoms: C9_9  and  C10_10 
REMARK    4  A    between atoms: C13_13  and  O1_14 
REMARK    5  A    between atoms: C14_18  and  C15_19 
REMARK    6  A    between atoms: C15_19  and  C16_20 
REMARK    7  A    between atoms: C20_26  and  C21_27 
REMARK    8  A    between atoms: C21_27  and  C22_28 
REMARK    9  A    between atoms: N2_33  and  C26_34 
REMARK   10  A    between atoms: C29_39  and  C30_40 
REMARK   11  A    between atoms: C30_40  and  O6_41 
REMARK   12  A    between atoms: N4_43  and  O7_45 
ROOT
HETATM    1  C5  UNL     1       8.874 -15.181  13.916  1.00  0.00     0.038 C 
HETATM    2  C6  UNL     1       8.235 -16.422  14.288  1.00  0.00     0.030 C 
HETATM    3  C7  UNL     1       8.069 -17.544  13.375  1.00  0.00     0.013 C 
HETATM    4  C8  UNL     1       8.792 -18.658  13.241  1.00  0.00    -0.007 C 
HETATM    5  C13 UNL     1       9.951 -19.009  14.054  1.00  0.00     0.142 C 
HETATM    6  N1  UNL     1      11.261 -18.484  14.095  1.00  0.00    -0.357 N 
ATOM      7  H1  UNL     1      11.556 -18.070  14.980  1.00  0.00     0.162 HD
HETATM    8  C14 UNL     1      12.226 -18.467  13.028  1.00  0.00     0.183 C 
HETATM    9  C19 UNL     1      13.141 -17.313  13.062  1.00  0.00     0.282 C 
HETATM   10  O2  UNL     1      14.393 -17.580  13.234  1.00  0.00    -0.263 OA
HETATM   11  O3  UNL     1      12.879 -15.989  12.938  1.00  0.00    -0.305 OA
HETATM   12  C20 UNL     1      11.764 -15.268  13.469  1.00  0.00     0.224 C 
HETATM   13  C25 UNL     1      10.790 -15.157  12.389  1.00  0.00     0.255 C 
HETATM   14  O4  UNL     1      11.246 -15.268  11.198  1.00  0.00    -0.270 OA
HETATM   15  N2  UNL     1       9.332 -14.930  12.559  1.00  0.00    -0.299 N 
ENDROOT
BRANCH  15  16
HETATM   16  C26 UNL     1       8.690 -14.434  11.437  1.00  0.00     0.216 C 
HETATM   17  C27 UNL     1       8.101 -15.230  10.337  1.00  0.00     0.246 C 
HETATM   18  O5  UNL     1       7.872 -16.308   9.843  1.00  0.00    -0.271 OA
HETATM   19  N3  UNL     1       7.747 -13.904   9.827  1.00  0.00    -0.340 N 
HETATM   20  C28 UNL     1       7.687 -13.201   8.626  1.00  0.00     0.153 C 
HETATM   21  C29 UNL     1       7.468 -13.657  11.290  1.00  0.00     0.195 C 
BRANCH  21  22
HETATM   22  C30 UNL     1       6.111 -14.144  11.470  1.00  0.00     0.161 C 
HETATM   23  N4  UNL     1       5.750 -15.275  11.928  1.00  0.00    -0.249 N 
ATOM     24  H4  UNL     1       6.486 -15.924  12.205  1.00  0.00     0.196 HD
BRANCH  22  25
HETATM   25  O6  UNL     1       5.065 -13.283  11.101  1.00  0.00    -0.346 OA
ATOM     26  H6  UNL     1       5.131 -12.376  11.380  1.00  0.00     0.219 HD
ENDBRANCH  22  25
BRANCH  23  27
HETATM   27  O7  UNL     1       4.463 -15.688  12.080  1.00  0.00    -0.288 OA
ATOM     28  H7  UNL     1       3.826 -15.299  12.666  1.00  0.00     0.244 HD
ENDBRANCH  23  27
ENDBRANCH  21  22
ENDBRANCH  15  16
BRANCH   1  29
HETATM   29  C4  UNL     1       8.283 -13.952  14.562  1.00  0.00     0.032 C 
HETATM   30  C2  UNL     1       8.685 -13.390  15.679  1.00  0.00    -0.086 C 
HETATM   31  C1  UNL     1       7.970 -12.144  16.202  1.00  0.00     0.043 C 
HETATM   32  C3  UNL     1       9.834 -13.878  16.485  1.00  0.00     0.043 C 
ENDBRANCH   1  29
BRANCH  12  33
HETATM   33  C21 UNL     1      12.180 -13.872  13.871  1.00  0.00     0.046 C 
BRANCH  33  34
HETATM   34  C22 UNL     1      13.513 -13.752  14.517  1.00  0.00    -0.020 C 
HETATM   35  C23 UNL     1      14.206 -12.435  14.230  1.00  0.00     0.009 C 
HETATM   36  C24 UNL     1      13.546 -14.140  15.964  1.00  0.00     0.009 C 
ENDBRANCH  33  34
ENDBRANCH  12  33
BRANCH   4  37
HETATM   37  C9  UNL     1       8.350 -19.662  12.180  1.00  0.00     0.046 C 
BRANCH  37  38
HETATM   38  C10 UNL     1       9.463 -20.105  11.293  1.00  0.00    -0.018 C 
HETATM   39  C11 UNL     1       9.798 -18.984  10.307  1.00  0.00     0.010 C 
HETATM   40  C12 UNL     1       9.109 -21.384  10.574  1.00  0.00     0.010 C 
ENDBRANCH  37  38
ENDBRANCH   4  37
BRANCH   5  41
HETATM   41  O1  UNL     1       9.731 -19.988  14.897  1.00  0.00    -0.346 OA
ATOM     42  H1  UNL     1      10.272 -20.754  14.746  1.00  0.00     0.219 HD
ENDBRANCH   5  41
BRANCH   8  43
HETATM   43  C15 UNL     1      12.938 -19.744  12.759  1.00  0.00     0.039 C 
BRANCH  43  44
HETATM   44  C16 UNL     1      13.107 -20.226  11.382  1.00  0.00    -0.020 C 
HETATM   45  C17 UNL     1      12.810 -21.754  11.352  1.00  0.00     0.009 C 
HETATM   46  C18 UNL     1      14.484 -20.131  10.784  1.00  0.00     0.009 C 
ENDBRANCH  43  44
ENDBRANCH   8  43
TORSDOF 12
ENDMDL
