MODEL 1
REMARK VINA RESULT: -9.043467956      0.000      0.000
REMARK  14 active torsions:
REMARK  status: ('A' for Active; 'I' for Inactive)
REMARK       I    between atoms: C2_2  and  N1_4 
REMARK    1  A    between atoms: N1_4  and  C3_6 
REMARK    2  A    between atoms: C6_10  and  N2_11 
REMARK       I    between atoms: N2_11  and  C7_13 
REMARK       I    between atoms: C7_13  and  N3_15 
REMARK    3  A    between atoms: N3_15  and  C8_17 
REMARK    4  A    between atoms: N4_23  and  C13_24 
REMARK    5  A    between atoms: C13_24  and  C14_25 
REMARK    6  A    between atoms: C14_25  and  C15_26 
REMARK    7  A    between atoms: C15_26  and  C16_27 
REMARK    8  A    between atoms: C16_27  and  C17_28 
REMARK    9  A    between atoms: C17_28  and  C18_29 
REMARK   10  A    between atoms: C18_29  and  C19_30 
REMARK   11  A    between atoms: C19_30  and  C20_31 
REMARK   12  A    between atoms: C20_31  and  O5_32 
REMARK   13  A    between atoms: C23_36  and  C24_37 
REMARK   14  A    between atoms: C24_37  and  C25_38 
ROOT
HETATM    1  C8  UNL     1      -8.002  17.559  27.000  1.00  0.00     0.088 C 
HETATM    2  C9  UNL     1      -7.135  17.118  28.160  1.00  0.00     0.031 C 
HETATM    3  C10 UNL     1      -7.938  16.140  28.990  1.00  0.00     0.002 C 
HETATM    4  C11 UNL     1      -8.373  14.928  28.205  1.00  0.00     0.108 C 
HETATM    5  C12 UNL     1      -9.769  15.005  27.722  1.00  0.00     0.220 C 
HETATM    6  O4  UNL     1     -10.247  13.997  27.163  1.00  0.00    -0.273 OA
HETATM    7  N4  UNL     1     -10.582  16.155  27.861  1.00  0.00    -0.347 N 
HETATM    8  C21 UNL     1      -9.993  17.329  28.499  1.00  0.00     0.093 C 
HETATM    9  C22 UNL     1      -9.261  18.172  27.516  1.00  0.00     0.051 C 
HETATM   10  C23 UNL     1      -9.125  16.782  29.612  1.00  0.00     0.013 C 
ENDROOT
BRANCH   1  11
HETATM   11  N3  UNL     1      -7.312  18.531  26.170  1.00  0.00    -0.338 N 
HETATM   12  C7  UNL     1      -6.607  18.084  24.986  1.00  0.00     0.321 C 
HETATM   13  N2  UNL     1      -5.924  18.990  24.156  1.00  0.00    -0.305 N 
HETATM   14  O3  UNL     1      -6.614  16.865  24.710  1.00  0.00    -0.247 OA
ATOM     15  H2  UNL     1      -5.940  19.977  24.411  1.00  0.00     0.171 HD
ATOM     16  H3  UNL     1      -7.323  19.519  26.419  1.00  0.00     0.164 HD
BRANCH  13  17
HETATM   17  C6  UNL     1      -5.223  18.620  22.996  1.00  0.00     0.087 A 
HETATM   18  C3  UNL     1      -5.856  18.228  21.788  1.00  0.00     0.086 A 
HETATM   19  C4  UNL     1      -4.847  17.944  20.891  1.00  0.00     0.173 A 
HETATM   20  O2  UNL     1      -3.723  18.151  21.516  1.00  0.00    -0.330 OA
HETATM   21  C5  UNL     1      -3.886  18.542  22.733  1.00  0.00     0.173 A 
BRANCH  18  22
HETATM   22  N1  UNL     1      -7.252  18.168  21.626  1.00  0.00    -0.324 N 
HETATM   23  C2  UNL     1      -7.926  16.955  21.383  1.00  0.00     0.218 C 
HETATM   24  C1  UNL     1      -9.419  16.976  21.220  1.00  0.00     0.117 C 
HETATM   25  O1  UNL     1      -7.387  15.846  21.288  1.00  0.00    -0.274 OA
ATOM     26  H1  UNL     1      -7.794  19.030  21.685  1.00  0.00     0.169 HD
ENDBRANCH  18  22
ENDBRANCH  13  17
ENDBRANCH   1  11
BRANCH  10  27
HETATM   27  C24 UNL     1      -8.843  17.786  30.673  1.00  0.00     0.011 C 
BRANCH  27  28
HETATM   28  C25 UNL     1      -9.007  17.155  32.020  1.00  0.00    -0.014 C 
HETATM   29  C26 UNL     1      -7.763  16.423  32.445  1.00  0.00     0.005 C 
HETATM   30  C27 UNL     1      -8.013  15.224  33.286  1.00  0.00     0.000 C 
HETATM   31  C28 UNL     1      -9.207  15.327  34.183  1.00  0.00     0.000 C 
HETATM   32  C29 UNL     1     -10.439  15.819  33.463  1.00  0.00     0.000 C 
HETATM   33  C30 UNL     1     -10.135  16.109  32.006  1.00  0.00     0.005 C 
ENDBRANCH  27  28
ENDBRANCH  10  27
BRANCH   7  34
HETATM   34  C13 UNL     1     -11.954  16.263  27.426  1.00  0.00     0.126 C 
BRANCH  34  35
HETATM   35  C14 UNL     1     -12.945  15.848  28.451  1.00  0.00     0.020 C 
BRANCH  35  36
HETATM   36  C15 UNL     1     -13.496  14.481  28.076  1.00  0.00     0.002 C 
BRANCH  36  37
HETATM   37  C16 UNL     1     -13.153  13.401  29.034  1.00  0.00     0.000 C 
BRANCH  37  38
HETATM   38  C17 UNL     1     -12.380  13.938  30.197  1.00  0.00     0.000 C 
BRANCH  38  39
HETATM   39  C18 UNL     1     -12.897  13.414  31.483  1.00  0.00     0.002 C 
BRANCH  39  40
HETATM   40  C19 UNL     1     -14.216  14.063  31.887  1.00  0.00     0.026 C 
BRANCH  40  41
HETATM   41  C20 UNL     1     -14.028  15.117  32.931  1.00  0.00     0.164 C 
BRANCH  41  42
HETATM   42  O5  UNL     1     -14.729  16.262  32.623  1.00  0.00    -0.401 OA
ATOM     43  H5  UNL     1     -14.219  16.845  32.073  1.00  0.00     0.209 HD
ENDBRANCH  41  42
ENDBRANCH  40  41
ENDBRANCH  39  40
ENDBRANCH  38  39
ENDBRANCH  37  38
ENDBRANCH  36  37
ENDBRANCH  35  36
ENDBRANCH  34  35
ENDBRANCH   7  34
TORSDOF 14
ENDMDL
MODEL 2
REMARK VINA RESULT: -9.025813084      2.723     10.145
REMARK  14 active torsions:
REMARK  status: ('A' for Active; 'I' for Inactive)
REMARK       I    between atoms: C2_2  and  N1_4 
REMARK    1  A    between atoms: N1_4  and  C3_6 
REMARK    2  A    between atoms: C6_10  and  N2_11 
REMARK       I    between atoms: N2_11  and  C7_13 
REMARK       I    between atoms: C7_13  and  N3_15 
REMARK    3  A    between atoms: N3_15  and  C8_17 
REMARK    4  A    between atoms: N4_23  and  C13_24 
REMARK    5  A    between atoms: C13_24  and  C14_25 
REMARK    6  A    between atoms: C14_25  and  C15_26 
REMARK    7  A    between atoms: C15_26  and  C16_27 
REMARK    8  A    between atoms: C16_27  and  C17_28 
REMARK    9  A    between atoms: C17_28  and  C18_29 
REMARK   10  A    between atoms: C18_29  and  C19_30 
REMARK   11  A    between atoms: C19_30  and  C20_31 
REMARK   12  A    between atoms: C20_31  and  O5_32 
REMARK   13  A    between atoms: C23_36  and  C24_37 
REMARK   14  A    between atoms: C24_37  and  C25_38 
ROOT
HETATM    1  C8  UNL     1     -11.024  15.717  28.751  1.00  0.00     0.088 C 
HETATM    2  C9  UNL     1     -11.151  14.785  27.563  1.00  0.00     0.031 C 
HETATM    3  C10 UNL     1      -9.935  14.988  26.686  1.00  0.00     0.002 C 
HETATM    4  C11 UNL     1      -8.641  14.704  27.406  1.00  0.00     0.108 C 
HETATM    5  C12 UNL     1      -7.958  15.920  27.899  1.00  0.00     0.220 C 
HETATM    6  O4  UNL     1      -6.825  15.785  28.404  1.00  0.00    -0.273 OA
HETATM    7  N4  UNL     1      -8.521  17.216  27.826  1.00  0.00    -0.347 N 
HETATM    8  C21 UNL     1      -9.856  17.345  27.250  1.00  0.00     0.093 C 
HETATM    9  C22 UNL     1     -10.913  17.126  28.274  1.00  0.00     0.051 C 
HETATM   10  C23 UNL     1      -9.892  16.356  26.105  1.00  0.00     0.013 C 
ENDROOT
BRANCH   1  11
HETATM   11  N3  UNL     1     -12.175  15.606  29.629  1.00  0.00    -0.338 N 
HETATM   12  C7  UNL     1     -12.071  14.828  30.845  1.00  0.00     0.321 C 
HETATM   13  N2  UNL     1     -13.161  14.693  31.723  1.00  0.00    -0.305 N 
HETATM   14  O3  UNL     1     -10.983  14.270  31.107  1.00  0.00    -0.247 OA
ATOM     15  H2  UNL     1     -14.033  15.161  31.478  1.00  0.00     0.171 HD
ATOM     16  H3  UNL     1     -13.050  16.072  29.390  1.00  0.00     0.164 HD
BRANCH  13  17
HETATM   17  C6  UNL     1     -13.123  13.953  32.917  1.00  0.00     0.087 A 
HETATM   18  C3  UNL     1     -12.419  14.369  34.076  1.00  0.00     0.086 A 
HETATM   19  C4  UNL     1     -12.618  13.390  35.028  1.00  0.00     0.173 A 
HETATM   20  O2  UNL     1     -13.370  12.482  34.477  1.00  0.00    -0.330 OA
HETATM   21  C5  UNL     1     -13.690  12.759  33.259  1.00  0.00     0.173 A 
BRANCH  18  22
HETATM   22  N1  UNL     1     -11.685  15.567  34.152  1.00  0.00    -0.324 N 
HETATM   23  C2  UNL     1     -10.281  15.578  34.267  1.00  0.00     0.218 C 
HETATM   24  C1  UNL     1      -9.571  16.899  34.342  1.00  0.00     0.117 C 
HETATM   25  O1  UNL     1      -9.561  14.574  34.312  1.00  0.00    -0.274 OA
ATOM     26  H1  UNL     1     -12.184  16.455  34.123  1.00  0.00     0.169 HD
ENDBRANCH  18  22
ENDBRANCH  13  17
ENDBRANCH   1  11
BRANCH  10  27
HETATM   27  C24 UNL     1     -10.941  16.672  25.099  1.00  0.00     0.011 C 
BRANCH  27  28
HETATM   28  C25 UNL     1     -10.364  16.570  23.721  1.00  0.00    -0.014 C 
HETATM   29  C26 UNL     1     -10.451  15.167  23.186  1.00  0.00     0.005 C 
HETATM   30  C27 UNL     1      -9.339  14.785  22.278  1.00  0.00     0.000 C 
HETATM   31  C28 UNL     1      -8.795  15.909  21.450  1.00  0.00     0.000 C 
HETATM   32  C29 UNL     1      -8.506  17.147  22.263  1.00  0.00     0.000 C 
HETATM   33  C30 UNL     1      -8.871  16.937  23.719  1.00  0.00     0.005 C 
ENDBRANCH  27  28
ENDBRANCH  10  27
BRANCH   7  34
HETATM   34  C13 UNL     1      -7.879  18.430  28.273  1.00  0.00     0.126 C 
BRANCH  34  35
HETATM   35  C14 UNL     1      -7.039  19.083  27.238  1.00  0.00     0.020 C 
BRANCH  35  36
HETATM   36  C15 UNL     1      -5.573  18.854  27.578  1.00  0.00     0.002 C 
BRANCH  36  37
HETATM   37  C16 UNL     1      -4.842  18.015  26.597  1.00  0.00     0.000 C 
BRANCH  37  38
HETATM   38  C17 UNL     1      -5.679  17.751  25.385  1.00  0.00     0.000 C 
BRANCH  38  39
HETATM   39  C18 UNL     1      -5.020  18.244  24.152  1.00  0.00     0.002 C 
BRANCH  39  40
HETATM   40  C19 UNL     1      -5.772  19.405  23.515  1.00  0.00     0.026 C 
BRANCH  40  41
HETATM   41  C20 UNL     1      -5.432  20.715  24.152  1.00  0.00     0.164 C 
BRANCH  41  42
HETATM   42  O5  UNL     1      -6.195  21.740  23.636  1.00  0.00    -0.401 OA
ATOM     43  H5  UNL     1      -6.888  21.992  24.234  1.00  0.00     0.209 HD
ENDBRANCH  41  42
ENDBRANCH  40  41
ENDBRANCH  39  40
ENDBRANCH  38  39
ENDBRANCH  37  38
ENDBRANCH  36  37
ENDBRANCH  35  36
ENDBRANCH  34  35
ENDBRANCH   7  34
TORSDOF 14
ENDMDL
MODEL 3
REMARK VINA RESULT: -8.936280956      2.948     10.141
REMARK  14 active torsions:
REMARK  status: ('A' for Active; 'I' for Inactive)
REMARK       I    between atoms: C2_2  and  N1_4 
REMARK    1  A    between atoms: N1_4  and  C3_6 
REMARK    2  A    between atoms: C6_10  and  N2_11 
REMARK       I    between atoms: N2_11  and  C7_13 
REMARK       I    between atoms: C7_13  and  N3_15 
REMARK    3  A    between atoms: N3_15  and  C8_17 
REMARK    4  A    between atoms: N4_23  and  C13_24 
REMARK    5  A    between atoms: C13_24  and  C14_25 
REMARK    6  A    between atoms: C14_25  and  C15_26 
REMARK    7  A    between atoms: C15_26  and  C16_27 
REMARK    8  A    between atoms: C16_27  and  C17_28 
REMARK    9  A    between atoms: C17_28  and  C18_29 
REMARK   10  A    between atoms: C18_29  and  C19_30 
REMARK   11  A    between atoms: C19_30  and  C20_31 
REMARK   12  A    between atoms: C20_31  and  O5_32 
REMARK   13  A    between atoms: C23_36  and  C24_37 
REMARK   14  A    between atoms: C24_37  and  C25_38 
ROOT
HETATM    1  C8  UNL     1     -10.993  15.717  28.784  1.00  0.00     0.088 C 
HETATM    2  C9  UNL     1     -11.122  14.770  27.609  1.00  0.00     0.031 C 
HETATM    3  C10 UNL     1      -9.911  14.969  26.722  1.00  0.00     0.002 C 
HETATM    4  C11 UNL     1      -8.612  14.700  27.438  1.00  0.00     0.108 C 
HETATM    5  C12 UNL     1      -7.933  15.926  27.913  1.00  0.00     0.220 C 
HETATM    6  O4  UNL     1      -6.796  15.802  28.413  1.00  0.00    -0.273 OA
HETATM    7  N4  UNL     1      -8.503  17.218  27.828  1.00  0.00    -0.347 N 
HETATM    8  C21 UNL     1      -9.842  17.333  27.257  1.00  0.00     0.093 C 
HETATM    9  C22 UNL     1     -10.892  17.121  28.290  1.00  0.00     0.051 C 
HETATM   10  C23 UNL     1      -9.879  16.329  26.125  1.00  0.00     0.013 C 
ENDROOT
BRANCH   1  11
HETATM   11  N3  UNL     1     -12.139  15.611  29.669  1.00  0.00    -0.338 N 
HETATM   12  C7  UNL     1     -11.971  15.032  30.986  1.00  0.00     0.321 C 
HETATM   13  N2  UNL     1     -13.053  14.908  31.874  1.00  0.00    -0.305 N 
HETATM   14  O3  UNL     1     -10.834  14.637  31.325  1.00  0.00    -0.247 OA
ATOM     15  H2  UNL     1     -13.966  15.241  31.565  1.00  0.00     0.171 HD
ATOM     16  H3  UNL     1     -13.055  15.941  29.367  1.00  0.00     0.164 HD
BRANCH  13  17
HETATM   17  C6  UNL     1     -12.955  14.356  33.163  1.00  0.00     0.087 A 
HETATM   18  C3  UNL     1     -13.170  12.982  33.446  1.00  0.00     0.086 A 
HETATM   19  C4  UNL     1     -12.986  12.828  34.805  1.00  0.00     0.173 A 
HETATM   20  O2  UNL     1     -12.689  14.005  35.276  1.00  0.00    -0.330 OA
HETATM   21  C5  UNL     1     -12.657  14.921  34.369  1.00  0.00     0.173 A 
BRANCH  18  22
HETATM   22  N1  UNL     1     -13.506  12.029  32.466  1.00  0.00    -0.324 N 
HETATM   23  C2  UNL     1     -14.705  12.102  31.732  1.00  0.00     0.218 C 
HETATM   24  C1  UNL     1     -14.990  11.045  30.703  1.00  0.00     0.117 C 
HETATM   25  O1  UNL     1     -15.568  12.978  31.859  1.00  0.00    -0.274 OA
ATOM     26  H1  UNL     1     -12.860  11.262  32.282  1.00  0.00     0.169 HD
ENDBRANCH  18  22
ENDBRANCH  13  17
ENDBRANCH   1  11
BRANCH  10  27
HETATM   27  C24 UNL     1     -10.935  16.628  25.120  1.00  0.00     0.011 C 
BRANCH  27  28
HETATM   28  C25 UNL     1     -10.361  16.527  23.741  1.00  0.00    -0.014 C 
HETATM   29  C26 UNL     1     -10.388  15.112  23.232  1.00  0.00     0.005 C 
HETATM   30  C27 UNL     1      -9.264  14.764  22.324  1.00  0.00     0.000 C 
HETATM   31  C28 UNL     1      -8.776  15.896  21.473  1.00  0.00     0.000 C 
HETATM   32  C29 UNL     1      -8.538  17.160  22.262  1.00  0.00     0.000 C 
HETATM   33  C30 UNL     1      -8.886  16.960  23.723  1.00  0.00     0.005 C 
ENDBRANCH  27  28
ENDBRANCH  10  27
BRANCH   7  34
HETATM   34  C13 UNL     1      -7.865  18.439  28.256  1.00  0.00     0.126 C 
BRANCH  34  35
HETATM   35  C14 UNL     1      -7.071  19.108  27.194  1.00  0.00     0.020 C 
BRANCH  35  36
HETATM   36  C15 UNL     1      -5.591  18.911  27.489  1.00  0.00     0.002 C 
BRANCH  36  37
HETATM   37  C16 UNL     1      -4.899  17.993  26.551  1.00  0.00     0.000 C 
BRANCH  37  38
HETATM   38  C17 UNL     1      -5.712  17.775  25.313  1.00  0.00     0.000 C 
BRANCH  38  39
HETATM   39  C18 UNL     1      -5.006  18.263  24.105  1.00  0.00     0.002 C 
BRANCH  39  40
HETATM   40  C19 UNL     1      -5.735  19.421  23.434  1.00  0.00     0.026 C 
BRANCH  40  41
HETATM   41  C20 UNL     1      -5.476  20.724  24.121  1.00  0.00     0.164 C 
BRANCH  41  42
HETATM   42  O5  UNL     1      -6.235  21.739  23.581  1.00  0.00    -0.401 OA
ATOM     43  H5  UNL     1      -6.416  21.586  22.661  1.00  0.00     0.209 HD
ENDBRANCH  41  42
ENDBRANCH  40  41
ENDBRANCH  39  40
ENDBRANCH  38  39
ENDBRANCH  37  38
ENDBRANCH  36  37
ENDBRANCH  35  36
ENDBRANCH  34  35
ENDBRANCH   7  34
TORSDOF 14
ENDMDL
MODEL 4
REMARK VINA RESULT: -8.916265127      2.589     10.134
REMARK  14 active torsions:
REMARK  status: ('A' for Active; 'I' for Inactive)
REMARK       I    between atoms: C2_2  and  N1_4 
REMARK    1  A    between atoms: N1_4  and  C3_6 
REMARK    2  A    between atoms: C6_10  and  N2_11 
REMARK       I    between atoms: N2_11  and  C7_13 
REMARK       I    between atoms: C7_13  and  N3_15 
REMARK    3  A    between atoms: N3_15  and  C8_17 
REMARK    4  A    between atoms: N4_23  and  C13_24 
REMARK    5  A    between atoms: C13_24  and  C14_25 
REMARK    6  A    between atoms: C14_25  and  C15_26 
REMARK    7  A    between atoms: C15_26  and  C16_27 
REMARK    8  A    between atoms: C16_27  and  C17_28 
REMARK    9  A    between atoms: C17_28  and  C18_29 
REMARK   10  A    between atoms: C18_29  and  C19_30 
REMARK   11  A    between atoms: C19_30  and  C20_31 
REMARK   12  A    between atoms: C20_31  and  O5_32 
REMARK   13  A    between atoms: C23_36  and  C24_37 
REMARK   14  A    between atoms: C24_37  and  C25_38 
ROOT
HETATM    1  C8  UNL     1     -11.118  15.901  28.171  1.00  0.00     0.088 C 
HETATM    2  C9  UNL     1     -11.110  14.899  27.035  1.00  0.00     0.031 C 
HETATM    3  C10 UNL     1      -9.775  15.010  26.331  1.00  0.00     0.002 C 
HETATM    4  C11 UNL     1      -8.608  14.736  27.246  1.00  0.00     0.108 C 
HETATM    5  C12 UNL     1      -7.957  15.962  27.758  1.00  0.00     0.220 C 
HETATM    6  O4  UNL     1      -6.913  15.827  28.429  1.00  0.00    -0.273 OA
HETATM    7  N4  UNL     1      -8.454  17.266  27.528  1.00  0.00    -0.347 N 
HETATM    8  C21 UNL     1      -9.689  17.396  26.759  1.00  0.00     0.093 C 
HETATM    9  C22 UNL     1     -10.887  17.273  27.632  1.00  0.00     0.051 C 
HETATM   10  C23 UNL     1      -9.599  16.335  25.682  1.00  0.00     0.013 C 
ENDROOT
BRANCH   1  11
HETATM   11  N3  UNL     1     -12.386  15.880  28.879  1.00  0.00    -0.338 N 
HETATM   12  C7  UNL     1     -12.728  14.732  29.692  1.00  0.00     0.321 C 
HETATM   13  N2  UNL     1     -13.945  14.669  30.393  1.00  0.00    -0.305 N 
HETATM   14  O3  UNL     1     -11.915  13.784  29.762  1.00  0.00    -0.247 OA
ATOM     15  H2  UNL     1     -14.584  15.460  30.313  1.00  0.00     0.171 HD
ATOM     16  H3  UNL     1     -13.029  16.667  28.804  1.00  0.00     0.164 HD
BRANCH  13  17
HETATM   17  C6  UNL     1     -14.335  13.585  31.197  1.00  0.00     0.087 A 
HETATM   18  C3  UNL     1     -13.606  13.148  32.333  1.00  0.00     0.086 A 
HETATM   19  C4  UNL     1     -14.296  12.072  32.853  1.00  0.00     0.173 A 
HETATM   20  O2  UNL     1     -15.337  11.894  32.091  1.00  0.00    -0.330 OA
HETATM   21  C5  UNL     1     -15.406  12.741  31.121  1.00  0.00     0.173 A 
BRANCH  18  22
HETATM   22  N1  UNL     1     -12.415  13.755  32.773  1.00  0.00    -0.324 N 
HETATM   23  C2  UNL     1     -12.392  15.056  33.311  1.00  0.00     0.218 C 
HETATM   24  C1  UNL     1     -11.079  15.632  33.758  1.00  0.00     0.117 C 
HETATM   25  O1  UNL     1     -13.379  15.787  33.453  1.00  0.00    -0.274 OA
ATOM     26  H1  UNL     1     -11.541  13.236  32.701  1.00  0.00     0.169 HD
ENDBRANCH  18  22
ENDBRANCH  13  17
ENDBRANCH   1  11
BRANCH  10  27
HETATM   27  C24 UNL     1     -10.482  16.616  24.518  1.00  0.00     0.011 C 
BRANCH  27  28
HETATM   28  C25 UNL     1      -9.695  16.501  23.250  1.00  0.00    -0.014 C 
HETATM   29  C26 UNL     1      -9.463  15.064  22.870  1.00  0.00     0.005 C 
HETATM   30  C27 UNL     1      -8.177  14.815  22.167  1.00  0.00     0.000 C 
HETATM   31  C28 UNL     1      -7.712  15.942  21.298  1.00  0.00     0.000 C 
HETATM   32  C29 UNL     1      -7.762  17.279  21.996  1.00  0.00     0.000 C 
HETATM   33  C30 UNL     1      -8.302  17.134  23.405  1.00  0.00     0.005 C 
ENDBRANCH  27  28
ENDBRANCH  10  27
BRANCH   7  34
HETATM   34  C13 UNL     1      -7.838  18.487  27.989  1.00  0.00     0.126 C 
BRANCH  34  35
HETATM   35  C14 UNL     1      -6.829  19.043  27.053  1.00  0.00     0.020 C 
BRANCH  35  36
HETATM   36  C15 UNL     1      -5.438  18.722  27.581  1.00  0.00     0.002 C 
BRANCH  36  37
HETATM   37  C16 UNL     1      -4.590  17.952  26.639  1.00  0.00     0.000 C 
BRANCH  37  38
HETATM   38  C17 UNL     1      -5.327  17.655  25.370  1.00  0.00     0.000 C 
BRANCH  38  39
HETATM   39  C18 UNL     1      -4.601  18.173  24.186  1.00  0.00     0.002 C 
BRANCH  39  40
HETATM   40  C19 UNL     1      -4.658  19.692  24.088  1.00  0.00     0.026 C 
BRANCH  40  41
HETATM   41  C20 UNL     1      -5.826  20.162  23.281  1.00  0.00     0.164 C 
BRANCH  41  42
HETATM   42  O5  UNL     1      -6.102  21.490  23.519  1.00  0.00    -0.401 OA
ATOM     43  H5  UNL     1      -5.428  21.896  24.051  1.00  0.00     0.209 HD
ENDBRANCH  41  42
ENDBRANCH  40  41
ENDBRANCH  39  40
ENDBRANCH  38  39
ENDBRANCH  37  38
ENDBRANCH  36  37
ENDBRANCH  35  36
ENDBRANCH  34  35
ENDBRANCH   7  34
TORSDOF 14
ENDMDL
MODEL 5
REMARK VINA RESULT: -8.885245972      2.087      4.673
REMARK  14 active torsions:
REMARK  status: ('A' for Active; 'I' for Inactive)
REMARK       I    between atoms: C2_2  and  N1_4 
REMARK    1  A    between atoms: N1_4  and  C3_6 
REMARK    2  A    between atoms: C6_10  and  N2_11 
REMARK       I    between atoms: N2_11  and  C7_13 
REMARK       I    between atoms: C7_13  and  N3_15 
REMARK    3  A    between atoms: N3_15  and  C8_17 
REMARK    4  A    between atoms: N4_23  and  C13_24 
REMARK    5  A    between atoms: C13_24  and  C14_25 
REMARK    6  A    between atoms: C14_25  and  C15_26 
REMARK    7  A    between atoms: C15_26  and  C16_27 
REMARK    8  A    between atoms: C16_27  and  C17_28 
REMARK    9  A    between atoms: C17_28  and  C18_29 
REMARK   10  A    between atoms: C18_29  and  C19_30 
REMARK   11  A    between atoms: C19_30  and  C20_31 
REMARK   12  A    between atoms: C20_31  and  O5_32 
REMARK   13  A    between atoms: C23_36  and  C24_37 
REMARK   14  A    between atoms: C24_37  and  C25_38 
ROOT
HETATM    1  C8  UNL     1      -7.834  17.461  27.205  1.00  0.00     0.088 C 
HETATM    2  C9  UNL     1      -6.978  16.997  28.365  1.00  0.00     0.031 C 
HETATM    3  C10 UNL     1      -7.822  16.079  29.222  1.00  0.00     0.002 C 
HETATM    4  C11 UNL     1      -8.329  14.877  28.466  1.00  0.00     0.108 C 
HETATM    5  C12 UNL     1      -9.725  15.018  27.996  1.00  0.00     0.220 C 
HETATM    6  O4  UNL     1     -10.261  14.026  27.463  1.00  0.00    -0.273 OA
HETATM    7  N4  UNL     1     -10.474  16.212  28.121  1.00  0.00    -0.347 N 
HETATM    8  C21 UNL     1      -9.817  17.366  28.729  1.00  0.00     0.093 C 
HETATM    9  C22 UNL     1      -9.053  18.149  27.722  1.00  0.00     0.051 C 
HETATM   10  C23 UNL     1      -8.966  16.795  29.844  1.00  0.00     0.013 C 
ENDROOT
BRANCH   1  11
HETATM   11  N3  UNL     1      -7.103  18.378  26.349  1.00  0.00    -0.338 N 
HETATM   12  C7  UNL     1      -6.823  18.004  24.978  1.00  0.00     0.321 C 
HETATM   13  N2  UNL     1      -6.118  18.860  24.115  1.00  0.00    -0.305 N 
HETATM   14  O3  UNL     1      -7.223  16.892  24.568  1.00  0.00    -0.247 OA
ATOM     15  H2  UNL     1      -5.806  19.759  24.483  1.00  0.00     0.171 HD
ATOM     16  H3  UNL     1      -6.789  19.278  26.709  1.00  0.00     0.164 HD
BRANCH  13  17
HETATM   17  C6  UNL     1      -5.815  18.555  22.778  1.00  0.00     0.087 A 
HETATM   18  C3  UNL     1      -4.564  18.034  22.355  1.00  0.00     0.086 A 
HETATM   19  C4  UNL     1      -4.650  17.868  20.988  1.00  0.00     0.173 A 
HETATM   20  O2  UNL     1      -5.843  18.256  20.640  1.00  0.00    -0.330 OA
HETATM   21  C5  UNL     1      -6.555  18.661  21.635  1.00  0.00     0.173 A 
BRANCH  18  22
HETATM   22  N1  UNL     1      -3.496  17.769  23.232  1.00  0.00    -0.324 N 
HETATM   23  C2  UNL     1      -2.838  18.792  23.941  1.00  0.00     0.218 C 
HETATM   24  C1  UNL     1      -1.706  18.427  24.858  1.00  0.00     0.117 C 
HETATM   25  O1  UNL     1      -3.114  19.996  23.877  1.00  0.00    -0.274 OA
ATOM     26  H1  UNL     1      -3.188  16.805  23.358  1.00  0.00     0.169 HD
ENDBRANCH  18  22
ENDBRANCH  13  17
ENDBRANCH   1  11
BRANCH  10  27
HETATM   27  C24 UNL     1      -8.621  17.804  30.881  1.00  0.00     0.011 C 
BRANCH  27  28
HETATM   28  C25 UNL     1      -8.796  17.206  32.243  1.00  0.00    -0.014 C 
HETATM   29  C26 UNL     1      -7.645  16.310  32.607  1.00  0.00     0.005 C 
HETATM   30  C27 UNL     1      -8.012  15.160  33.474  1.00  0.00     0.000 C 
HETATM   31  C28 UNL     1      -9.130  15.433  34.434  1.00  0.00     0.000 C 
HETATM   32  C29 UNL     1     -10.318  16.090  33.776  1.00  0.00     0.000 C 
HETATM   33  C30 UNL     1     -10.058  16.329  32.302  1.00  0.00     0.005 C 
ENDBRANCH  27  28
ENDBRANCH  10  27
BRANCH   7  34
HETATM   34  C13 UNL     1     -11.843  16.384  27.698  1.00  0.00     0.126 C 
BRANCH  34  35
HETATM   35  C14 UNL     1     -12.086  16.020  26.279  1.00  0.00     0.020 C 
BRANCH  35  36
HETATM   36  C15 UNL     1     -11.317  16.983  25.386  1.00  0.00     0.002 C 
BRANCH  36  37
HETATM   37  C16 UNL     1     -10.269  16.341  24.556  1.00  0.00     0.000 C 
BRANCH  37  38
HETATM   38  C17 UNL     1     -10.876  15.538  23.449  1.00  0.00     0.000 C 
BRANCH  38  39
HETATM   39  C18 UNL     1      -9.857  14.719  22.750  1.00  0.00     0.002 C 
BRANCH  39  40
HETATM   40  C19 UNL     1      -8.948  15.557  21.860  1.00  0.00     0.026 C 
BRANCH  40  41
HETATM   41  C20 UNL     1      -9.706  16.243  20.767  1.00  0.00     0.164 C 
BRANCH  41  42
HETATM   42  O5  UNL     1      -9.582  17.612  20.851  1.00  0.00    -0.401 OA
ATOM     43  H5  UNL     1     -10.263  17.990  21.395  1.00  0.00     0.209 HD
ENDBRANCH  41  42
ENDBRANCH  40  41
ENDBRANCH  39  40
ENDBRANCH  38  39
ENDBRANCH  37  38
ENDBRANCH  36  37
ENDBRANCH  35  36
ENDBRANCH  34  35
ENDBRANCH   7  34
TORSDOF 14
ENDMDL
